MODEL 1
REMARK VINA RESULT:      -6.8      0.000      0.000
REMARK  Name = 
REMARK  3 active torsions:
REMARK  status: ('A' for Active; 'I' for Inactive)
REMARK    1  A    between atoms: C_2  and  C_18
REMARK    2  A    between atoms: N_3  and  C_4
REMARK    3  A    between atoms: C_8  and  C_9
REMARK                            x       y       z     vdW  Elec       q    Type
REMARK                         _______ _______ _______ _____ _____    ______ ____
ROOT
ATOM      1  C   UNL     1       6.600   4.558  22.669  0.00  0.00    +0.082 A 
ATOM      2  C   UNL     1       6.070   3.261  22.450  0.00  0.00    +0.149 A 
ATOM      3  N   UNL     1       4.739   3.274  22.270  0.00  0.00    -0.169 NA
ATOM      4  N   UNL     1       4.428   4.579  22.396  0.00  0.00    -0.282 N 
ATOM      5  H   UNL     1       3.456   4.856  22.307  0.00  0.00    +0.188 HD
ATOM      6  C   UNL     1       5.504   5.384  22.623  0.00  0.00    +0.129 A 
ENDROOT
BRANCH   2   7
ATOM      7  C   UNL     1       6.864   2.002  22.417  0.00  0.00    +0.161 A 
ATOM      8  N   UNL     1       6.412   0.819  22.934  0.00  0.00    -0.337 N 
ATOM      9  H   UNL     1       5.515   0.704  23.386  0.00  0.00    +0.167 HD
ATOM     10  C   UNL     1       7.354  -0.144  22.690  0.00  0.00    +0.067 A 
ATOM     11  C   UNL     1       7.394  -1.515  22.951  0.00  0.00    +0.028 A 
ATOM     12  C   UNL     1       8.547  -2.196  22.546  0.00  0.00    +0.002 A 
ATOM     13  C   UNL     1       9.607  -1.529  21.928  0.00  0.00    +0.002 A 
ATOM     14  C   UNL     1       9.543  -0.152  21.680  0.00  0.00    +0.030 A 
ATOM     15  C   UNL     1       8.386   0.544  22.058  0.00  0.00    +0.090 A 
ATOM     16  N   UNL     1       8.071   1.873  21.893  0.00  0.00    -0.226 NA
ENDBRANCH   2   7
BRANCH   1  19
ATOM     17  O   UNL     1       8.110   4.344  25.115  0.00  0.00    -0.270 OA
ATOM     18  C   UNL     1       8.599   4.768  24.070  0.00  0.00    +0.248 C 
ATOM     19  N   UNL     1       7.933   4.885  22.867  0.00  0.00    -0.278 N 
ATOM     20  H   UNL     1       8.406   5.219  22.032  0.00  0.00    +0.155 HD
BRANCH  18  21
ATOM     21  C   UNL     1      10.026   5.208  24.086  0.00  0.00    +0.037 A 
ATOM     22  C   UNL     1      10.945   4.433  23.360  0.00  0.00    +0.013 A 
ATOM     23  C   UNL     1      12.292   4.790  23.313  0.00  0.00    +0.001 A 
ATOM     24  C   UNL     1      12.733   5.923  23.990  0.00  0.00    +0.000 A 
ATOM     25  C   UNL     1      11.826   6.707  24.706  0.00  0.00    +0.001 A 
ATOM     26  C   UNL     1      10.474   6.355  24.755  0.00  0.00    +0.013 A 
ENDBRANCH  18  21
ENDBRANCH   1  19
TORSDOF 3
ENDMDL
MODEL 2
REMARK VINA RESULT:      -6.8      4.872      9.338
REMARK  Name = 
REMARK  3 active torsions:
REMARK  status: ('A' for Active; 'I' for Inactive)
REMARK    1  A    between atoms: C_2  and  C_18
REMARK    2  A    between atoms: N_3  and  C_4
REMARK    3  A    between atoms: C_8  and  C_9
REMARK                            x       y       z     vdW  Elec       q    Type
REMARK                         _______ _______ _______ _____ _____    ______ ____
ROOT
ATOM      1  C   UNL     1       8.022  -4.710  25.100  0.00  0.00    +0.082 A 
ATOM      2  C   UNL     1       9.004  -3.831  24.576  0.00  0.00    +0.149 A 
ATOM      3  N   UNL     1      10.251  -4.309  24.722  0.00  0.00    -0.169 NA
ATOM      4  N   UNL     1      10.055  -5.481  25.357  0.00  0.00    -0.282 N 
ATOM      5  H   UNL     1      10.865  -6.045  25.595  0.00  0.00    +0.188 HD
ATOM      6  C   UNL     1       8.744  -5.768  25.594  0.00  0.00    +0.129 A 
ENDROOT
BRANCH   2   7
ATOM      7  C   UNL     1       8.726  -2.518  23.930  0.00  0.00    +0.161 A 
ATOM      8  N   UNL     1       9.570  -1.939  23.022  0.00  0.00    -0.337 N 
ATOM      9  H   UNL     1      10.447  -2.343  22.724  0.00  0.00    +0.167 HD
ATOM     10  C   UNL     1       8.993  -0.776  22.584  0.00  0.00    +0.067 A 
ATOM     11  C   UNL     1       9.384   0.174  21.639  0.00  0.00    +0.028 A 
ATOM     12  C   UNL     1       8.521   1.258  21.447  0.00  0.00    +0.002 A 
ATOM     13  C   UNL     1       7.338   1.385  22.179  0.00  0.00    +0.002 A 
ATOM     14  C   UNL     1       6.970   0.418  23.123  0.00  0.00    +0.030 A 
ATOM     15  C   UNL     1       7.812  -0.687  23.314  0.00  0.00    +0.090 A 
ATOM     16  N   UNL     1       7.656  -1.774  24.144  0.00  0.00    -0.226 NA
ENDBRANCH   2   7
BRANCH   1  19
ATOM     17  O   UNL     1       6.128  -5.741  23.187  0.00  0.00    -0.270 OA
ATOM     18  C   UNL     1       5.794  -5.034  24.134  0.00  0.00    +0.248 C 
ATOM     19  N   UNL     1       6.649  -4.519  25.087  0.00  0.00    -0.278 N 
ATOM     20  H   UNL     1       6.302  -3.962  25.863  0.00  0.00    +0.155 HD
BRANCH  18  21
ATOM     21  C   UNL     1       4.349  -4.683  24.278  0.00  0.00    +0.037 A 
ATOM     22  C   UNL     1       3.436  -5.369  23.463  0.00  0.00    +0.013 A 
ATOM     23  C   UNL     1       2.070  -5.109  23.552  0.00  0.00    +0.001 A 
ATOM     24  C   UNL     1       1.603  -4.160  24.457  0.00  0.00    +0.000 A 
ATOM     25  C   UNL     1       2.500  -3.479  25.281  0.00  0.00    +0.001 A 
ATOM     26  C   UNL     1       3.872  -3.738  25.197  0.00  0.00    +0.013 A 
ENDBRANCH  18  21
ENDBRANCH   1  19
TORSDOF 3
ENDMDL
MODEL 3
REMARK VINA RESULT:      -6.6      4.589      8.168
REMARK  Name = 
REMARK  3 active torsions:
REMARK  status: ('A' for Active; 'I' for Inactive)
REMARK    1  A    between atoms: C_2  and  C_18
REMARK    2  A    between atoms: N_3  and  C_4
REMARK    3  A    between atoms: C_8  and  C_9
REMARK                            x       y       z     vdW  Elec       q    Type
REMARK                         _______ _______ _______ _____ _____    ______ ____
ROOT
ATOM      1  C   UNL     1       8.122  -4.046  25.838  0.00  0.00    +0.082 A 
ATOM      2  C   UNL     1       9.194  -3.666  24.991  0.00  0.00    +0.149 A 
ATOM      3  N   UNL     1      10.035  -4.682  24.739  0.00  0.00    -0.169 NA
ATOM      4  N   UNL     1       9.503  -5.700  25.446  0.00  0.00    -0.282 N 
ATOM      5  H   UNL     1       9.970  -6.600  25.427  0.00  0.00    +0.188 HD
ATOM      6  C   UNL     1       8.358  -5.371  26.107  0.00  0.00    +0.129 A 
ENDROOT
BRANCH   2   7
ATOM      7  C   UNL     1       9.401  -2.304  24.423  0.00  0.00    +0.161 A 
ATOM      8  N   UNL     1       9.581  -2.071  23.087  0.00  0.00    -0.337 N 
ATOM      9  H   UNL     1       9.599  -2.795  22.383  0.00  0.00    +0.167 HD
ATOM     10  C   UNL     1       9.684  -0.718  22.900  0.00  0.00    +0.067 A 
ATOM     11  C   UNL     1       9.827   0.068  21.755  0.00  0.00    +0.028 A 
ATOM     12  C   UNL     1       9.897   1.452  21.951  0.00  0.00    +0.002 A 
ATOM     13  C   UNL     1       9.842   2.010  23.230  0.00  0.00    +0.002 A 
ATOM     14  C   UNL     1       9.701   1.198  24.362  0.00  0.00    +0.030 A 
ATOM     15  C   UNL     1       9.607  -0.190  24.185  0.00  0.00    +0.090 A 
ATOM     16  N   UNL     1       9.430  -1.183  25.121  0.00  0.00    -0.226 NA
ENDBRANCH   2   7
BRANCH   1  19
ATOM     17  O   UNL     1       5.688  -3.427  24.421  0.00  0.00    -0.270 OA
ATOM     18  C   UNL     1       5.941  -2.972  25.534  0.00  0.00    +0.248 C 
ATOM     19  N   UNL     1       7.080  -3.238  26.267  0.00  0.00    -0.278 N 
ATOM     20  H   UNL     1       7.214  -2.849  27.196  0.00  0.00    +0.155 HD
BRANCH  18  21
ATOM     21  C   UNL     1       4.949  -2.046  26.160  0.00  0.00    +0.037 A 
ATOM     22  C   UNL     1       5.324  -0.700  26.294  0.00  0.00    +0.013 A 
ATOM     23  C   UNL     1       4.446   0.228  26.853  0.00  0.00    +0.001 A 
ATOM     24  C   UNL     1       3.186  -0.181  27.282  0.00  0.00    +0.000 A 
ATOM     25  C   UNL     1       2.799  -1.515  27.143  0.00  0.00    +0.001 A 
ATOM     26  C   UNL     1       3.675  -2.450  26.581  0.00  0.00    +0.013 A 
ENDBRANCH  18  21
ENDBRANCH   1  19
TORSDOF 3
ENDMDL
MODEL 4
REMARK VINA RESULT:      -6.6      5.005      7.623
REMARK  Name = 
REMARK  3 active torsions:
REMARK  status: ('A' for Active; 'I' for Inactive)
REMARK    1  A    between atoms: C_2  and  C_18
REMARK    2  A    between atoms: N_3  and  C_4
REMARK    3  A    between atoms: C_8  and  C_9
REMARK                            x       y       z     vdW  Elec       q    Type
REMARK                         _______ _______ _______ _____ _____    ______ ____
ROOT
ATOM      1  C   UNL     1       6.956  -4.540  22.503  0.00  0.00    +0.082 A 
ATOM      2  C   UNL     1       5.982  -4.967  23.441  0.00  0.00    +0.149 A 
ATOM      3  N   UNL     1       5.535  -6.209  23.188  0.00  0.00    -0.169 NA
ATOM      4  N   UNL     1       6.215  -6.555  22.076  0.00  0.00    -0.282 N 
ATOM      5  H   UNL     1       6.045  -7.469  21.670  0.00  0.00    +0.188 HD
ATOM      6  C   UNL     1       7.080  -5.598  21.637  0.00  0.00    +0.129 A 
ENDROOT
BRANCH   2   7
ATOM      7  C   UNL     1       5.482  -4.162  24.590  0.00  0.00    +0.161 A 
ATOM      8  N   UNL     1       5.184  -4.705  25.809  0.00  0.00    -0.337 N 
ATOM      9  H   UNL     1       5.266  -5.688  26.027  0.00  0.00    +0.167 HD
ATOM     10  C   UNL     1       4.810  -3.690  26.650  0.00  0.00    +0.067 A 
ATOM     11  C   UNL     1       4.451  -3.665  27.998  0.00  0.00    +0.028 A 
ATOM     12  C   UNL     1       4.126  -2.415  28.537  0.00  0.00    +0.002 A 
ATOM     13  C   UNL     1       4.145  -1.258  27.754  0.00  0.00    +0.002 A 
ATOM     14  C   UNL     1       4.506  -1.312  26.402  0.00  0.00    +0.030 A 
ATOM     15  C   UNL     1       4.857  -2.552  25.849  0.00  0.00    +0.090 A 
ATOM     16  N   UNL     1       5.277  -2.857  24.575  0.00  0.00    -0.226 NA
ENDBRANCH   2   7
BRANCH   1  19
ATOM     17  O   UNL     1       9.294  -3.818  24.028  0.00  0.00    -0.270 OA
ATOM     18  C   UNL     1       8.735  -3.036  23.261  0.00  0.00    +0.248 C 
ATOM     19  N   UNL     1       7.622  -3.324  22.498  0.00  0.00    -0.278 N 
ATOM     20  H   UNL     1       7.226  -2.637  21.862  0.00  0.00    +0.155 HD
BRANCH  18  21
ATOM     21  C   UNL     1       9.286  -1.653  23.139  0.00  0.00    +0.037 A 
ATOM     22  C   UNL     1       9.190  -1.031  21.884  0.00  0.00    +0.013 A 
ATOM     23  C   UNL     1       9.666   0.265  21.697  0.00  0.00    +0.001 A 
ATOM     24  C   UNL     1      10.242   0.953  22.762  0.00  0.00    +0.000 A 
ATOM     25  C   UNL     1      10.332   0.349  24.017  0.00  0.00    +0.001 A 
ATOM     26  C   UNL     1       9.855  -0.951  24.211  0.00  0.00    +0.013 A 
ENDBRANCH  18  21
ENDBRANCH   1  19
TORSDOF 3
ENDMDL
MODEL 5
REMARK VINA RESULT:      -6.5      2.162      4.963
REMARK  Name = 
REMARK  3 active torsions:
REMARK  status: ('A' for Active; 'I' for Inactive)
REMARK    1  A    between atoms: C_2  and  C_18
REMARK    2  A    between atoms: N_3  and  C_4
REMARK    3  A    between atoms: C_8  and  C_9
REMARK                            x       y       z     vdW  Elec       q    Type
REMARK                         _______ _______ _______ _____ _____    ______ ____
ROOT
ATOM      1  C   UNL     1       9.531   5.059  23.893  0.00  0.00    +0.082 A 
ATOM      2  C   UNL     1      10.519   4.114  23.517  0.00  0.00    +0.149 A 
ATOM      3  N   UNL     1      11.736   4.667  23.387  0.00  0.00    -0.169 NA
ATOM      4  N   UNL     1      11.510   5.967  23.662  0.00  0.00    -0.282 N 
ATOM      5  H   UNL     1      12.291   6.613  23.623  0.00  0.00    +0.188 HD
ATOM      6  C   UNL     1      10.215   6.247  23.980  0.00  0.00    +0.129 A 
ENDROOT
BRANCH   2   7
ATOM      7  C   UNL     1      10.275   2.663  23.281  0.00  0.00    +0.161 A 
ATOM      8  N   UNL     1       9.821   2.165  22.091  0.00  0.00    -0.337 N 
ATOM      9  H   UNL     1       9.605   2.734  21.284  0.00  0.00    +0.167 HD
ATOM     10  C   UNL     1       9.763   0.801  22.192  0.00  0.00    +0.067 A 
ATOM     11  C   UNL     1       9.420  -0.200  21.281  0.00  0.00    +0.028 A 
ATOM     12  C   UNL     1       9.479  -1.518  21.747  0.00  0.00    +0.002 A 
ATOM     13  C   UNL     1       9.848  -1.809  23.063  0.00  0.00    +0.002 A 
ATOM     14  C   UNL     1      10.184  -0.785  23.957  0.00  0.00    +0.030 A 
ATOM     15  C   UNL     1      10.152   0.541  23.503  0.00  0.00    +0.090 A 
ATOM     16  N   UNL     1      10.469   1.703  24.168  0.00  0.00    -0.226 NA
ENDBRANCH   2   7
BRANCH   1  19
ATOM     17  O   UNL     1       7.497   4.461  21.939  0.00  0.00    -0.270 OA
ATOM     18  C   UNL     1       7.259   4.533  23.143  0.00  0.00    +0.248 C 
ATOM     19  N   UNL     1       8.188   4.805  24.126  0.00  0.00    -0.278 N 
ATOM     20  H   UNL     1       7.928   4.823  25.108  0.00  0.00    +0.155 HD
BRANCH  18  21
ATOM     21  C   UNL     1       5.852   4.322  23.597  0.00  0.00    +0.037 A 
ATOM     22  C   UNL     1       5.007   3.584  22.753  0.00  0.00    +0.013 A 
ATOM     23  C   UNL     1       3.686   3.331  23.117  0.00  0.00    +0.001 A 
ATOM     24  C   UNL     1       3.196   3.813  24.328  0.00  0.00    +0.000 A 
ATOM     25  C   UNL     1       4.029   4.538  25.181  0.00  0.00    +0.001 A 
ATOM     26  C   UNL     1       5.357   4.793  24.822  0.00  0.00    +0.013 A 
ENDBRANCH  18  21
ENDBRANCH   1  19
TORSDOF 3
ENDMDL
MODEL 6
REMARK VINA RESULT:      -6.5      5.544      8.289
REMARK  Name = 
REMARK  3 active torsions:
REMARK  status: ('A' for Active; 'I' for Inactive)
REMARK    1  A    between atoms: C_2  and  C_18
REMARK    2  A    between atoms: N_3  and  C_4
REMARK    3  A    between atoms: C_8  and  C_9
REMARK                            x       y       z     vdW  Elec       q    Type
REMARK                         _______ _______ _______ _____ _____    ______ ____
ROOT
ATOM      1  C   UNL     1       6.789  -4.683  22.837  0.00  0.00    +0.082 A 
ATOM      2  C   UNL     1       5.984  -5.523  23.647  0.00  0.00    +0.149 A 
ATOM      3  N   UNL     1       5.507  -6.583  22.973  0.00  0.00    -0.169 NA
ATOM      4  N   UNL     1       5.997  -6.399  21.731  0.00  0.00    -0.282 N 
ATOM      5  H   UNL     1       5.767  -7.079  21.014  0.00  0.00    +0.188 HD
ATOM      6  C   UNL     1       6.775  -5.287  21.604  0.00  0.00    +0.129 A 
ENDROOT
BRANCH   2   7
ATOM      7  C   UNL     1       5.675  -5.291  25.085  0.00  0.00    +0.161 A 
ATOM      8  N   UNL     1       6.087  -6.132  26.083  0.00  0.00    -0.337 N 
ATOM      9  H   UNL     1       6.620  -6.977  25.928  0.00  0.00    +0.167 HD
ATOM     10  C   UNL     1       5.689  -5.602  27.281  0.00  0.00    +0.067 A 
ATOM     11  C   UNL     1       5.877  -6.009  28.603  0.00  0.00    +0.028 A 
ATOM     12  C   UNL     1       5.316  -5.197  29.595  0.00  0.00    +0.002 A 
ATOM     13  C   UNL     1       4.592  -4.047  29.270  0.00  0.00    +0.002 A 
ATOM     14  C   UNL     1       4.416  -3.662  27.935  0.00  0.00    +0.030 A 
ATOM     15  C   UNL     1       4.989  -4.452  26.928  0.00  0.00    +0.090 A 
ATOM     16  N   UNL     1       4.989  -4.268  25.564  0.00  0.00    -0.226 NA
ENDBRANCH   2   7
BRANCH   1  19
ATOM     17  O   UNL     1       9.258  -4.482  24.311  0.00  0.00    -0.270 OA
ATOM     18  C   UNL     1       8.620  -3.496  23.950  0.00  0.00    +0.248 C 
ATOM     19  N   UNL     1       7.440  -3.526  23.235  0.00  0.00    -0.278 N 
ATOM     20  H   UNL     1       6.977  -2.669  22.944  0.00  0.00    +0.155 HD
BRANCH  18  21
ATOM     21  C   UNL     1       9.143  -2.145  24.315  0.00  0.00    +0.037 A 
ATOM     22  C   UNL     1       9.968  -1.501  23.379  0.00  0.00    +0.013 A 
ATOM     23  C   UNL     1      10.481  -0.232  23.641  0.00  0.00    +0.001 A 
ATOM     24  C   UNL     1      10.173   0.407  24.839  0.00  0.00    +0.000 A 
ATOM     25  C   UNL     1       9.345  -0.219  25.773  0.00  0.00    +0.001 A 
ATOM     26  C   UNL     1       8.827  -1.492  25.515  0.00  0.00    +0.013 A 
ENDBRANCH  18  21
ENDBRANCH   1  19
TORSDOF 3
ENDMDL
MODEL 7
REMARK VINA RESULT:      -6.4      4.769      7.517
REMARK  Name = 
REMARK  3 active torsions:
REMARK  status: ('A' for Active; 'I' for Inactive)
REMARK    1  A    between atoms: C_2  and  C_18
REMARK    2  A    between atoms: N_3  and  C_4
REMARK    3  A    between atoms: C_8  and  C_9
REMARK                            x       y       z     vdW  Elec       q    Type
REMARK                         _______ _______ _______ _____ _____    ______ ____
ROOT
ATOM      1  C   UNL     1       8.960  -3.844  25.398  0.00  0.00    +0.082 A 
ATOM      2  C   UNL     1       7.776  -4.232  26.074  0.00  0.00    +0.149 A 
ATOM      3  N   UNL     1       7.793  -5.524  26.441  0.00  0.00    -0.169 NA
ATOM      4  N   UNL     1       8.983  -5.955  25.977  0.00  0.00    -0.282 N 
ATOM      5  H   UNL     1       9.237  -6.926  26.125  0.00  0.00    +0.188 HD
ATOM      6  C   UNL     1       9.717  -4.989  25.359  0.00  0.00    +0.129 A 
ENDROOT
BRANCH   2   7
ATOM      7  C   UNL     1       6.619  -3.339  26.363  0.00  0.00    +0.161 A 
ATOM      8  N   UNL     1       5.317  -3.749  26.271  0.00  0.00    -0.337 N 
ATOM      9  H   UNL     1       5.034  -4.678  25.992  0.00  0.00    +0.167 HD
ATOM     10  C   UNL     1       4.513  -2.710  26.657  0.00  0.00    +0.067 A 
ATOM     11  C   UNL     1       3.129  -2.588  26.797  0.00  0.00    +0.028 A 
ATOM     12  C   UNL     1       2.650  -1.346  27.227  0.00  0.00    +0.002 A 
ATOM     13  C   UNL     1       3.517  -0.281  27.485  0.00  0.00    +0.002 A 
ATOM     14  C   UNL     1       4.902  -0.429  27.334  0.00  0.00    +0.030 A 
ATOM     15  C   UNL     1       5.403  -1.673  26.925  0.00  0.00    +0.090 A 
ATOM     16  N   UNL     1       6.705  -2.076  26.741  0.00  0.00    -0.226 NA
ENDBRANCH   2   7
BRANCH   1  19
ATOM     17  O   UNL     1       8.466  -2.827  22.746  0.00  0.00    -0.270 OA
ATOM     18  C   UNL     1       9.005  -2.156  23.623  0.00  0.00    +0.248 C 
ATOM     19  N   UNL     1       9.260  -2.581  24.911  0.00  0.00    -0.278 N 
ATOM     20  H   UNL     1       9.685  -1.963  25.597  0.00  0.00    +0.155 HD
BRANCH  18  21
ATOM     21  C   UNL     1       9.437  -0.767  23.283  0.00  0.00    +0.037 A 
ATOM     22  C   UNL     1      10.089  -0.033  24.287  0.00  0.00    +0.013 A 
ATOM     23  C   UNL     1      10.537   1.263  24.040  0.00  0.00    +0.001 A 
ATOM     24  C   UNL     1      10.338   1.839  22.788  0.00  0.00    +0.000 A 
ATOM     25  C   UNL     1       9.700   1.115  21.779  0.00  0.00    +0.001 A 
ATOM     26  C   UNL     1       9.251  -0.187  22.021  0.00  0.00    +0.013 A 
ENDBRANCH  18  21
ENDBRANCH   1  19
TORSDOF 3
ENDMDL
MODEL 8
REMARK VINA RESULT:      -6.3      7.037     10.960
REMARK  Name = 
REMARK  3 active torsions:
REMARK  status: ('A' for Active; 'I' for Inactive)
REMARK    1  A    between atoms: C_2  and  C_18
REMARK    2  A    between atoms: N_3  and  C_4
REMARK    3  A    between atoms: C_8  and  C_9
REMARK                            x       y       z     vdW  Elec       q    Type
REMARK                         _______ _______ _______ _____ _____    ______ ____
ROOT
ATOM      1  C   UNL     1       5.144  -6.068  27.117  0.00  0.00    +0.082 A 
ATOM      2  C   UNL     1       6.482  -5.614  26.993  0.00  0.00    +0.149 A 
ATOM      3  N   UNL     1       7.269  -6.058  27.986  0.00  0.00    -0.169 NA
ATOM      4  N   UNL     1       6.420  -6.778  28.748  0.00  0.00    -0.282 N 
ATOM      5  H   UNL     1       6.780  -7.222  29.586  0.00  0.00    +0.188 HD
ATOM      6  C   UNL     1       5.147  -6.821  28.265  0.00  0.00    +0.129 A 
ENDROOT
BRANCH   2   7
ATOM      7  C   UNL     1       6.996  -4.741  25.902  0.00  0.00    +0.161 A 
ATOM      8  N   UNL     1       8.154  -4.020  26.004  0.00  0.00    -0.337 N 
ATOM      9  H   UNL     1       8.746  -4.011  26.824  0.00  0.00    +0.167 HD
ATOM     10  C   UNL     1       8.365  -3.377  24.814  0.00  0.00    +0.067 A 
ATOM     11  C   UNL     1       9.397  -2.558  24.352  0.00  0.00    +0.028 A 
ATOM     12  C   UNL     1       9.274  -2.070  23.047  0.00  0.00    +0.002 A 
ATOM     13  C   UNL     1       8.163  -2.378  22.257  0.00  0.00    +0.002 A 
ATOM     14  C   UNL     1       7.140  -3.200  22.745  0.00  0.00    +0.030 A 
ATOM     15  C   UNL     1       7.256  -3.716  24.044  0.00  0.00    +0.090 A 
ATOM     16  N   UNL     1       6.416  -4.564  24.728  0.00  0.00    -0.226 NA
ENDBRANCH   2   7
BRANCH   1  19
ATOM     17  O   UNL     1       4.194  -7.728  24.960  0.00  0.00    -0.270 OA
ATOM     18  C   UNL     1       3.694  -6.637  25.226  0.00  0.00    +0.248 C 
ATOM     19  N   UNL     1       4.096  -5.802  26.249  0.00  0.00    -0.278 N 
ATOM     20  H   UNL     1       3.620  -4.923  26.431  0.00  0.00    +0.155 HD
BRANCH  18  21
ATOM     21  C   UNL     1       2.565  -6.153  24.377  0.00  0.00    +0.037 A 
ATOM     22  C   UNL     1       2.211  -6.938  23.268  0.00  0.00    +0.013 A 
ATOM     23  C   UNL     1       1.157  -6.560  22.439  0.00  0.00    +0.001 A 
ATOM     24  C   UNL     1       0.445  -5.394  22.710  0.00  0.00    +0.000 A 
ATOM     25  C   UNL     1       0.780  -4.611  23.816  0.00  0.00    +0.001 A 
ATOM     26  C   UNL     1       1.836  -4.987  24.653  0.00  0.00    +0.013 A 
ENDBRANCH  18  21
ENDBRANCH   1  19
TORSDOF 3
ENDMDL
MODEL 9
REMARK VINA RESULT:      -6.2      3.873      7.916
REMARK  Name = 
REMARK  3 active torsions:
REMARK  status: ('A' for Active; 'I' for Inactive)
REMARK    1  A    between atoms: C_2  and  C_18
REMARK    2  A    between atoms: N_3  and  C_4
REMARK    3  A    between atoms: C_8  and  C_9
REMARK                            x       y       z     vdW  Elec       q    Type
REMARK                         _______ _______ _______ _____ _____    ______ ____
ROOT
ATOM      1  C   UNL     1       5.664  -1.510  26.399  0.00  0.00    +0.082 A 
ATOM      2  C   UNL     1       6.356  -0.274  26.433  0.00  0.00    +0.149 A 
ATOM      3  N   UNL     1       6.126   0.413  27.564  0.00  0.00    -0.169 NA
ATOM      4  N   UNL     1       5.271  -0.385  28.235  0.00  0.00    -0.282 N 
ATOM      5  H   UNL     1       4.932  -0.079  29.141  0.00  0.00    +0.188 HD
ATOM      6  C   UNL     1       4.975  -1.546  27.586  0.00  0.00    +0.129 A 
ENDROOT
BRANCH   2   7
ATOM      7  C   UNL     1       7.246   0.244  25.357  0.00  0.00    +0.161 A 
ATOM      8  N   UNL     1       8.273   1.117  25.591  0.00  0.00    -0.337 N 
ATOM      9  H   UNL     1       8.505   1.488  26.502  0.00  0.00    +0.167 HD
ATOM     10  C   UNL     1       8.922   1.343  24.407  0.00  0.00    +0.067 A 
ATOM     11  C   UNL     1      10.048   2.099  24.076  0.00  0.00    +0.028 A 
ATOM     12  C   UNL     1      10.434   2.093  22.731  0.00  0.00    +0.002 A 
ATOM     13  C   UNL     1       9.713   1.378  21.771  0.00  0.00    +0.002 A 
ATOM     14  C   UNL     1       8.585   0.630  22.129  0.00  0.00    +0.030 A 
ATOM     15  C   UNL     1       8.196   0.606  23.476  0.00  0.00    +0.090 A 
ATOM     16  N   UNL     1       7.161  -0.073  24.077  0.00  0.00    -0.226 NA
ENDBRANCH   2   7
BRANCH   1  19
ATOM     17  O   UNL     1       7.423  -3.786  26.195  0.00  0.00    -0.270 OA
ATOM     18  C   UNL     1       6.582  -3.520  25.340  0.00  0.00    +0.248 C 
ATOM     19  N   UNL     1       5.706  -2.455  25.384  0.00  0.00    -0.278 N 
ATOM     20  H   UNL     1       5.014  -2.308  24.654  0.00  0.00    +0.155 HD
BRANCH  18  21
ATOM     21  C   UNL     1       6.491  -4.406  24.141  0.00  0.00    +0.037 A 
ATOM     22  C   UNL     1       5.211  -4.833  23.752  0.00  0.00    +0.013 A 
ATOM     23  C   UNL     1       5.044  -5.648  22.634  0.00  0.00    +0.001 A 
ATOM     24  C   UNL     1       6.154  -6.043  21.892  0.00  0.00    +0.000 A 
ATOM     25  C   UNL     1       7.430  -5.616  22.262  0.00  0.00    +0.001 A 
ATOM     26  C   UNL     1       7.604  -4.797  23.383  0.00  0.00    +0.013 A 
ENDBRANCH  18  21
ENDBRANCH   1  19
TORSDOF 3
ENDMDL
