MODEL 1
REMARK VINA RESULT:      -6.5      0.000      0.000
REMARK  Name = 
REMARK  9 active torsions:
REMARK  status: ('A' for Active; 'I' for Inactive)
REMARK    1  A    between atoms: O_1  and  P_2
REMARK    2  A    between atoms: P_2  and  O_3
REMARK    3  A    between atoms: P_2  and  O_5
REMARK    4  A    between atoms: O_5  and  C_6
REMARK    5  A    between atoms: C_6  and  C_7
REMARK    6  A    between atoms: C_7  and  N_8
REMARK    7  A    between atoms: C_9  and  C_11
REMARK    8  A    between atoms: C_14  and  O_15
REMARK    9  A    between atoms: O_15  and  C_16
REMARK                            x       y       z     vdW  Elec       q    Type
REMARK                         _______ _______ _______ _____ _____    ______ ____
ROOT
ATOM      1  N   UNL     1       8.152  -2.286  22.679  0.00  0.00    -0.309 N 
ATOM      2  H   UNL     1       7.505  -1.552  22.423  0.00  0.00    +0.149 HD
ATOM      3  C   UNL     1       9.393  -1.984  23.196  0.00  0.00    +0.244 C 
ATOM      4  O   UNL     1      10.202  -2.834  23.549  0.00  0.00    -0.270 OA
ENDROOT
BRANCH   3   5
ATOM      5  C   UNL     1       9.741  -0.535  23.259  0.00  0.00    +0.037 A 
ATOM      6  C   UNL     1       9.788   0.193  22.064  0.00  0.00    +0.016 A 
ATOM      7  C   UNL     1      10.067   1.568  22.077  0.00  0.00    +0.047 A 
ATOM      8  C   UNL     1      10.343   2.213  23.282  0.00  0.00    +0.130 A 
ATOM      9  C   UNL     1      10.292   1.483  24.474  0.00  0.00    +0.047 A 
ATOM     10  C   UNL     1      10.004   0.114  24.464  0.00  0.00    +0.016 A 
BRANCH   8  11
ATOM     11  O   UNL     1      10.615   3.535  23.448  0.00  0.00    -0.406 OA
BRANCH  11  12
ATOM     12  C   UNL     1       9.561   4.450  23.711  0.00  0.00    +0.575 C 
ATOM     13  F   UNL     1       9.270   4.392  25.030  0.00  0.00    -0.133 F 
ATOM     14  F   UNL     1       8.462   4.076  23.022  0.00  0.00    -0.133 F 
ATOM     15  F   UNL     1       9.851   5.733  23.410  0.00  0.00    -0.133 F 
ENDBRANCH  11  12
ENDBRANCH   8  11
ENDBRANCH   3   5
BRANCH   1  16
ATOM     16  C   UNL     1       7.665  -3.651  22.596  0.00  0.00    +0.133 C 
BRANCH  16  17
ATOM     17  C   UNL     1       6.799  -4.021  23.796  0.00  0.00    +0.191 C 
BRANCH  17  18
ATOM     18  O   UNL     1       7.277  -5.233  24.385  0.00  0.00    -0.285 OA
BRANCH  18  19
ATOM     19  P   UNL     1       8.366  -4.936  25.696  0.00  0.00    +0.472 P 
ATOM     20  O   UNL     1       7.740  -6.034  26.554  0.00  0.00    -0.228 OA
BRANCH  19  21
ATOM     21  O   UNL     1       9.453  -4.637  27.008  0.00  0.00    -0.303 OA
ATOM     22  H   UNL     1       9.319  -5.409  27.594  0.00  0.00    +0.222 HD
ENDBRANCH  19  21
BRANCH  19  23
ATOM     23  O   UNL     1       9.559  -5.704  24.903  0.00  0.00    -0.303 OA
ATOM     24  H   UNL     1       9.158  -6.244  24.198  0.00  0.00    +0.222 HD
ENDBRANCH  19  23
ENDBRANCH  18  19
ENDBRANCH  17  18
ENDBRANCH  16  17
ENDBRANCH   1  16
TORSDOF 9
ENDMDL
MODEL 2
REMARK VINA RESULT:      -6.4      1.710      2.484
REMARK  Name = 
REMARK  9 active torsions:
REMARK  status: ('A' for Active; 'I' for Inactive)
REMARK    1  A    between atoms: O_1  and  P_2
REMARK    2  A    between atoms: P_2  and  O_3
REMARK    3  A    between atoms: P_2  and  O_5
REMARK    4  A    between atoms: O_5  and  C_6
REMARK    5  A    between atoms: C_6  and  C_7
REMARK    6  A    between atoms: C_7  and  N_8
REMARK    7  A    between atoms: C_9  and  C_11
REMARK    8  A    between atoms: C_14  and  O_15
REMARK    9  A    between atoms: O_15  and  C_16
REMARK                            x       y       z     vdW  Elec       q    Type
REMARK                         _______ _______ _______ _____ _____    ______ ____
ROOT
ATOM      1  N   UNL     1       7.548  -3.839  23.635  0.00  0.00    -0.309 N 
ATOM      2  H   UNL     1       6.988  -3.045  23.357  0.00  0.00    +0.149 HD
ATOM      3  C   UNL     1       8.827  -3.667  24.118  0.00  0.00    +0.244 C 
ATOM      4  O   UNL     1       9.536  -4.593  24.496  0.00  0.00    -0.270 OA
ENDROOT
BRANCH   3   5
ATOM      5  C   UNL     1       9.347  -2.270  24.110  0.00  0.00    +0.037 A 
ATOM      6  C   UNL     1       9.090  -1.455  25.219  0.00  0.00    +0.016 A 
ATOM      7  C   UNL     1       9.597  -0.148  25.277  0.00  0.00    +0.047 A 
ATOM      8  C   UNL     1      10.328   0.365  24.206  0.00  0.00    +0.130 A 
ATOM      9  C   UNL     1      10.587  -0.453  23.102  0.00  0.00    +0.047 A 
ATOM     10  C   UNL     1      10.091  -1.760  23.046  0.00  0.00    +0.016 A 
BRANCH   8  11
ATOM     11  O   UNL     1      10.890   1.602  24.129  0.00  0.00    -0.406 OA
BRANCH  11  12
ATOM     12  C   UNL     1      10.361   2.568  23.232  0.00  0.00    +0.575 C 
ATOM     13  F   UNL     1      10.971   3.750  23.477  0.00  0.00    -0.133 F 
ATOM     14  F   UNL     1       9.040   2.720  23.466  0.00  0.00    -0.133 F 
ATOM     15  F   UNL     1      10.544   2.274  21.929  0.00  0.00    -0.133 F 
ENDBRANCH  11  12
ENDBRANCH   8  11
ENDBRANCH   3   5
BRANCH   1  16
ATOM     16  C   UNL     1       6.899  -5.138  23.622  0.00  0.00    +0.133 C 
BRANCH  16  17
ATOM     17  C   UNL     1       5.945  -5.310  24.799  0.00  0.00    +0.191 C 
BRANCH  17  18
ATOM     18  O   UNL     1       6.385  -4.513  25.902  0.00  0.00    -0.285 OA
BRANCH  18  19
ATOM     19  P   UNL     1       6.613  -5.454  27.336  0.00  0.00    +0.472 P 
ATOM     20  O   UNL     1       5.797  -6.620  26.782  0.00  0.00    -0.228 OA
BRANCH  19  21
ATOM     21  O   UNL     1       6.840  -6.393  28.770  0.00  0.00    -0.303 OA
ATOM     22  H   UNL     1       6.199  -7.125  28.666  0.00  0.00    +0.222 HD
ENDBRANCH  19  21
BRANCH  19  23
ATOM     23  O   UNL     1       8.135  -5.805  26.885  0.00  0.00    -0.303 OA
ATOM     24  H   UNL     1       8.561  -6.297  27.609  0.00  0.00    +0.222 HD
ENDBRANCH  19  23
ENDBRANCH  18  19
ENDBRANCH  17  18
ENDBRANCH  16  17
ENDBRANCH   1  16
TORSDOF 9
ENDMDL
MODEL 3
REMARK VINA RESULT:      -6.3      4.642      7.999
REMARK  Name = 
REMARK  9 active torsions:
REMARK  status: ('A' for Active; 'I' for Inactive)
REMARK    1  A    between atoms: O_1  and  P_2
REMARK    2  A    between atoms: P_2  and  O_3
REMARK    3  A    between atoms: P_2  and  O_5
REMARK    4  A    between atoms: O_5  and  C_6
REMARK    5  A    between atoms: C_6  and  C_7
REMARK    6  A    between atoms: C_7  and  N_8
REMARK    7  A    between atoms: C_9  and  C_11
REMARK    8  A    between atoms: C_14  and  O_15
REMARK    9  A    between atoms: O_15  and  C_16
REMARK                            x       y       z     vdW  Elec       q    Type
REMARK                         _______ _______ _______ _____ _____    ______ ____
ROOT
ATOM      1  N   UNL     1       9.269   3.769  24.313  0.00  0.00    -0.309 N 
ATOM      2  H   UNL     1       9.790   3.386  25.090  0.00  0.00    +0.149 HD
ATOM      3  C   UNL     1       8.758   2.948  23.332  0.00  0.00    +0.244 C 
ATOM      4  O   UNL     1       8.095   3.357  22.386  0.00  0.00    -0.270 OA
ENDROOT
BRANCH   3   5
ATOM      5  C   UNL     1       9.101   1.501  23.446  0.00  0.00    +0.037 A 
ATOM      6  C   UNL     1       8.504   0.600  22.555  0.00  0.00    +0.016 A 
ATOM      7  C   UNL     1       8.829  -0.764  22.594  0.00  0.00    +0.047 A 
ATOM      8  C   UNL     1       9.722  -1.241  23.553  0.00  0.00    +0.130 A 
ATOM      9  C   UNL     1      10.319  -0.339  24.439  0.00  0.00    +0.047 A 
ATOM     10  C   UNL     1      10.004   1.024  24.395  0.00  0.00    +0.016 A 
BRANCH   8  11
ATOM     11  O   UNL     1      10.139  -2.527  23.699  0.00  0.00    -0.406 OA
BRANCH  11  12
ATOM     12  C   UNL     1       9.315  -3.470  24.369  0.00  0.00    +0.575 C 
ATOM     13  F   UNL     1       8.433  -3.972  23.475  0.00  0.00    -0.133 F 
ATOM     14  F   UNL     1       8.616  -2.843  25.340  0.00  0.00    -0.133 F 
ATOM     15  F   UNL     1       9.985  -4.507  24.912  0.00  0.00    -0.133 F 
ENDBRANCH  11  12
ENDBRANCH   8  11
ENDBRANCH   3   5
BRANCH   1  16
ATOM     16  C   UNL     1       8.982   5.192  24.351  0.00  0.00    +0.133 C 
BRANCH  16  17
ATOM     17  C   UNL     1      10.255   6.031  24.339  0.00  0.00    +0.191 C 
BRANCH  17  18
ATOM     18  O   UNL     1      10.890   5.933  23.062  0.00  0.00    -0.285 OA
BRANCH  18  19
ATOM     19  P   UNL     1      12.542   5.437  23.191  0.00  0.00    +0.472 P 
ATOM     20  O   UNL     1      12.155   3.988  23.482  0.00  0.00    -0.228 OA
BRANCH  19  21
ATOM     21  O   UNL     1      14.194   4.941  23.322  0.00  0.00    -0.303 OA
ATOM     22  H   UNL     1      14.607   5.314  22.518  0.00  0.00    +0.222 HD
ENDBRANCH  19  21
BRANCH  19  23
ATOM     23  O   UNL     1      12.698   5.472  21.573  0.00  0.00    -0.303 OA
ATOM     24  H   UNL     1      13.644   5.561  21.360  0.00  0.00    +0.222 HD
ENDBRANCH  19  23
ENDBRANCH  18  19
ENDBRANCH  17  18
ENDBRANCH  16  17
ENDBRANCH   1  16
TORSDOF 9
ENDMDL
MODEL 4
REMARK VINA RESULT:      -6.3      5.041      8.413
REMARK  Name = 
REMARK  9 active torsions:
REMARK  status: ('A' for Active; 'I' for Inactive)
REMARK    1  A    between atoms: O_1  and  P_2
REMARK    2  A    between atoms: P_2  and  O_3
REMARK    3  A    between atoms: P_2  and  O_5
REMARK    4  A    between atoms: O_5  and  C_6
REMARK    5  A    between atoms: C_6  and  C_7
REMARK    6  A    between atoms: C_7  and  N_8
REMARK    7  A    between atoms: C_9  and  C_11
REMARK    8  A    between atoms: C_14  and  O_15
REMARK    9  A    between atoms: O_15  and  C_16
REMARK                            x       y       z     vdW  Elec       q    Type
REMARK                         _______ _______ _______ _____ _____    ______ ____
ROOT
ATOM      1  N   UNL     1      10.233   1.890  23.265  0.00  0.00    -0.309 N 
ATOM      2  H   UNL     1       9.537   1.878  22.532  0.00  0.00    +0.149 HD
ATOM      3  C   UNL     1      10.513   0.752  23.990  0.00  0.00    +0.244 C 
ATOM      4  O   UNL     1      11.367   0.705  24.868  0.00  0.00    -0.270 OA
ENDROOT
BRANCH   3   5
ATOM      5  C   UNL     1       9.671  -0.440  23.689  0.00  0.00    +0.037 A 
ATOM      6  C   UNL     1       8.831  -0.937  24.694  0.00  0.00    +0.016 A 
ATOM      7  C   UNL     1       7.987  -2.029  24.444  0.00  0.00    +0.047 A 
ATOM      8  C   UNL     1       8.010  -2.657  23.199  0.00  0.00    +0.130 A 
ATOM      9  C   UNL     1       8.846  -2.157  22.196  0.00  0.00    +0.047 A 
ATOM     10  C   UNL     1       9.681  -1.062  22.440  0.00  0.00    +0.016 A 
BRANCH   8  11
ATOM     11  O   UNL     1       7.242  -3.711  22.812  0.00  0.00    -0.406 OA
BRANCH  11  12
ATOM     12  C   UNL     1       7.546  -5.020  23.272  0.00  0.00    +0.575 C 
ATOM     13  F   UNL     1       7.647  -5.834  22.196  0.00  0.00    -0.133 F 
ATOM     14  F   UNL     1       6.534  -5.469  24.045  0.00  0.00    -0.133 F 
ATOM     15  F   UNL     1       8.700  -5.111  23.965  0.00  0.00    -0.133 F 
ENDBRANCH  11  12
ENDBRANCH   8  11
ENDBRANCH   3   5
BRANCH   1  16
ATOM     16  C   UNL     1      11.000   3.112  23.424  0.00  0.00    +0.133 C 
BRANCH  16  17
ATOM     17  C   UNL     1      10.101   4.337  23.550  0.00  0.00    +0.191 C 
BRANCH  17  18
ATOM     18  O   UNL     1      10.898   5.524  23.578  0.00  0.00    -0.285 OA
BRANCH  18  19
ATOM     19  P   UNL     1      12.586   5.179  23.428  0.00  0.00    +0.472 P 
ATOM     20  O   UNL     1      12.675   5.865  22.066  0.00  0.00    -0.228 OA
BRANCH  19  21
ATOM     21  O   UNL     1      14.274   4.832  23.277  0.00  0.00    -0.303 OA
ATOM     22  H   UNL     1      14.377   3.988  23.761  0.00  0.00    +0.222 HD
ENDBRANCH  19  21
BRANCH  19  23
ATOM     23  O   UNL     1      12.941   6.369  24.478  0.00  0.00    -0.303 OA
ATOM     24  H   UNL     1      12.382   7.138  24.266  0.00  0.00    +0.222 HD
ENDBRANCH  19  23
ENDBRANCH  18  19
ENDBRANCH  17  18
ENDBRANCH  16  17
ENDBRANCH   1  16
TORSDOF 9
ENDMDL
MODEL 5
REMARK VINA RESULT:      -6.2      1.913      2.556
REMARK  Name = 
REMARK  9 active torsions:
REMARK  status: ('A' for Active; 'I' for Inactive)
REMARK    1  A    between atoms: O_1  and  P_2
REMARK    2  A    between atoms: P_2  and  O_3
REMARK    3  A    between atoms: P_2  and  O_5
REMARK    4  A    between atoms: O_5  and  C_6
REMARK    5  A    between atoms: C_6  and  C_7
REMARK    6  A    between atoms: C_7  and  N_8
REMARK    7  A    between atoms: C_9  and  C_11
REMARK    8  A    between atoms: C_14  and  O_15
REMARK    9  A    between atoms: O_15  and  C_16
REMARK                            x       y       z     vdW  Elec       q    Type
REMARK                         _______ _______ _______ _____ _____    ______ ____
ROOT
ATOM      1  N   UNL     1       7.766  -3.779  23.027  0.00  0.00    -0.309 N 
ATOM      2  H   UNL     1       8.736  -3.698  23.299  0.00  0.00    +0.149 HD
ATOM      3  C   UNL     1       7.092  -2.705  22.487  0.00  0.00    +0.244 C 
ATOM      4  O   UNL     1       5.926  -2.759  22.113  0.00  0.00    -0.270 OA
ENDROOT
BRANCH   3   5
ATOM      5  C   UNL     1       7.849  -1.422  22.423  0.00  0.00    +0.037 A 
ATOM      6  C   UNL     1       7.265  -0.274  22.974  0.00  0.00    +0.016 A 
ATOM      7  C   UNL     1       7.957   0.946  22.978  0.00  0.00    +0.047 A 
ATOM      8  C   UNL     1       9.220   1.034  22.392  0.00  0.00    +0.130 A 
ATOM      9  C   UNL     1       9.801  -0.114  21.846  0.00  0.00    +0.047 A 
ATOM     10  C   UNL     1       9.117  -1.335  21.850  0.00  0.00    +0.016 A 
BRANCH   8  11
ATOM     11  O   UNL     1      10.008   2.141  22.335  0.00  0.00    -0.406 OA
BRANCH  11  12
ATOM     12  C   UNL     1      10.576   2.672  23.523  0.00  0.00    +0.575 C 
ATOM     13  F   UNL     1       9.669   3.499  24.093  0.00  0.00    -0.133 F 
ATOM     14  F   UNL     1      11.669   3.401  23.210  0.00  0.00    -0.133 F 
ATOM     15  F   UNL     1      10.917   1.743  24.439  0.00  0.00    -0.133 F 
ENDBRANCH  11  12
ENDBRANCH   8  11
ENDBRANCH   3   5
BRANCH   1  16
ATOM     16  C   UNL     1       7.167  -5.099  23.113  0.00  0.00    +0.133 C 
BRANCH  16  17
ATOM     17  C   UNL     1       6.412  -5.297  24.423  0.00  0.00    +0.191 C 
BRANCH  17  18
ATOM     18  O   UNL     1       7.008  -4.504  25.452  0.00  0.00    -0.285 OA
BRANCH  18  19
ATOM     19  P   UNL     1       6.981  -5.301  26.987  0.00  0.00    +0.472 P 
ATOM     20  O   UNL     1       6.003  -6.366  26.493  0.00  0.00    -0.228 OA
BRANCH  19  21
ATOM     21  O   UNL     1       6.953  -6.098  28.522  0.00  0.00    -0.303 OA
ATOM     22  H   UNL     1       6.953  -5.358  29.162  0.00  0.00    +0.222 HD
ENDBRANCH  19  21
BRANCH  19  23
ATOM     23  O   UNL     1       8.439  -5.957  26.691  0.00  0.00    -0.303 OA
ATOM     24  H   UNL     1       8.326  -6.921  26.598  0.00  0.00    +0.222 HD
ENDBRANCH  19  23
ENDBRANCH  18  19
ENDBRANCH  17  18
ENDBRANCH  16  17
ENDBRANCH   1  16
TORSDOF 9
ENDMDL
MODEL 6
REMARK VINA RESULT:      -6.1      2.206      2.746
REMARK  Name = 
REMARK  9 active torsions:
REMARK  status: ('A' for Active; 'I' for Inactive)
REMARK    1  A    between atoms: O_1  and  P_2
REMARK    2  A    between atoms: P_2  and  O_3
REMARK    3  A    between atoms: P_2  and  O_5
REMARK    4  A    between atoms: O_5  and  C_6
REMARK    5  A    between atoms: C_6  and  C_7
REMARK    6  A    between atoms: C_7  and  N_8
REMARK    7  A    between atoms: C_9  and  C_11
REMARK    8  A    between atoms: C_14  and  O_15
REMARK    9  A    between atoms: O_15  and  C_16
REMARK                            x       y       z     vdW  Elec       q    Type
REMARK                         _______ _______ _______ _____ _____    ______ ____
ROOT
ATOM      1  N   UNL     1       9.313  -2.045  24.240  0.00  0.00    -0.309 N 
ATOM      2  H   UNL     1       8.778  -1.586  24.964  0.00  0.00    +0.149 HD
ATOM      3  C   UNL     1       9.984  -1.311  23.286  0.00  0.00    +0.244 C 
ATOM      4  O   UNL     1      10.671  -1.816  22.405  0.00  0.00    -0.270 OA
ENDROOT
BRANCH   3   5
ATOM      5  C   UNL     1       9.791   0.167  23.342  0.00  0.00    +0.037 A 
ATOM      6  C   UNL     1       9.950   0.906  22.163  0.00  0.00    +0.016 A 
ATOM      7  C   UNL     1       9.735   2.293  22.156  0.00  0.00    +0.047 A 
ATOM      8  C   UNL     1       9.402   2.953  23.338  0.00  0.00    +0.130 A 
ATOM      9  C   UNL     1       9.240   2.211  24.512  0.00  0.00    +0.047 A 
ATOM     10  C   UNL     1       9.444   0.827  24.520  0.00  0.00    +0.016 A 
BRANCH   8  11
ATOM     11  O   UNL     1       9.152   4.283  23.478  0.00  0.00    -0.406 OA
BRANCH  11  12
ATOM     12  C   UNL     1      10.202   5.170  23.833  0.00  0.00    +0.575 C 
ATOM     13  F   UNL     1       9.996   5.582  25.105  0.00  0.00    -0.133 F 
ATOM     14  F   UNL     1      10.162   6.255  23.029  0.00  0.00    -0.133 F 
ATOM     15  F   UNL     1      11.434   4.626  23.771  0.00  0.00    -0.133 F 
ENDBRANCH  11  12
ENDBRANCH   8  11
ENDBRANCH   3   5
BRANCH   1  16
ATOM     16  C   UNL     1       9.442  -3.488  24.330  0.00  0.00    +0.133 C 
BRANCH  16  17
ATOM     17  C   UNL     1       8.109  -4.194  24.102  0.00  0.00    +0.191 C 
BRANCH  17  18
ATOM     18  O   UNL     1       7.630  -3.913  22.785  0.00  0.00    -0.285 OA
BRANCH  18  19
ATOM     19  P   UNL     1       6.322  -4.950  22.332  0.00  0.00    +0.472 P 
ATOM     20  O   UNL     1       5.751  -3.919  21.360  0.00  0.00    -0.228 OA
BRANCH  19  21
ATOM     21  O   UNL     1       5.012  -5.987  21.881  0.00  0.00    -0.303 OA
ATOM     22  H   UNL     1       5.005  -6.664  22.588  0.00  0.00    +0.222 HD
ENDBRANCH  19  21
BRANCH  19  23
ATOM     23  O   UNL     1       7.321  -5.836  21.405  0.00  0.00    -0.303 OA
ATOM     24  H   UNL     1       6.779  -6.351  20.780  0.00  0.00    +0.222 HD
ENDBRANCH  19  23
ENDBRANCH  18  19
ENDBRANCH  17  18
ENDBRANCH  16  17
ENDBRANCH   1  16
TORSDOF 9
ENDMDL
MODEL 7
REMARK VINA RESULT:      -6.1      2.261      3.220
REMARK  Name = 
REMARK  9 active torsions:
REMARK  status: ('A' for Active; 'I' for Inactive)
REMARK    1  A    between atoms: O_1  and  P_2
REMARK    2  A    between atoms: P_2  and  O_3
REMARK    3  A    between atoms: P_2  and  O_5
REMARK    4  A    between atoms: O_5  and  C_6
REMARK    5  A    between atoms: C_6  and  C_7
REMARK    6  A    between atoms: C_7  and  N_8
REMARK    7  A    between atoms: C_9  and  C_11
REMARK    8  A    between atoms: C_14  and  O_15
REMARK    9  A    between atoms: O_15  and  C_16
REMARK                            x       y       z     vdW  Elec       q    Type
REMARK                         _______ _______ _______ _____ _____    ______ ____
ROOT
ATOM      1  N   UNL     1       7.271  -3.700  25.341  0.00  0.00    -0.309 N 
ATOM      2  H   UNL     1       6.882  -2.849  25.726  0.00  0.00    +0.149 HD
ATOM      3  C   UNL     1       8.485  -3.688  24.689  0.00  0.00    +0.244 C 
ATOM      4  O   UNL     1       9.014  -4.695  24.231  0.00  0.00    -0.270 OA
ENDROOT
BRANCH   3   5
ATOM      5  C   UNL     1       9.121  -2.352  24.513  0.00  0.00    +0.037 A 
ATOM      6  C   UNL     1       9.839  -2.103  23.337  0.00  0.00    +0.016 A 
ATOM      7  C   UNL     1      10.418  -0.846  23.106  0.00  0.00    +0.047 A 
ATOM      8  C   UNL     1      10.317   0.156  24.071  0.00  0.00    +0.130 A 
ATOM      9  C   UNL     1       9.596  -0.094  25.242  0.00  0.00    +0.047 A 
ATOM     10  C   UNL     1       9.010  -1.344  25.470  0.00  0.00    +0.016 A 
BRANCH   8  11
ATOM     11  O   UNL     1      10.813   1.419  23.978  0.00  0.00    -0.406 OA
BRANCH  11  12
ATOM     12  C   UNL     1      10.239   2.344  23.066  0.00  0.00    +0.575 C 
ATOM     13  F   UNL     1      10.707   3.578  23.363  0.00  0.00    -0.133 F 
ATOM     14  F   UNL     1       8.898   2.354  23.224  0.00  0.00    -0.133 F 
ATOM     15  F   UNL     1      10.525   2.096  21.771  0.00  0.00    -0.133 F 
ENDBRANCH  11  12
ENDBRANCH   8  11
ENDBRANCH   3   5
BRANCH   1  16
ATOM     16  C   UNL     1       6.558  -4.934  25.618  0.00  0.00    +0.133 C 
BRANCH  16  17
ATOM     17  C   UNL     1       5.366  -5.125  24.687  0.00  0.00    +0.191 C 
BRANCH  17  18
ATOM     18  O   UNL     1       5.616  -6.212  23.794  0.00  0.00    -0.285 OA
BRANCH  18  19
ATOM     19  P   UNL     1       5.799  -5.682  22.157  0.00  0.00    +0.472 P 
ATOM     20  O   UNL     1       5.707  -4.209  22.553  0.00  0.00    -0.228 OA
BRANCH  19  21
ATOM     21  O   UNL     1       5.979  -5.152  20.520  0.00  0.00    -0.303 OA
ATOM     22  H   UNL     1       5.984  -4.177  20.597  0.00  0.00    +0.222 HD
ENDBRANCH  19  21
BRANCH  19  23
ATOM     23  O   UNL     1       7.393  -5.993  22.215  0.00  0.00    -0.303 OA
ATOM     24  H   UNL     1       7.709  -6.135  21.305  0.00  0.00    +0.222 HD
ENDBRANCH  19  23
ENDBRANCH  18  19
ENDBRANCH  17  18
ENDBRANCH  16  17
ENDBRANCH   1  16
TORSDOF 9
ENDMDL
MODEL 8
REMARK VINA RESULT:      -6.0      1.876      2.446
REMARK  Name = 
REMARK  9 active torsions:
REMARK  status: ('A' for Active; 'I' for Inactive)
REMARK    1  A    between atoms: O_1  and  P_2
REMARK    2  A    between atoms: P_2  and  O_3
REMARK    3  A    between atoms: P_2  and  O_5
REMARK    4  A    between atoms: O_5  and  C_6
REMARK    5  A    between atoms: C_6  and  C_7
REMARK    6  A    between atoms: C_7  and  N_8
REMARK    7  A    between atoms: C_9  and  C_11
REMARK    8  A    between atoms: C_14  and  O_15
REMARK    9  A    between atoms: O_15  and  C_16
REMARK                            x       y       z     vdW  Elec       q    Type
REMARK                         _______ _______ _______ _____ _____    ______ ____
ROOT
ATOM      1  N   UNL     1       6.259  -2.854  23.850  0.00  0.00    -0.309 N 
ATOM      2  H   UNL     1       6.334  -2.214  24.630  0.00  0.00    +0.149 HD
ATOM      3  C   UNL     1       6.957  -2.630  22.684  0.00  0.00    +0.244 C 
ATOM      4  O   UNL     1       6.925  -3.389  21.722  0.00  0.00    -0.270 OA
ENDROOT
BRANCH   3   5
ATOM      5  C   UNL     1       7.735  -1.360  22.620  0.00  0.00    +0.037 A 
ATOM      6  C   UNL     1       8.968  -1.364  21.956  0.00  0.00    +0.016 A 
ATOM      7  C   UNL     1       9.716  -0.183  21.831  0.00  0.00    +0.047 A 
ATOM      8  C   UNL     1       9.252   0.999  22.407  0.00  0.00    +0.130 A 
ATOM      9  C   UNL     1       8.019   1.001  23.066  0.00  0.00    +0.047 A 
ATOM     10  C   UNL     1       7.268  -0.173  23.183  0.00  0.00    +0.016 A 
BRANCH   8  11
ATOM     11  O   UNL     1       9.860   2.215  22.355  0.00  0.00    -0.406 OA
BRANCH  11  12
ATOM     12  C   UNL     1      10.594   2.692  23.473  0.00  0.00    +0.575 C 
ATOM     13  F   UNL     1       9.753   3.401  24.260  0.00  0.00    -0.133 F 
ATOM     14  F   UNL     1      11.569   3.524  23.046  0.00  0.00    -0.133 F 
ATOM     15  F   UNL     1      11.146   1.722  24.230  0.00  0.00    -0.133 F 
ENDBRANCH  11  12
ENDBRANCH   8  11
ENDBRANCH   3   5
BRANCH   1  16
ATOM     16  C   UNL     1       5.492  -4.068  24.067  0.00  0.00    +0.133 C 
BRANCH  16  17
ATOM     17  C   UNL     1       6.374  -5.224  24.527  0.00  0.00    +0.191 C 
BRANCH  17  18
ATOM     18  O   UNL     1       7.156  -4.820  25.653  0.00  0.00    -0.285 OA
BRANCH  18  19
ATOM     19  P   UNL     1       8.850  -5.050  25.385  0.00  0.00    +0.472 P 
ATOM     20  O   UNL     1       8.631  -5.486  23.938  0.00  0.00    -0.228 OA
BRANCH  19  21
ATOM     21  O   UNL     1      10.543  -5.282  25.118  0.00  0.00    -0.303 OA
ATOM     22  H   UNL     1      10.877  -5.553  25.997  0.00  0.00    +0.222 HD
ENDBRANCH  19  21
BRANCH  19  23
ATOM     23  O   UNL     1       9.068  -3.443  25.271  0.00  0.00    -0.303 OA
ATOM     24  H   UNL     1       8.499  -3.011  25.933  0.00  0.00    +0.222 HD
ENDBRANCH  19  23
ENDBRANCH  18  19
ENDBRANCH  17  18
ENDBRANCH  16  17
ENDBRANCH   1  16
TORSDOF 9
ENDMDL
MODEL 9
REMARK VINA RESULT:      -6.0      2.717      4.067
REMARK  Name = 
REMARK  9 active torsions:
REMARK  status: ('A' for Active; 'I' for Inactive)
REMARK    1  A    between atoms: O_1  and  P_2
REMARK    2  A    between atoms: P_2  and  O_3
REMARK    3  A    between atoms: P_2  and  O_5
REMARK    4  A    between atoms: O_5  and  C_6
REMARK    5  A    between atoms: C_6  and  C_7
REMARK    6  A    between atoms: C_7  and  N_8
REMARK    7  A    between atoms: C_9  and  C_11
REMARK    8  A    between atoms: C_14  and  O_15
REMARK    9  A    between atoms: O_15  and  C_16
REMARK                            x       y       z     vdW  Elec       q    Type
REMARK                         _______ _______ _______ _____ _____    ______ ____
ROOT
ATOM      1  N   UNL     1       6.043  -4.968  24.444  0.00  0.00    -0.309 N 
ATOM      2  H   UNL     1       6.095  -4.239  25.143  0.00  0.00    +0.149 HD
ATOM      3  C   UNL     1       6.942  -5.009  23.401  0.00  0.00    +0.244 C 
ATOM      4  O   UNL     1       6.942  -5.886  22.544  0.00  0.00    -0.270 OA
ENDROOT
BRANCH   3   5
ATOM      5  C   UNL     1       7.912  -3.879  23.326  0.00  0.00    +0.037 A 
ATOM      6  C   UNL     1       7.758  -2.933  22.304  0.00  0.00    +0.016 A 
ATOM      7  C   UNL     1       8.617  -1.828  22.219  0.00  0.00    +0.047 A 
ATOM      8  C   UNL     1       9.663  -1.686  23.132  0.00  0.00    +0.130 A 
ATOM      9  C   UNL     1       9.812  -2.630  24.152  0.00  0.00    +0.047 A 
ATOM     10  C   UNL     1       8.949  -3.727  24.245  0.00  0.00    +0.016 A 
BRANCH   8  11
ATOM     11  O   UNL     1      10.560  -0.665  23.179  0.00  0.00    -0.406 OA
BRANCH  11  12
ATOM     12  C   UNL     1      10.332   0.443  24.038  0.00  0.00    +0.575 C 
ATOM     13  F   UNL     1      10.663   1.572  23.370  0.00  0.00    -0.133 F 
ATOM     14  F   UNL     1      11.136   0.344  25.119  0.00  0.00    -0.133 F 
ATOM     15  F   UNL     1       9.055   0.571  24.453  0.00  0.00    -0.133 F 
ENDBRANCH  11  12
ENDBRANCH   8  11
ENDBRANCH   3   5
BRANCH   1  16
ATOM     16  C   UNL     1       5.070  -6.023  24.663  0.00  0.00    +0.133 C 
BRANCH  16  17
ATOM     17  C   UNL     1       4.629  -6.096  26.121  0.00  0.00    +0.191 C 
BRANCH  17  18
ATOM     18  O   UNL     1       5.588  -6.835  26.882  0.00  0.00    -0.285 OA
BRANCH  18  19
ATOM     19  P   UNL     1       5.840  -6.153  28.452  0.00  0.00    +0.472 P 
ATOM     20  O   UNL     1       6.276  -7.494  29.039  0.00  0.00    -0.228 OA
BRANCH  19  21
ATOM     21  O   UNL     1       6.090  -5.472  30.022  0.00  0.00    -0.303 OA
ATOM     22  H   UNL     1       6.799  -4.815  29.874  0.00  0.00    +0.222 HD
ENDBRANCH  19  21
BRANCH  19  23
ATOM     23  O   UNL     1       7.235  -5.482  27.956  0.00  0.00    -0.303 OA
ATOM     24  H   UNL     1       7.117  -4.515  27.935  0.00  0.00    +0.222 HD
ENDBRANCH  19  23
ENDBRANCH  18  19
ENDBRANCH  17  18
ENDBRANCH  16  17
ENDBRANCH   1  16
TORSDOF 9
ENDMDL
