MODEL 1
REMARK VINA RESULT:      -7.0      0.000      0.000
REMARK  Name = 
REMARK  9 active torsions:
REMARK  status: ('A' for Active; 'I' for Inactive)
REMARK    1  A    between atoms: C_1  and  C_2
REMARK    2  A    between atoms: C_2  and  N_3
REMARK    3  A    between atoms: N_3  and  S_4
REMARK    4  A    between atoms: S_4  and  O_7
REMARK    5  A    between atoms: O_7  and  C_8
REMARK    6  A    between atoms: C_8  and  C_9
REMARK    7  A    between atoms: C_12  and  N_20
REMARK    8  A    between atoms: C_14  and  O_16
REMARK    9  A    between atoms: C_17  and  O_19
REMARK                            x       y       z     vdW  Elec       q    Type
REMARK                         _______ _______ _______ _____ _____    ______ ____
ROOT
ATOM      1  C   UNL     1       9.118  -5.053  24.721  0.00  0.00    +0.180 C 
ATOM      2  C   UNL     1       7.820  -5.197  23.927  0.00  0.00    +0.178 C 
ATOM      3  C   UNL     1       7.396  -3.768  23.590  0.00  0.00    +0.195 C 
ATOM      4  C   UNL     1       8.526  -2.891  24.143  0.00  0.00    +0.253 C 
ATOM      5  O   UNL     1       9.654  -3.765  24.354  0.00  0.00    -0.346 OA
ENDROOT
BRANCH   4   6
ATOM      6  N   UNL     1       8.898  -1.807  23.253  0.00  0.00    -0.286 N 
ATOM      7  C   UNL     1       9.482  -0.632  23.653  0.00  0.00    +0.167 A 
ATOM      8  N   UNL     1       9.822  -0.266  24.902  0.00  0.00    -0.216 NA
ATOM      9  C   UNL     1      10.373   0.970  24.898  0.00  0.00    +0.225 A 
ATOM     10  N   UNL     1      10.563   1.803  23.851  0.00  0.00    -0.219 NA
ATOM     11  C   UNL     1      10.171   1.395  22.624  0.00  0.00    +0.147 A 
ATOM     12  N   UNL     1      10.339   2.263  21.553  0.00  0.00    -0.341 N 
ATOM     13  H   UNL     1      10.344   1.803  20.651  0.00  0.00    +0.144 HD
ATOM     14  H   UNL     1      11.039   2.970  21.730  0.00  0.00    +0.144 HD
ATOM     15  C   UNL     1       9.623   0.108  22.491  0.00  0.00    +0.147 A 
ATOM     16  N   UNL     1       9.180  -0.609  21.399  0.00  0.00    -0.231 NA
ATOM     17  C   UNL     1       8.769  -1.759  21.892  0.00  0.00    +0.203 A 
ENDBRANCH   4   6
BRANCH   2  18
ATOM     18  O   UNL     1       8.079  -5.913  22.707  0.00  0.00    -0.386 OA
ATOM     19  H   UNL     1       8.110  -5.280  21.968  0.00  0.00    +0.210 HD
ENDBRANCH   2  18
BRANCH   3  20
ATOM     20  O   UNL     1       6.148  -3.447  24.208  0.00  0.00    -0.385 OA
ATOM     21  H   UNL     1       6.241  -2.538  24.566  0.00  0.00    +0.210 HD
ENDBRANCH   3  20
BRANCH   1  22
ATOM     22  C   UNL     1       8.921  -5.119  26.241  0.00  0.00    +0.229 C 
BRANCH  22  23
ATOM     23  O   UNL     1       7.736  -5.831  26.573  0.00  0.00    -0.222 OA
BRANCH  23  24
ATOM     24  S   UNL     1       6.584  -4.985  27.352  0.00  0.00    +0.151 S 
ATOM     25  O   UNL     1       6.436  -5.579  28.658  0.00  0.00    -0.130 OA
ATOM     26  O   UNL     1       6.879  -3.582  27.181  0.00  0.00    -0.130 OA
BRANCH  24  27
ATOM     27  N   UNL     1       5.187  -5.351  26.492  0.00  0.00    -0.170 NA
ATOM     28  H   UNL     1       4.398  -4.840  26.884  0.00  0.00    +0.150 HD
BRANCH  27  30
ATOM     29  C   UNL     1       4.409  -6.919  24.799  0.00  0.00    +0.022 C 
ATOM     30  C   UNL     1       4.934  -6.771  26.218  0.00  0.00    +0.104 C 
ENDBRANCH  27  30
ENDBRANCH  24  27
ENDBRANCH  23  24
ENDBRANCH  22  23
ENDBRANCH   1  22
TORSDOF 8
ENDMDL
MODEL 2
REMARK VINA RESULT:      -6.8      1.648      2.115
REMARK  Name = 
REMARK  9 active torsions:
REMARK  status: ('A' for Active; 'I' for Inactive)
REMARK    1  A    between atoms: C_1  and  C_2
REMARK    2  A    between atoms: C_2  and  N_3
REMARK    3  A    between atoms: N_3  and  S_4
REMARK    4  A    between atoms: S_4  and  O_7
REMARK    5  A    between atoms: O_7  and  C_8
REMARK    6  A    between atoms: C_8  and  C_9
REMARK    7  A    between atoms: C_12  and  N_20
REMARK    8  A    between atoms: C_14  and  O_16
REMARK    9  A    between atoms: C_17  and  O_19
REMARK                            x       y       z     vdW  Elec       q    Type
REMARK                         _______ _______ _______ _____ _____    ______ ____
ROOT
ATOM      1  C   UNL     1       8.683  -4.337  26.522  0.00  0.00    +0.180 C 
ATOM      2  C   UNL     1       9.021  -5.281  25.367  0.00  0.00    +0.178 C 
ATOM      3  C   UNL     1       8.687  -4.497  24.098  0.00  0.00    +0.195 C 
ATOM      4  C   UNL     1       8.254  -3.115  24.603  0.00  0.00    +0.253 C 
ATOM      5  O   UNL     1       8.729  -3.009  25.960  0.00  0.00    -0.346 OA
ENDROOT
BRANCH   4   6
ATOM      6  N   UNL     1       8.780  -2.023  23.805  0.00  0.00    -0.286 N 
ATOM      7  C   UNL     1       8.108  -0.859  23.533  0.00  0.00    +0.167 A 
ATOM      8  N   UNL     1       6.876  -0.505  23.942  0.00  0.00    -0.216 NA
ATOM      9  C   UNL     1       6.555   0.721  23.466  0.00  0.00    +0.225 A 
ATOM     10  N   UNL     1       7.284   1.529  22.664  0.00  0.00    -0.219 NA
ATOM     11  C   UNL     1       8.501   1.107  22.258  0.00  0.00    +0.147 A 
ATOM     12  N   UNL     1       9.236   1.925  21.410  0.00  0.00    -0.341 N 
ATOM     13  H   UNL     1      10.230   1.726  21.411  0.00  0.00    +0.144 HD
ATOM     14  H   UNL     1       8.945   2.892  21.452  0.00  0.00    +0.144 HD
ATOM     15  C   UNL     1       8.967  -0.135  22.723  0.00  0.00    +0.147 A 
ATOM     16  N   UNL     1      10.153  -0.815  22.538  0.00  0.00    -0.231 NA
ATOM     17  C   UNL     1      10.012  -1.935  23.216  0.00  0.00    +0.203 A 
ENDBRANCH   4   6
BRANCH   2  18
ATOM     18  O   UNL     1      10.428  -5.576  25.384  0.00  0.00    -0.386 OA
ATOM     19  H   UNL     1      10.594  -6.363  24.835  0.00  0.00    +0.210 HD
ENDBRANCH   2  18
BRANCH   3  20
ATOM     20  O   UNL     1       7.633  -5.131  23.370  0.00  0.00    -0.385 OA
ATOM     21  H   UNL     1       8.027  -5.924  22.947  0.00  0.00    +0.210 HD
ENDBRANCH   3  20
BRANCH   1  22
ATOM     22  C   UNL     1       7.303  -4.591  27.140  0.00  0.00    +0.229 C 
BRANCH  22  23
ATOM     23  O   UNL     1       7.292  -5.799  27.889  0.00  0.00    -0.222 OA
BRANCH  23  24
ATOM     24  S   UNL     1       5.905  -6.148  28.670  0.00  0.00    +0.151 S 
ATOM     25  O   UNL     1       5.824  -7.585  28.762  0.00  0.00    -0.130 OA
ATOM     26  O   UNL     1       5.836  -5.303  29.838  0.00  0.00    -0.130 OA
BRANCH  24  27
ATOM     27  N   UNL     1       4.718  -5.664  27.583  0.00  0.00    -0.170 NA
ATOM     28  H   UNL     1       4.047  -5.060  28.053  0.00  0.00    +0.150 HD
BRANCH  27  30
ATOM     29  C   UNL     1       4.735  -6.635  25.349  0.00  0.00    +0.022 C 
ATOM     30  C   UNL     1       4.128  -6.712  26.740  0.00  0.00    +0.104 C 
ENDBRANCH  27  30
ENDBRANCH  24  27
ENDBRANCH  23  24
ENDBRANCH  22  23
ENDBRANCH   1  22
TORSDOF 8
ENDMDL
MODEL 3
REMARK VINA RESULT:      -6.6      2.201      2.957
REMARK  Name = 
REMARK  9 active torsions:
REMARK  status: ('A' for Active; 'I' for Inactive)
REMARK    1  A    between atoms: C_1  and  C_2
REMARK    2  A    between atoms: C_2  and  N_3
REMARK    3  A    between atoms: N_3  and  S_4
REMARK    4  A    between atoms: S_4  and  O_7
REMARK    5  A    between atoms: O_7  and  C_8
REMARK    6  A    between atoms: C_8  and  C_9
REMARK    7  A    between atoms: C_12  and  N_20
REMARK    8  A    between atoms: C_14  and  O_16
REMARK    9  A    between atoms: C_17  and  O_19
REMARK                            x       y       z     vdW  Elec       q    Type
REMARK                         _______ _______ _______ _____ _____    ______ ____
ROOT
ATOM      1  C   UNL     1       7.541  -4.042  26.560  0.00  0.00    +0.180 C 
ATOM      2  C   UNL     1       8.618  -4.995  26.041  0.00  0.00    +0.178 C 
ATOM      3  C   UNL     1       8.935  -4.510  24.626  0.00  0.00    +0.195 C 
ATOM      4  C   UNL     1       8.076  -3.252  24.450  0.00  0.00    +0.253 C 
ATOM      5  O   UNL     1       7.680  -2.839  25.775  0.00  0.00    -0.346 OA
ENDROOT
BRANCH   4   6
ATOM      6  N   UNL     1       8.774  -2.170  23.782  0.00  0.00    -0.286 N 
ATOM      7  C   UNL     1       8.196  -0.989  23.391  0.00  0.00    +0.167 A 
ATOM      8  N   UNL     1       6.916  -0.608  23.549  0.00  0.00    -0.216 NA
ATOM      9  C   UNL     1       6.723   0.626  23.028  0.00  0.00    +0.225 A 
ATOM     10  N   UNL     1       7.614   1.420  22.394  0.00  0.00    -0.219 NA
ATOM     11  C   UNL     1       8.879   0.970  22.234  0.00  0.00    +0.147 A 
ATOM     12  N   UNL     1       9.785   1.774  21.555  0.00  0.00    -0.341 N 
ATOM     13  H   UNL     1      10.754   1.552  21.751  0.00  0.00    +0.144 HD
ATOM     14  H   UNL     1       9.513   2.747  21.546  0.00  0.00    +0.144 HD
ATOM     15  C   UNL     1       9.215  -0.284  22.772  0.00  0.00    +0.147 A 
ATOM     16  N   UNL     1      10.398  -0.990  22.821  0.00  0.00    -0.231 NA
ATOM     17  C   UNL     1      10.100  -2.109  23.449  0.00  0.00    +0.203 A 
ENDBRANCH   4   6
BRANCH   2  18
ATOM     18  O   UNL     1       9.797  -4.878  26.856  0.00  0.00    -0.386 OA
ATOM     19  H   UNL     1      10.517  -5.393  26.448  0.00  0.00    +0.210 HD
ENDBRANCH   2  18
BRANCH   3  20
ATOM     20  O   UNL     1       8.593  -5.504  23.658  0.00  0.00    -0.385 OA
ATOM     21  H   UNL     1       7.778  -5.189  23.214  0.00  0.00    +0.210 HD
ENDBRANCH   3  20
BRANCH   1  22
ATOM     22  C   UNL     1       6.116  -4.590  26.422  0.00  0.00    +0.229 C 
BRANCH  22  23
ATOM     23  O   UNL     1       6.115  -5.858  25.779  0.00  0.00    -0.222 OA
BRANCH  23  24
ATOM     24  S   UNL     1       4.993  -6.074  24.619  0.00  0.00    +0.151 S 
ATOM     25  O   UNL     1       4.426  -7.385  24.819  0.00  0.00    -0.130 OA
ATOM     26  O   UNL     1       4.173  -4.887  24.577  0.00  0.00    -0.130 OA
BRANCH  24  27
ATOM     27  N   UNL     1       5.905  -6.150  23.209  0.00  0.00    -0.170 NA
ATOM     28  H   UNL     1       6.893  -6.220  23.443  0.00  0.00    +0.150 HD
BRANCH  27  30
ATOM     29  C   UNL     1       6.143  -5.663  20.835  0.00  0.00    +0.022 C 
ATOM     30  C   UNL     1       5.581  -5.175  22.160  0.00  0.00    +0.104 C 
ENDBRANCH  27  30
ENDBRANCH  24  27
ENDBRANCH  23  24
ENDBRANCH  22  23
ENDBRANCH   1  22
TORSDOF 8
ENDMDL
MODEL 4
REMARK VINA RESULT:      -6.3      2.154      2.595
REMARK  Name = 
REMARK  9 active torsions:
REMARK  status: ('A' for Active; 'I' for Inactive)
REMARK    1  A    between atoms: C_1  and  C_2
REMARK    2  A    between atoms: C_2  and  N_3
REMARK    3  A    between atoms: N_3  and  S_4
REMARK    4  A    between atoms: S_4  and  O_7
REMARK    5  A    between atoms: O_7  and  C_8
REMARK    6  A    between atoms: C_8  and  C_9
REMARK    7  A    between atoms: C_12  and  N_20
REMARK    8  A    between atoms: C_14  and  O_16
REMARK    9  A    between atoms: C_17  and  O_19
REMARK                            x       y       z     vdW  Elec       q    Type
REMARK                         _______ _______ _______ _____ _____    ______ ____
ROOT
ATOM      1  C   UNL     1       7.444  -5.049  23.893  0.00  0.00    +0.180 C 
ATOM      2  C   UNL     1       6.669  -4.829  22.593  0.00  0.00    +0.178 C 
ATOM      3  C   UNL     1       6.692  -3.318  22.364  0.00  0.00    +0.195 C 
ATOM      4  C   UNL     1       7.554  -2.768  23.507  0.00  0.00    +0.253 C 
ATOM      5  O   UNL     1       8.291  -3.889  24.037  0.00  0.00    -0.346 OA
ENDROOT
BRANCH   4   6
ATOM      6  N   UNL     1       8.472  -1.727  23.084  0.00  0.00    -0.286 N 
ATOM      7  C   UNL     1       8.113  -0.434  22.804  0.00  0.00    +0.167 A 
ATOM      8  N   UNL     1       6.884   0.111  22.871  0.00  0.00    -0.216 NA
ATOM      9  C   UNL     1       6.927   1.416  22.515  0.00  0.00    +0.225 A 
ATOM     10  N   UNL     1       7.992   2.142  22.106  0.00  0.00    -0.219 NA
ATOM     11  C   UNL     1       9.195   1.532  22.026  0.00  0.00    +0.147 A 
ATOM     12  N   UNL     1      10.282   2.270  21.576  0.00  0.00    -0.341 N 
ATOM     13  H   UNL     1      11.178   1.883  21.846  0.00  0.00    +0.144 HD
ATOM     14  H   UNL     1      10.145   3.267  21.676  0.00  0.00    +0.144 HD
ATOM     15  C   UNL     1       9.288   0.184  22.412  0.00  0.00    +0.147 A 
ATOM     16  N   UNL     1      10.351  -0.692  22.492  0.00  0.00    -0.231 NA
ATOM     17  C   UNL     1       9.826  -1.824  22.915  0.00  0.00    +0.203 A 
ENDBRANCH   4   6
BRANCH   2  18
ATOM     18  O   UNL     1       7.352  -5.482  21.510  0.00  0.00    -0.386 OA
ATOM     19  H   UNL     1       7.776  -4.808  20.950  0.00  0.00    +0.210 HD
ENDBRANCH   2  18
BRANCH   3  20
ATOM     20  O   UNL     1       5.371  -2.775  22.411  0.00  0.00    -0.385 OA
ATOM     21  H   UNL     1       4.757  -3.539  22.401  0.00  0.00    +0.210 HD
ENDBRANCH   3  20
BRANCH   1  22
ATOM     22  C   UNL     1       6.547  -5.193  25.128  0.00  0.00    +0.229 C 
BRANCH  22  23
ATOM     23  O   UNL     1       5.181  -5.324  24.756  0.00  0.00    -0.222 OA
BRANCH  23  24
ATOM     24  S   UNL     1       4.340  -6.496  25.513  0.00  0.00    +0.151 S 
ATOM     25  O   UNL     1       3.172  -5.873  26.085  0.00  0.00    -0.130 OA
ATOM     26  O   UNL     1       4.242  -7.617  24.609  0.00  0.00    -0.130 OA
BRANCH  24  27
ATOM     27  N   UNL     1       5.340  -6.922  26.795  0.00  0.00    -0.170 NA
ATOM     28  H   UNL     1       5.720  -7.853  26.640  0.00  0.00    +0.150 HD
BRANCH  27  30
ATOM     29  C   UNL     1       5.536  -5.486  28.752  0.00  0.00    +0.022 C 
ATOM     30  C   UNL     1       4.819  -6.681  28.147  0.00  0.00    +0.104 C 
ENDBRANCH  27  30
ENDBRANCH  24  27
ENDBRANCH  23  24
ENDBRANCH  22  23
ENDBRANCH   1  22
TORSDOF 8
ENDMDL
MODEL 5
REMARK VINA RESULT:      -6.2      2.663      7.148
REMARK  Name = 
REMARK  9 active torsions:
REMARK  status: ('A' for Active; 'I' for Inactive)
REMARK    1  A    between atoms: C_1  and  C_2
REMARK    2  A    between atoms: C_2  and  N_3
REMARK    3  A    between atoms: N_3  and  S_4
REMARK    4  A    between atoms: S_4  and  O_7
REMARK    5  A    between atoms: O_7  and  C_8
REMARK    6  A    between atoms: C_8  and  C_9
REMARK    7  A    between atoms: C_12  and  N_20
REMARK    8  A    between atoms: C_14  and  O_16
REMARK    9  A    between atoms: C_17  and  O_19
REMARK                            x       y       z     vdW  Elec       q    Type
REMARK                         _______ _______ _______ _____ _____    ______ ____
ROOT
ATOM      1  C   UNL     1       6.185  -2.911  22.449  0.00  0.00    +0.180 C 
ATOM      2  C   UNL     1       6.674  -4.254  21.907  0.00  0.00    +0.178 C 
ATOM      3  C   UNL     1       6.786  -5.163  23.131  0.00  0.00    +0.195 C 
ATOM      4  C   UNL     1       6.272  -4.306  24.295  0.00  0.00    +0.253 C 
ATOM      5  O   UNL     1       5.539  -3.213  23.704  0.00  0.00    -0.346 OA
ENDROOT
BRANCH   4   6
ATOM      6  N   UNL     1       5.418  -5.037  25.212  0.00  0.00    -0.286 N 
ATOM      7  C   UNL     1       5.813  -5.519  26.433  0.00  0.00    +0.167 A 
ATOM      8  N   UNL     1       7.025  -5.408  27.008  0.00  0.00    -0.216 NA
ATOM      9  C   UNL     1       7.031  -6.017  28.217  0.00  0.00    +0.225 A 
ATOM     10  N   UNL     1       6.029  -6.691  28.824  0.00  0.00    -0.219 NA
ATOM     11  C   UNL     1       4.843  -6.799  28.184  0.00  0.00    +0.147 A 
ATOM     12  N   UNL     1       3.825  -7.517  28.795  0.00  0.00    -0.341 N 
ATOM     13  H   UNL     1       2.900  -7.290  28.448  0.00  0.00    +0.144 HD
ATOM     14  H   UNL     1       3.950  -7.599  29.794  0.00  0.00    +0.144 HD
ATOM     15  C   UNL     1       4.699  -6.169  26.936  0.00  0.00    +0.147 A 
ATOM     16  N   UNL     1       3.632  -6.051  26.069  0.00  0.00    -0.231 NA
ATOM     17  C   UNL     1       4.096  -5.351  25.054  0.00  0.00    +0.203 A 
ENDBRANCH   4   6
BRANCH   2  18
ATOM     18  O   UNL     1       5.694  -4.795  21.005  0.00  0.00    -0.386 OA
ATOM     19  H   UNL     1       6.037  -4.741  20.095  0.00  0.00    +0.210 HD
ENDBRANCH   2  18
BRANCH   3  20
ATOM     20  O   UNL     1       8.141  -5.562  23.348  0.00  0.00    -0.385 OA
ATOM     21  H   UNL     1       8.368  -6.180  22.620  0.00  0.00    +0.210 HD
ENDBRANCH   3  20
BRANCH   1  22
ATOM     22  C   UNL     1       7.308  -1.892  22.676  0.00  0.00    +0.229 C 
BRANCH  22  23
ATOM     23  O   UNL     1       8.564  -2.415  22.262  0.00  0.00    -0.222 OA
BRANCH  23  24
ATOM     24  S   UNL     1       9.789  -2.263  23.324  0.00  0.00    +0.151 S 
ATOM     25  O   UNL     1       9.817  -3.472  24.111  0.00  0.00    -0.130 OA
ATOM     26  O   UNL     1      10.946  -1.801  22.595  0.00  0.00    -0.130 OA
BRANCH  24  27
ATOM     27  N   UNL     1       9.268  -1.034  24.344  0.00  0.00    -0.170 NA
ATOM     28  H   UNL     1       8.370  -0.678  24.022  0.00  0.00    +0.150 HD
BRANCH  27  30
ATOM     29  C   UNL     1       9.653   1.369  24.446  0.00  0.00    +0.022 C 
ATOM     30  C   UNL     1      10.254  -0.004  24.696  0.00  0.00    +0.104 C 
ENDBRANCH  27  30
ENDBRANCH  24  27
ENDBRANCH  23  24
ENDBRANCH  22  23
ENDBRANCH   1  22
TORSDOF 8
ENDMDL
MODEL 6
REMARK VINA RESULT:      -6.2      3.876      7.833
REMARK  Name = 
REMARK  9 active torsions:
REMARK  status: ('A' for Active; 'I' for Inactive)
REMARK    1  A    between atoms: C_1  and  C_2
REMARK    2  A    between atoms: C_2  and  N_3
REMARK    3  A    between atoms: N_3  and  S_4
REMARK    4  A    between atoms: S_4  and  O_7
REMARK    5  A    between atoms: O_7  and  C_8
REMARK    6  A    between atoms: C_8  and  C_9
REMARK    7  A    between atoms: C_12  and  N_20
REMARK    8  A    between atoms: C_14  and  O_16
REMARK    9  A    between atoms: C_17  and  O_19
REMARK                            x       y       z     vdW  Elec       q    Type
REMARK                         _______ _______ _______ _____ _____    ______ ____
ROOT
ATOM      1  C   UNL     1       8.763  -0.193  22.924  0.00  0.00    +0.180 C 
ATOM      2  C   UNL     1       9.779  -1.333  22.862  0.00  0.00    +0.178 C 
ATOM      3  C   UNL     1       9.045  -2.555  23.414  0.00  0.00    +0.195 C 
ATOM      4  C   UNL     1       7.619  -2.057  23.683  0.00  0.00    +0.253 C 
ATOM      5  O   UNL     1       7.468  -0.830  22.940  0.00  0.00    -0.346 OA
ENDROOT
BRANCH   4   6
ATOM      6  N   UNL     1       6.596  -3.007  23.286  0.00  0.00    -0.286 N 
ATOM      7  C   UNL     1       6.209  -4.095  24.025  0.00  0.00    +0.167 A 
ATOM      8  N   UNL     1       6.677  -4.482  25.226  0.00  0.00    -0.216 NA
ATOM      9  C   UNL     1       6.051  -5.611  25.635  0.00  0.00    +0.225 A 
ATOM     10  N   UNL     1       5.109  -6.331  24.987  0.00  0.00    -0.219 NA
ATOM     11  C   UNL     1       4.701  -5.912  23.769  0.00  0.00    +0.147 A 
ATOM     12  N   UNL     1       3.755  -6.670  23.092  0.00  0.00    -0.341 N 
ATOM     13  H   UNL     1       3.259  -6.157  22.373  0.00  0.00    +0.144 HD
ATOM     14  H   UNL     1       3.217  -7.264  23.708  0.00  0.00    +0.144 HD
ATOM     15  C   UNL     1       5.247  -4.724  23.253  0.00  0.00    +0.147 A 
ATOM     16  N   UNL     1       5.015  -4.019  22.091  0.00  0.00    -0.231 NA
ATOM     17  C   UNL     1       5.829  -2.985  22.153  0.00  0.00    +0.203 A 
ENDBRANCH   4   6
BRANCH   2  18
ATOM     18  O   UNL     1      10.142  -1.578  21.493  0.00  0.00    -0.386 OA
ATOM     19  H   UNL     1       9.479  -2.167  21.089  0.00  0.00    +0.210 HD
ENDBRANCH   2  18
BRANCH   3  20
ATOM     20  O   UNL     1       9.661  -3.020  24.616  0.00  0.00    -0.385 OA
ATOM     21  H   UNL     1       9.761  -3.991  24.519  0.00  0.00    +0.210 HD
ENDBRANCH   3  20
BRANCH   1  22
ATOM     22  C   UNL     1       8.915   0.702  24.161  0.00  0.00    +0.229 C 
BRANCH  22  23
ATOM     23  O   UNL     1       9.885   1.718  23.940  0.00  0.00    -0.222 OA
BRANCH  23  24
ATOM     24  S   UNL     1       9.307   3.219  23.684  0.00  0.00    +0.151 S 
ATOM     25  O   UNL     1       8.428   3.143  22.543  0.00  0.00    -0.130 OA
ATOM     26  O   UNL     1       8.864   3.739  24.956  0.00  0.00    -0.130 OA
BRANCH  24  27
ATOM     27  N   UNL     1      10.666   4.077  23.193  0.00  0.00    -0.170 NA
ATOM     28  H   UNL     1      11.488   3.480  23.248  0.00  0.00    +0.150 HD
BRANCH  27  30
ATOM     29  C   UNL     1      12.317   5.759  23.808  0.00  0.00    +0.022 C 
ATOM     30  C   UNL     1      10.836   5.423  23.757  0.00  0.00    +0.104 C 
ENDBRANCH  27  30
ENDBRANCH  24  27
ENDBRANCH  23  24
ENDBRANCH  22  23
ENDBRANCH   1  22
TORSDOF 8
ENDMDL
MODEL 7
REMARK VINA RESULT:      -6.2      2.735      3.917
REMARK  Name = 
REMARK  9 active torsions:
REMARK  status: ('A' for Active; 'I' for Inactive)
REMARK    1  A    between atoms: C_1  and  C_2
REMARK    2  A    between atoms: C_2  and  N_3
REMARK    3  A    between atoms: N_3  and  S_4
REMARK    4  A    between atoms: S_4  and  O_7
REMARK    5  A    between atoms: O_7  and  C_8
REMARK    6  A    between atoms: C_8  and  C_9
REMARK    7  A    between atoms: C_12  and  N_20
REMARK    8  A    between atoms: C_14  and  O_16
REMARK    9  A    between atoms: C_17  and  O_19
REMARK                            x       y       z     vdW  Elec       q    Type
REMARK                         _______ _______ _______ _____ _____    ______ ____
ROOT
ATOM      1  C   UNL     1       9.743  -1.877  23.936  0.00  0.00    +0.180 C 
ATOM      2  C   UNL     1       8.905  -1.738  22.665  0.00  0.00    +0.178 C 
ATOM      3  C   UNL     1       8.313  -0.330  22.727  0.00  0.00    +0.195 C 
ATOM      4  C   UNL     1       8.918   0.286  23.995  0.00  0.00    +0.253 C 
ATOM      5  O   UNL     1      10.058  -0.528  24.340  0.00  0.00    -0.346 OA
ENDROOT
BRANCH   4   6
ATOM      6  N   UNL     1       9.328   1.667  23.823  0.00  0.00    -0.286 N 
ATOM      7  C   UNL     1       8.471   2.736  23.767  0.00  0.00    +0.167 A 
ATOM      8  N   UNL     1       7.129   2.721  23.865  0.00  0.00    -0.216 NA
ATOM      9  C   UNL     1       6.634   3.976  23.759  0.00  0.00    +0.225 A 
ATOM     10  N   UNL     1       7.306   5.130  23.550  0.00  0.00    -0.219 NA
ATOM     11  C   UNL     1       8.650   5.080  23.427  0.00  0.00    +0.147 A 
ATOM     12  N   UNL     1       9.336   6.262  23.181  0.00  0.00    -0.341 N 
ATOM     13  H   UNL     1      10.319   6.222  23.425  0.00  0.00    +0.144 HD
ATOM     14  H   UNL     1       8.812   7.082  23.456  0.00  0.00    +0.144 HD
ATOM     15  C   UNL     1       9.288   3.835  23.562  0.00  0.00    +0.147 A 
ATOM     16  N   UNL     1      10.615   3.459  23.537  0.00  0.00    -0.231 NA
ATOM     17  C   UNL     1      10.601   2.154  23.715  0.00  0.00    +0.203 A 
ENDBRANCH   4   6
BRANCH   2  18
ATOM     18  O   UNL     1       9.759  -1.842  21.513  0.00  0.00    -0.386 OA
ATOM     19  H   UNL     1      10.072  -0.952  21.269  0.00  0.00    +0.210 HD
ENDBRANCH   2  18
BRANCH   3  20
ATOM     20  O   UNL     1       6.888  -0.379  22.810  0.00  0.00    -0.385 OA
ATOM     21  H   UNL     1       6.671  -1.124  23.410  0.00  0.00    +0.210 HD
ENDBRANCH   3  20
BRANCH   1  22
ATOM     22  C   UNL     1       9.017  -2.603  25.076  0.00  0.00    +0.229 C 
BRANCH  22  23
ATOM     23  O   UNL     1       7.848  -3.258  24.602  0.00  0.00    -0.222 OA
BRANCH  23  24
ATOM     24  S   UNL     1       7.803  -4.875  24.795  0.00  0.00    +0.151 S 
ATOM     25  O   UNL     1       9.039  -5.396  24.265  0.00  0.00    -0.130 OA
ATOM     26  O   UNL     1       7.380  -5.142  26.149  0.00  0.00    -0.130 OA
BRANCH  24  27
ATOM     27  N   UNL     1       6.584  -5.355  23.743  0.00  0.00    -0.170 NA
ATOM     28  H   UNL     1       6.506  -6.370  23.748  0.00  0.00    +0.150 HD
BRANCH  27  30
ATOM     29  C   UNL     1       6.854  -5.807  21.365  0.00  0.00    +0.022 C 
ATOM     30  C   UNL     1       6.580  -4.738  22.410  0.00  0.00    +0.104 C 
ENDBRANCH  27  30
ENDBRANCH  24  27
ENDBRANCH  23  24
ENDBRANCH  22  23
ENDBRANCH   1  22
TORSDOF 8
ENDMDL
MODEL 8
REMARK VINA RESULT:      -6.2      3.876      7.665
REMARK  Name = 
REMARK  9 active torsions:
REMARK  status: ('A' for Active; 'I' for Inactive)
REMARK    1  A    between atoms: C_1  and  C_2
REMARK    2  A    between atoms: C_2  and  N_3
REMARK    3  A    between atoms: N_3  and  S_4
REMARK    4  A    between atoms: S_4  and  O_7
REMARK    5  A    between atoms: O_7  and  C_8
REMARK    6  A    between atoms: C_8  and  C_9
REMARK    7  A    between atoms: C_12  and  N_20
REMARK    8  A    between atoms: C_14  and  O_16
REMARK    9  A    between atoms: C_17  and  O_19
REMARK                            x       y       z     vdW  Elec       q    Type
REMARK                         _______ _______ _______ _____ _____    ______ ____
ROOT
ATOM      1  C   UNL     1       8.600  -0.188  22.385  0.00  0.00    +0.180 C 
ATOM      2  C   UNL     1      10.000  -0.292  22.991  0.00  0.00    +0.178 C 
ATOM      3  C   UNL     1       9.774  -0.582  24.474  0.00  0.00    +0.195 C 
ATOM      4  C   UNL     1       8.252  -0.710  24.614  0.00  0.00    +0.253 C 
ATOM      5  O   UNL     1       7.736  -0.916  23.282  0.00  0.00    -0.346 OA
ENDROOT
BRANCH   4   6
ATOM      6  N   UNL     1       7.845  -1.802  25.478  0.00  0.00    -0.286 N 
ATOM      7  C   UNL     1       8.391  -3.059  25.461  0.00  0.00    +0.167 A 
ATOM      8  N   UNL     1       9.383  -3.514  24.673  0.00  0.00    -0.216 NA
ATOM      9  C   UNL     1       9.644  -4.814  24.948  0.00  0.00    +0.225 A 
ATOM     10  N   UNL     1       9.030  -5.625  25.837  0.00  0.00    -0.219 NA
ATOM     11  C   UNL     1       8.018  -5.122  26.578  0.00  0.00    +0.147 A 
ATOM     12  N   UNL     1       7.368  -5.965  27.469  0.00  0.00    -0.341 N 
ATOM     13  H   UNL     1       6.871  -5.477  28.205  0.00  0.00    +0.144 HD
ATOM     14  H   UNL     1       7.927  -6.768  27.725  0.00  0.00    +0.144 HD
ATOM     15  C   UNL     1       7.680  -3.768  26.415  0.00  0.00    +0.147 A 
ATOM     16  N   UNL     1       6.752  -2.957  27.035  0.00  0.00    -0.231 NA
ATOM     17  C   UNL     1       6.892  -1.780  26.460  0.00  0.00    +0.203 A 
ENDBRANCH   4   6
BRANCH   2  18
ATOM     18  O   UNL     1      10.701  -1.397  22.394  0.00  0.00    -0.386 OA
ATOM     19  H   UNL     1      11.620  -1.128  22.213  0.00  0.00    +0.210 HD
ENDBRANCH   2  18
BRANCH   3  20
ATOM     20  O   UNL     1      10.276   0.483  25.284  0.00  0.00    -0.385 OA
ATOM     21  H   UNL     1      10.509   0.086  26.151  0.00  0.00    +0.210 HD
ENDBRANCH   3  20
BRANCH   1  22
ATOM     22  C   UNL     1       8.098   1.254  22.239  0.00  0.00    +0.229 C 
BRANCH  22  23
ATOM     23  O   UNL     1       9.149   2.186  22.456  0.00  0.00    -0.222 OA
BRANCH  23  24
ATOM     24  S   UNL     1       8.821   3.414  23.475  0.00  0.00    +0.151 S 
ATOM     25  O   UNL     1       7.645   4.077  22.969  0.00  0.00    -0.130 OA
ATOM     26  O   UNL     1       8.886   2.895  24.820  0.00  0.00    -0.130 OA
BRANCH  24  27
ATOM     27  N   UNL     1      10.110   4.466  23.240  0.00  0.00    -0.170 NA
ATOM     28  H   UNL     1       9.958   5.013  22.395  0.00  0.00    +0.150 HD
BRANCH  27  30
ATOM     29  C   UNL     1      12.482   5.019  23.276  0.00  0.00    +0.022 C 
ATOM     30  C   UNL     1      11.458   3.900  23.380  0.00  0.00    +0.104 C 
ENDBRANCH  27  30
ENDBRANCH  24  27
ENDBRANCH  23  24
ENDBRANCH  22  23
ENDBRANCH   1  22
TORSDOF 8
ENDMDL
MODEL 9
REMARK VINA RESULT:      -6.1      4.138      7.601
REMARK  Name = 
REMARK  9 active torsions:
REMARK  status: ('A' for Active; 'I' for Inactive)
REMARK    1  A    between atoms: C_1  and  C_2
REMARK    2  A    between atoms: C_2  and  N_3
REMARK    3  A    between atoms: N_3  and  S_4
REMARK    4  A    between atoms: S_4  and  O_7
REMARK    5  A    between atoms: O_7  and  C_8
REMARK    6  A    between atoms: C_8  and  C_9
REMARK    7  A    between atoms: C_12  and  N_20
REMARK    8  A    between atoms: C_14  and  O_16
REMARK    9  A    between atoms: C_17  and  O_19
REMARK                            x       y       z     vdW  Elec       q    Type
REMARK                         _______ _______ _______ _____ _____    ______ ____
ROOT
ATOM      1  C   UNL     1      10.142   0.729  22.650  0.00  0.00    +0.180 C 
ATOM      2  C   UNL     1      10.356   1.220  24.082  0.00  0.00    +0.178 C 
ATOM      3  C   UNL     1       9.506   0.296  24.953  0.00  0.00    +0.195 C 
ATOM      4  C   UNL     1       8.919  -0.726  23.972  0.00  0.00    +0.253 C 
ATOM      5  O   UNL     1       9.717  -0.645  22.772  0.00  0.00    -0.346 OA
ENDROOT
BRANCH   4   6
ATOM      6  N   UNL     1       8.930  -2.084  24.483  0.00  0.00    -0.286 N 
ATOM      7  C   UNL     1       8.055  -2.576  25.417  0.00  0.00    +0.167 A 
ATOM      8  N   UNL     1       7.042  -1.924  26.018  0.00  0.00    -0.216 NA
ATOM      9  C   UNL     1       6.403  -2.744  26.885  0.00  0.00    +0.225 A 
ATOM     10  N   UNL     1       6.688  -4.028  27.194  0.00  0.00    -0.219 NA
ATOM     11  C   UNL     1       7.738  -4.621  26.583  0.00  0.00    +0.147 A 
ATOM     12  N   UNL     1       8.048  -5.931  26.923  0.00  0.00    -0.341 N 
ATOM     13  H   UNL     1       8.601  -6.414  26.226  0.00  0.00    +0.144 HD
ATOM     14  H   UNL     1       7.267  -6.423  27.334  0.00  0.00    +0.144 HD
ATOM     15  C   UNL     1       8.456  -3.884  25.625  0.00  0.00    +0.147 A 
ATOM     16  N   UNL     1       9.521  -4.204  24.810  0.00  0.00    -0.231 NA
ATOM     17  C   UNL     1       9.767  -3.106  24.126  0.00  0.00    +0.203 A 
ENDBRANCH   4   6
BRANCH   2  18
ATOM     18  O   UNL     1      11.740   1.068  24.440  0.00  0.00    -0.386 OA
ATOM     19  H   UNL     1      11.796   0.671  25.328  0.00  0.00    +0.210 HD
ENDBRANCH   2  18
BRANCH   3  20
ATOM     20  O   UNL     1       8.470   1.027  25.613  0.00  0.00    -0.385 OA
ATOM     21  H   UNL     1       7.819   0.364  25.926  0.00  0.00    +0.210 HD
ENDBRANCH   3  20
BRANCH   1  22
ATOM     22  C   UNL     1       9.089   1.530  21.874  0.00  0.00    +0.229 C 
BRANCH  22  23
ATOM     23  O   UNL     1       8.825   2.775  22.508  0.00  0.00    -0.222 OA
BRANCH  23  24
ATOM     24  S   UNL     1       7.267   3.078  22.872  0.00  0.00    +0.151 S 
ATOM     25  O   UNL     1       6.485   2.009  22.301  0.00  0.00    -0.130 OA
ATOM     26  O   UNL     1       7.201   3.405  24.276  0.00  0.00    -0.130 OA
BRANCH  24  27
ATOM     27  N   UNL     1       6.923   4.460  21.980  0.00  0.00    -0.170 NA
ATOM     28  H   UNL     1       7.603   4.562  21.229  0.00  0.00    +0.150 HD
BRANCH  27  30
ATOM     29  C   UNL     1       6.791   6.887  21.820  0.00  0.00    +0.022 C 
ATOM     30  C   UNL     1       6.647   5.686  22.740  0.00  0.00    +0.104 C 
ENDBRANCH  27  30
ENDBRANCH  24  27
ENDBRANCH  23  24
ENDBRANCH  22  23
ENDBRANCH   1  22
TORSDOF 8
ENDMDL
