MODEL 1
REMARK VINA RESULT:      -5.4      0.000      0.000
REMARK  Name = 
REMARK  2 active torsions:
REMARK  status: ('A' for Active; 'I' for Inactive)
REMARK    1  A    between atoms: C_5  and  C_6
REMARK    2  A    between atoms: C_6  and  C_7
REMARK                            x       y       z     vdW  Elec       q    Type
REMARK                         _______ _______ _______ _____ _____    ______ ____
ROOT
ATOM      1  N   UNL     1       9.724   2.071  21.555  0.00  0.00    -0.338 N 
ATOM      2  H   UNL     1       9.071   2.839  21.464  0.00  0.00    +0.144 HD
ATOM      3  H   UNL     1      10.471   2.070  20.870  0.00  0.00    +0.144 HD
ATOM      4  C   UNL     1       9.228   0.861  21.862  0.00  0.00    +0.156 A 
ATOM      5  S   UNL     1       7.719   0.686  22.662  0.00  0.00    -0.057 S 
ATOM      6  C   UNL     1       7.906  -1.020  22.631  0.00  0.00    +0.015 A 
ATOM      7  C   UNL     1       9.089  -1.332  21.993  0.00  0.00    +0.124 A 
ATOM      8  N   UNL     1       9.838  -0.257  21.559  0.00  0.00    -0.233 NA
ENDROOT
BRANCH   6   9
ATOM      9  C   UNL     1       6.871  -1.934  23.208  0.00  0.00    +0.079 C 
BRANCH   9  10
ATOM     10  C   UNL     1       6.883  -3.370  22.717  0.00  0.00    -0.043 A 
ATOM     11  C   UNL     1       7.646  -4.303  23.441  0.00  0.00    +0.004 A 
ATOM     12  C   UNL     1       7.674  -5.651  23.075  0.00  0.00    +0.000 A 
ATOM     13  C   UNL     1       6.940  -6.088  21.976  0.00  0.00    +0.000 A 
ATOM     14  C   UNL     1       6.188  -5.176  21.240  0.00  0.00    +0.000 A 
ATOM     15  C   UNL     1       6.160  -3.827  21.605  0.00  0.00    +0.004 A 
ENDBRANCH   9  10
ENDBRANCH   6   9
TORSDOF 2
ENDMDL
MODEL 2
REMARK VINA RESULT:      -5.3      2.946      6.174
REMARK  Name = 
REMARK  2 active torsions:
REMARK  status: ('A' for Active; 'I' for Inactive)
REMARK    1  A    between atoms: C_5  and  C_6
REMARK    2  A    between atoms: C_6  and  C_7
REMARK                            x       y       z     vdW  Elec       q    Type
REMARK                         _______ _______ _______ _____ _____    ______ ____
ROOT
ATOM      1  N   UNL     1       7.944  -3.998  24.339  0.00  0.00    -0.338 N 
ATOM      2  H   UNL     1       6.965  -3.829  24.530  0.00  0.00    +0.144 HD
ATOM      3  H   UNL     1       8.448  -4.449  25.094  0.00  0.00    +0.144 HD
ATOM      4  C   UNL     1       8.627  -3.046  23.682  0.00  0.00    +0.156 A 
ATOM      5  S   UNL     1       7.833  -1.906  22.674  0.00  0.00    -0.057 S 
ATOM      6  C   UNL     1       9.347  -1.183  22.309  0.00  0.00    +0.015 A 
ATOM      7  C   UNL     1      10.341  -1.845  22.999  0.00  0.00    +0.124 A 
ATOM      8  N   UNL     1       9.926  -2.906  23.778  0.00  0.00    -0.233 NA
ENDROOT
BRANCH   6   9
ATOM      9  C   UNL     1       9.453  -0.002  21.395  0.00  0.00    +0.079 C 
BRANCH   9  10
ATOM     10  C   UNL     1       9.170   1.358  22.008  0.00  0.00    -0.043 A 
ATOM     11  C   UNL     1       7.967   1.997  21.659  0.00  0.00    +0.004 A 
ATOM     12  C   UNL     1       7.618   3.230  22.214  0.00  0.00    +0.000 A 
ATOM     13  C   UNL     1       8.469   3.847  23.126  0.00  0.00    +0.000 A 
ATOM     14  C   UNL     1       9.670   3.235  23.476  0.00  0.00    +0.000 A 
ATOM     15  C   UNL     1      10.020   2.001  22.921  0.00  0.00    +0.004 A 
ENDBRANCH   9  10
ENDBRANCH   6   9
TORSDOF 2
ENDMDL
MODEL 3
REMARK VINA RESULT:      -5.2      3.557      5.627
REMARK  Name = 
REMARK  2 active torsions:
REMARK  status: ('A' for Active; 'I' for Inactive)
REMARK    1  A    between atoms: C_5  and  C_6
REMARK    2  A    between atoms: C_6  and  C_7
REMARK                            x       y       z     vdW  Elec       q    Type
REMARK                         _______ _______ _______ _____ _____    ______ ____
ROOT
ATOM      1  N   UNL     1       7.826  -5.848  27.191  0.00  0.00    -0.338 N 
ATOM      2  H   UNL     1       6.851  -5.972  27.431  0.00  0.00    +0.144 HD
ATOM      3  H   UNL     1       8.439  -5.696  27.984  0.00  0.00    +0.144 HD
ATOM      4  C   UNL     1       8.113  -5.122  26.098  0.00  0.00    +0.156 A 
ATOM      5  S   UNL     1       6.977  -4.927  24.826  0.00  0.00    -0.057 S 
ATOM      6  C   UNL     1       8.109  -3.961  23.970  0.00  0.00    +0.015 A 
ATOM      7  C   UNL     1       9.257  -3.836  24.725  0.00  0.00    +0.124 A 
ATOM      8  N   UNL     1       9.254  -4.501  25.934  0.00  0.00    -0.233 NA
ENDROOT
BRANCH   6   9
ATOM      9  C   UNL     1       7.784  -3.368  22.634  0.00  0.00    +0.079 C 
BRANCH   9  10
ATOM     10  C   UNL     1       8.161  -1.912  22.427  0.00  0.00    -0.043 A 
ATOM     11  C   UNL     1       7.299  -0.932  22.949  0.00  0.00    +0.004 A 
ATOM     12  C   UNL     1       7.601   0.428  22.834  0.00  0.00    +0.000 A 
ATOM     13  C   UNL     1       8.768   0.829  22.193  0.00  0.00    +0.000 A 
ATOM     14  C   UNL     1       9.628  -0.128  21.660  0.00  0.00    +0.000 A 
ATOM     15  C   UNL     1       9.328  -1.488  21.774  0.00  0.00    +0.004 A 
ENDBRANCH   9  10
ENDBRANCH   6   9
TORSDOF 2
ENDMDL
MODEL 4
REMARK VINA RESULT:      -5.2      2.091      2.980
REMARK  Name = 
REMARK  2 active torsions:
REMARK  status: ('A' for Active; 'I' for Inactive)
REMARK    1  A    between atoms: C_5  and  C_6
REMARK    2  A    between atoms: C_6  and  C_7
REMARK                            x       y       z     vdW  Elec       q    Type
REMARK                         _______ _______ _______ _____ _____    ______ ____
ROOT
ATOM      1  N   UNL     1       9.958   2.155  21.684  0.00  0.00    -0.338 N 
ATOM      2  H   UNL     1      10.052   2.802  22.456  0.00  0.00    +0.144 HD
ATOM      3  H   UNL     1       9.375   2.488  20.924  0.00  0.00    +0.144 HD
ATOM      4  C   UNL     1       9.829   0.850  21.974  0.00  0.00    +0.156 A 
ATOM      5  S   UNL     1      10.399   0.200  23.457  0.00  0.00    -0.057 S 
ATOM      6  C   UNL     1       9.858  -1.357  22.977  0.00  0.00    +0.015 A 
ATOM      7  C   UNL     1       9.261  -1.264  21.736  0.00  0.00    +0.124 A 
ATOM      8  N   UNL     1       9.249  -0.005  21.169  0.00  0.00    -0.233 NA
ENDROOT
BRANCH   6   9
ATOM      9  C   UNL     1      10.028  -2.554  23.859  0.00  0.00    +0.079 C 
BRANCH   9  10
ATOM     10  C   UNL     1       8.799  -3.020  24.617  0.00  0.00    -0.043 A 
ATOM     11  C   UNL     1       7.994  -4.005  24.018  0.00  0.00    +0.004 A 
ATOM     12  C   UNL     1       6.869  -4.514  24.674  0.00  0.00    +0.000 A 
ATOM     13  C   UNL     1       6.530  -4.043  25.939  0.00  0.00    +0.000 A 
ATOM     14  C   UNL     1       7.309  -3.059  26.542  0.00  0.00    +0.000 A 
ATOM     15  C   UNL     1       8.434  -2.550  25.887  0.00  0.00    +0.004 A 
ENDBRANCH   9  10
ENDBRANCH   6   9
TORSDOF 2
ENDMDL
MODEL 5
REMARK VINA RESULT:      -5.2      3.156      5.945
REMARK  Name = 
REMARK  2 active torsions:
REMARK  status: ('A' for Active; 'I' for Inactive)
REMARK    1  A    between atoms: C_5  and  C_6
REMARK    2  A    between atoms: C_6  and  C_7
REMARK                            x       y       z     vdW  Elec       q    Type
REMARK                         _______ _______ _______ _____ _____    ______ ____
ROOT
ATOM      1  N   UNL     1       6.373  -4.896  24.990  0.00  0.00    -0.338 N 
ATOM      2  H   UNL     1       6.840  -5.679  25.430  0.00  0.00    +0.144 HD
ATOM      3  H   UNL     1       5.478  -5.121  24.571  0.00  0.00    +0.144 HD
ATOM      4  C   UNL     1       7.127  -4.027  24.297  0.00  0.00    +0.156 A 
ATOM      5  S   UNL     1       8.804  -3.843  24.613  0.00  0.00    -0.057 S 
ATOM      6  C   UNL     1       8.901  -2.652  23.381  0.00  0.00    +0.015 A 
ATOM      7  C   UNL     1       7.657  -2.500  22.802  0.00  0.00    +0.124 A 
ATOM      8  N   UNL     1       6.651  -3.284  23.329  0.00  0.00    -0.233 NA
ENDROOT
BRANCH   6   9
ATOM      9  C   UNL     1      10.191  -1.971  23.046  0.00  0.00    +0.079 C 
BRANCH   9  10
ATOM     10  C   UNL     1      10.164  -0.454  22.988  0.00  0.00    -0.043 A 
ATOM     11  C   UNL     1      10.555   0.252  24.139  0.00  0.00    +0.004 A 
ATOM     12  C   UNL     1      10.596   1.649  24.148  0.00  0.00    +0.000 A 
ATOM     13  C   UNL     1      10.243   2.362  23.007  0.00  0.00    +0.000 A 
ATOM     14  C   UNL     1       9.842   1.679  21.861  0.00  0.00    +0.000 A 
ATOM     15  C   UNL     1       9.801   0.282  21.851  0.00  0.00    +0.004 A 
ENDBRANCH   9  10
ENDBRANCH   6   9
TORSDOF 2
ENDMDL
MODEL 6
REMARK VINA RESULT:      -5.0      3.267      5.704
REMARK  Name = 
REMARK  2 active torsions:
REMARK  status: ('A' for Active; 'I' for Inactive)
REMARK    1  A    between atoms: C_5  and  C_6
REMARK    2  A    between atoms: C_6  and  C_7
REMARK                            x       y       z     vdW  Elec       q    Type
REMARK                         _______ _______ _______ _____ _____    ______ ____
ROOT
ATOM      1  N   UNL     1       5.341  -6.415  21.971  0.00  0.00    -0.338 N 
ATOM      2  H   UNL     1       5.870  -7.270  22.086  0.00  0.00    +0.144 HD
ATOM      3  H   UNL     1       4.672  -6.432  21.210  0.00  0.00    +0.144 HD
ATOM      4  C   UNL     1       5.991  -5.251  22.135  0.00  0.00    +0.156 A 
ATOM      5  S   UNL     1       7.425  -5.148  23.073  0.00  0.00    -0.057 S 
ATOM      6  C   UNL     1       7.515  -3.466  22.743  0.00  0.00    +0.015 A 
ATOM      7  C   UNL     1       6.463  -3.111  21.924  0.00  0.00    +0.124 A 
ATOM      8  N   UNL     1       5.597  -4.131  21.583  0.00  0.00    -0.233 NA
ENDROOT
BRANCH   6   9
ATOM      9  C   UNL     1       8.623  -2.617  23.284  0.00  0.00    +0.079 C 
BRANCH   9  10
ATOM     10  C   UNL     1       8.645  -1.166  22.841  0.00  0.00    -0.043 A 
ATOM     11  C   UNL     1       7.943  -0.231  23.624  0.00  0.00    +0.004 A 
ATOM     12  C   UNL     1       7.952   1.129  23.303  0.00  0.00    +0.000 A 
ATOM     13  C   UNL     1       8.661   1.576  22.192  0.00  0.00    +0.000 A 
ATOM     14  C   UNL     1       9.353   0.663  21.399  0.00  0.00    +0.000 A 
ATOM     15  C   UNL     1       9.344  -0.697  21.719  0.00  0.00    +0.004 A 
ENDBRANCH   9  10
ENDBRANCH   6   9
TORSDOF 2
ENDMDL
MODEL 7
REMARK VINA RESULT:      -5.0      2.016      3.012
REMARK  Name = 
REMARK  2 active torsions:
REMARK  status: ('A' for Active; 'I' for Inactive)
REMARK    1  A    between atoms: C_5  and  C_6
REMARK    2  A    between atoms: C_6  and  C_7
REMARK                            x       y       z     vdW  Elec       q    Type
REMARK                         _______ _______ _______ _____ _____    ______ ____
ROOT
ATOM      1  N   UNL     1       9.938   3.693  23.193  0.00  0.00    -0.338 N 
ATOM      2  H   UNL     1       9.949   4.114  22.273  0.00  0.00    +0.144 HD
ATOM      3  H   UNL     1      10.418   4.230  23.908  0.00  0.00    +0.144 HD
ATOM      4  C   UNL     1      10.099   2.362  23.274  0.00  0.00    +0.156 A 
ATOM      5  S   UNL     1       9.726   1.331  21.953  0.00  0.00    -0.057 S 
ATOM      6  C   UNL     1      10.194  -0.029  22.889  0.00  0.00    +0.015 A 
ATOM      7  C   UNL     1      10.623   0.401  24.127  0.00  0.00    +0.124 A 
ATOM      8  N   UNL     1      10.565   1.764  24.342  0.00  0.00    -0.233 NA
ENDROOT
BRANCH   6   9
ATOM      9  C   UNL     1      10.136  -1.420  22.337  0.00  0.00    +0.079 C 
BRANCH   9  10
ATOM     10  C   UNL     1       9.206  -2.392  23.040  0.00  0.00    -0.043 A 
ATOM     11  C   UNL     1       7.936  -2.606  22.477  0.00  0.00    +0.004 A 
ATOM     12  C   UNL     1       7.041  -3.518  23.043  0.00  0.00    +0.000 A 
ATOM     13  C   UNL     1       7.401  -4.227  24.184  0.00  0.00    +0.000 A 
ATOM     14  C   UNL     1       8.651  -4.020  24.763  0.00  0.00    +0.000 A 
ATOM     15  C   UNL     1       9.547  -3.108  24.197  0.00  0.00    +0.004 A 
ENDBRANCH   9  10
ENDBRANCH   6   9
TORSDOF 2
ENDMDL
MODEL 8
REMARK VINA RESULT:      -4.9      3.818      6.074
REMARK  Name = 
REMARK  2 active torsions:
REMARK  status: ('A' for Active; 'I' for Inactive)
REMARK    1  A    between atoms: C_5  and  C_6
REMARK    2  A    between atoms: C_6  and  C_7
REMARK                            x       y       z     vdW  Elec       q    Type
REMARK                         _______ _______ _______ _____ _____    ______ ____
ROOT
ATOM      1  N   UNL     1       6.855  -3.943  26.864  0.00  0.00    -0.338 N 
ATOM      2  H   UNL     1       6.172  -3.242  27.121  0.00  0.00    +0.144 HD
ATOM      3  H   UNL     1       7.249  -4.453  27.647  0.00  0.00    +0.144 HD
ATOM      4  C   UNL     1       7.720  -3.644  25.882  0.00  0.00    +0.156 A 
ATOM      5  S   UNL     1       7.358  -2.455  24.698  0.00  0.00    -0.057 S 
ATOM      6  C   UNL     1       8.877  -2.740  23.953  0.00  0.00    +0.015 A 
ATOM      7  C   UNL     1       9.560  -3.699  24.674  0.00  0.00    +0.124 A 
ATOM      8  N   UNL     1       8.895  -4.212  25.769  0.00  0.00    -0.233 NA
ENDROOT
BRANCH   6   9
ATOM      9  C   UNL     1       9.309  -1.986  22.734  0.00  0.00    +0.079 C 
BRANCH   9  10
ATOM     10  C   UNL     1       9.763  -0.553  22.947  0.00  0.00    -0.043 A 
ATOM     11  C   UNL     1       9.658   0.336  21.862  0.00  0.00    +0.004 A 
ATOM     12  C   UNL     1      10.016   1.679  21.994  0.00  0.00    +0.000 A 
ATOM     13  C   UNL     1      10.488   2.156  23.213  0.00  0.00    +0.000 A 
ATOM     14  C   UNL     1      10.610   1.288  24.295  0.00  0.00    +0.000 A 
ATOM     15  C   UNL     1      10.252  -0.056  24.165  0.00  0.00    +0.004 A 
ENDBRANCH   9  10
ENDBRANCH   6   9
TORSDOF 2
ENDMDL
MODEL 9
REMARK VINA RESULT:      -4.9      2.070      2.596
REMARK  Name = 
REMARK  2 active torsions:
REMARK  status: ('A' for Active; 'I' for Inactive)
REMARK    1  A    between atoms: C_5  and  C_6
REMARK    2  A    between atoms: C_6  and  C_7
REMARK                            x       y       z     vdW  Elec       q    Type
REMARK                         _______ _______ _______ _____ _____    ______ ____
ROOT
ATOM      1  N   UNL     1       9.627   1.008  25.231  0.00  0.00    -0.338 N 
ATOM      2  H   UNL     1       8.825   1.380  25.723  0.00  0.00    +0.144 HD
ATOM      3  H   UNL     1      10.059   1.654  24.580  0.00  0.00    +0.144 HD
ATOM      4  C   UNL     1       9.570  -0.269  24.817  0.00  0.00    +0.156 A 
ATOM      5  S   UNL     1       8.532  -1.411  25.568  0.00  0.00    -0.057 S 
ATOM      6  C   UNL     1       9.089  -2.621  24.485  0.00  0.00    +0.015 A 
ATOM      7  C   UNL     1      10.004  -2.063  23.616  0.00  0.00    +0.124 A 
ATOM      8  N   UNL     1      10.276  -0.724  23.811  0.00  0.00    -0.233 NA
ENDROOT
BRANCH   6   9
ATOM      9  C   UNL     1       8.571  -4.025  24.542  0.00  0.00    +0.079 C 
BRANCH   9  10
ATOM     10  C   UNL     1       7.686  -4.470  23.392  0.00  0.00    -0.043 A 
ATOM     11  C   UNL     1       6.815  -3.519  22.830  0.00  0.00    +0.004 A 
ATOM     12  C   UNL     1       6.001  -3.843  21.741  0.00  0.00    +0.000 A 
ATOM     13  C   UNL     1       6.043  -5.124  21.199  0.00  0.00    +0.000 A 
ATOM     14  C   UNL     1       6.890  -6.081  21.751  0.00  0.00    +0.000 A 
ATOM     15  C   UNL     1       7.705  -5.759  22.839  0.00  0.00    +0.004 A 
ENDBRANCH   9  10
ENDBRANCH   6   9
TORSDOF 2
ENDMDL
