MODEL 1
REMARK VINA RESULT:      -6.0      0.000      0.000
REMARK  Name = 
REMARK  3 active torsions:
REMARK  status: ('A' for Active; 'I' for Inactive)
REMARK    1  A    between atoms: N_4  and  C_5
REMARK    2  A    between atoms: C_5  and  C_7
REMARK    3  A    between atoms: C_8  and  N_9
REMARK                            x       y       z     vdW  Elec       q    Type
REMARK                         _______ _______ _______ _____ _____    ______ ____
ROOT
ATOM      1  C   UNL     1       7.762  -4.554  25.603  0.00  0.00    +0.186 A 
ATOM      2  N   UNL     1       7.098  -3.446  25.166  0.00  0.00    -0.222 NA
ATOM      3  C   UNL     1       7.828  -2.634  24.377  0.00  0.00    +0.170 A 
ATOM      4 CL   UNL     1       6.983  -1.236  23.837  0.00  0.00    -0.058 Cl
ATOM      5  C   UNL     1       9.173  -2.870  24.045  0.00  0.00    +0.156 A 
ATOM      6  N   UNL     1       9.907  -2.055  23.181  0.00  0.00    -0.341 N 
ATOM      7  H   UNL     1       9.816  -1.067  23.393  0.00  0.00    +0.144 HD
ATOM      8  H   UNL     1      10.869  -2.380  23.158  0.00  0.00    +0.144 HD
ATOM      9  N   UNL     1       9.815  -3.971  24.498  0.00  0.00    -0.213 NA
ATOM     10  C   UNL     1       9.105  -4.819  25.284  0.00  0.00    +0.151 A 
ENDROOT
BRANCH  10  11
ATOM     11  N   UNL     1       9.773  -5.993  25.624  0.00  0.00    -0.341 N 
ATOM     12  H   UNL     1       9.115  -6.672  25.993  0.00  0.00    +0.144 HD
ATOM     13  H   UNL     1      10.361  -6.347  24.870  0.00  0.00    +0.144 HD
ENDBRANCH  10  11
BRANCH   1  14
ATOM     14  C   UNL     1       7.010  -5.475  26.505  0.00  0.00    +0.362 C 
ATOM     15  O   UNL     1       7.479  -5.770  27.606  0.00  0.00    -0.247 OA
BRANCH  14  20
ATOM     16  N   UNL     1       3.937  -7.214  26.232  0.00  0.00    -0.291 N 
ATOM     17  H   UNL     1       3.813  -6.982  25.252  0.00  0.00    +0.254 HD
ATOM     18  H   UNL     1       3.685  -8.166  26.445  0.00  0.00    +0.254 HD
ATOM     19  C   UNL     1       5.118  -6.765  26.713  0.00  0.00    +0.375 C 
ATOM     20  N   UNL     1       5.815  -5.945  26.007  0.00  0.00    +0.002 NA
ATOM     21  N   UNL     1       5.367  -7.241  27.953  0.00  0.00    -0.291 N 
ATOM     22  H   UNL     1       6.331  -7.091  28.253  0.00  0.00    +0.254 HD
ATOM     23  H   UNL     1       5.046  -8.176  28.157  0.00  0.00    +0.254 HD
ENDBRANCH  14  20
ENDBRANCH   1  14
TORSDOF 3
ENDMDL
MODEL 2
REMARK VINA RESULT:      -6.0      2.296      3.318
REMARK  Name = 
REMARK  3 active torsions:
REMARK  status: ('A' for Active; 'I' for Inactive)
REMARK    1  A    between atoms: N_4  and  C_5
REMARK    2  A    between atoms: C_5  and  C_7
REMARK    3  A    between atoms: C_8  and  N_9
REMARK                            x       y       z     vdW  Elec       q    Type
REMARK                         _______ _______ _______ _____ _____    ______ ____
ROOT
ATOM      1  C   UNL     1       8.989  -2.933  23.934  0.00  0.00    +0.186 A 
ATOM      2  N   UNL     1       9.769  -1.971  24.505  0.00  0.00    -0.222 NA
ATOM      3  C   UNL     1       9.769  -0.793  23.851  0.00  0.00    +0.170 A 
ATOM      4 CL   UNL     1      10.760   0.411  24.576  0.00  0.00    -0.058 Cl
ATOM      5  C   UNL     1       9.059  -0.561  22.660  0.00  0.00    +0.156 A 
ATOM      6  N   UNL     1       9.018   0.677  22.018  0.00  0.00    -0.341 N 
ATOM      7  H   UNL     1       9.933   1.102  21.913  0.00  0.00    +0.144 HD
ATOM      8  H   UNL     1       8.512   0.579  21.143  0.00  0.00    +0.144 HD
ATOM      9  N   UNL     1       8.301  -1.534  22.106  0.00  0.00    -0.213 NA
ATOM     10  C   UNL     1       8.266  -2.730  22.746  0.00  0.00    +0.151 A 
ENDROOT
BRANCH  10  11
ATOM     11  N   UNL     1       7.378  -3.655  22.203  0.00  0.00    -0.341 N 
ATOM     12  H   UNL     1       7.608  -4.589  22.528  0.00  0.00    +0.144 HD
ATOM     13  H   UNL     1       6.402  -3.394  22.337  0.00  0.00    +0.144 HD
ENDBRANCH  10  11
BRANCH   1  14
ATOM     14  C   UNL     1       8.976  -4.269  24.601  0.00  0.00    +0.362 C 
ATOM     15  O   UNL     1      10.040  -4.833  24.860  0.00  0.00    -0.247 OA
BRANCH  14  20
ATOM     16  N   UNL     1       6.301  -5.914  26.238  0.00  0.00    -0.291 N 
ATOM     17  H   UNL     1       5.689  -5.872  25.430  0.00  0.00    +0.254 HD
ATOM     18  H   UNL     1       6.253  -6.797  26.722  0.00  0.00    +0.254 HD
ATOM     19  C   UNL     1       7.531  -5.424  25.967  0.00  0.00    +0.375 C 
ATOM     20  N   UNL     1       7.726  -4.783  24.868  0.00  0.00    +0.002 NA
ATOM     21  N   UNL     1       8.398  -5.661  26.977  0.00  0.00    -0.291 N 
ATOM     22  H   UNL     1       9.370  -5.491  26.717  0.00  0.00    +0.254 HD
ATOM     23  H   UNL     1       8.285  -6.526  27.484  0.00  0.00    +0.254 HD
ENDBRANCH  14  20
ENDBRANCH   1  14
TORSDOF 3
ENDMDL
MODEL 3
REMARK VINA RESULT:      -5.9      3.885      6.946
REMARK  Name = 
REMARK  3 active torsions:
REMARK  status: ('A' for Active; 'I' for Inactive)
REMARK    1  A    between atoms: N_4  and  C_5
REMARK    2  A    between atoms: C_5  and  C_7
REMARK    3  A    between atoms: C_8  and  N_9
REMARK                            x       y       z     vdW  Elec       q    Type
REMARK                         _______ _______ _______ _____ _____    ______ ____
ROOT
ATOM      1  C   UNL     1       9.345  -0.923  23.785  0.00  0.00    +0.186 A 
ATOM      2  N   UNL     1       9.095  -1.493  24.999  0.00  0.00    -0.222 NA
ATOM      3  C   UNL     1       8.626  -2.754  24.936  0.00  0.00    +0.170 A 
ATOM      4 CL   UNL     1       8.308  -3.460  26.472  0.00  0.00    -0.058 Cl
ATOM      5  C   UNL     1       8.375  -3.435  23.733  0.00  0.00    +0.156 A 
ATOM      6  N   UNL     1       7.943  -4.761  23.675  0.00  0.00    -0.341 N 
ATOM      7  H   UNL     1       7.168  -4.955  24.300  0.00  0.00    +0.144 HD
ATOM      8  H   UNL     1       7.757  -5.006  22.707  0.00  0.00    +0.144 HD
ATOM      9  N   UNL     1       8.620  -2.847  22.540  0.00  0.00    -0.213 NA
ATOM     10  C   UNL     1       9.108  -1.581  22.566  0.00  0.00    +0.151 A 
ENDROOT
BRANCH  10  11
ATOM     11  N   UNL     1       9.456  -1.067  21.319  0.00  0.00    -0.341 N 
ATOM     12  H   UNL     1       8.945  -1.552  20.589  0.00  0.00    +0.144 HD
ATOM     13  H   UNL     1       9.385  -0.051  21.275  0.00  0.00    +0.144 HD
ENDBRANCH  10  11
BRANCH   1  14
ATOM     14  C   UNL     1       9.839   0.486  23.794  0.00  0.00    +0.362 C 
ATOM     15  O   UNL     1      11.006   0.721  24.110  0.00  0.00    -0.247 OA
BRANCH  14  20
ATOM     16  N   UNL     1       8.257   3.193  22.149  0.00  0.00    -0.291 N 
ATOM     17  H   UNL     1       7.498   3.248  22.819  0.00  0.00    +0.254 HD
ATOM     18  H   UNL     1       8.600   4.098  21.868  0.00  0.00    +0.254 HD
ATOM     19  C   UNL     1       9.177   2.267  22.499  0.00  0.00    +0.375 C 
ATOM     20  N   UNL     1       8.908   1.440  23.449  0.00  0.00    +0.002 NA
ATOM     21  N   UNL     1      10.277   2.332  21.717  0.00  0.00    -0.291 N 
ATOM     22  H   UNL     1      11.062   1.794  22.086  0.00  0.00    +0.254 HD
ATOM     23  H   UNL     1      10.559   3.248  21.399  0.00  0.00    +0.254 HD
ENDBRANCH  14  20
ENDBRANCH   1  14
TORSDOF 3
ENDMDL
MODEL 4
REMARK VINA RESULT:      -5.9      3.020      4.554
REMARK  Name = 
REMARK  3 active torsions:
REMARK  status: ('A' for Active; 'I' for Inactive)
REMARK    1  A    between atoms: N_4  and  C_5
REMARK    2  A    between atoms: C_5  and  C_7
REMARK    3  A    between atoms: C_8  and  N_9
REMARK                            x       y       z     vdW  Elec       q    Type
REMARK                         _______ _______ _______ _____ _____    ______ ____
ROOT
ATOM      1  C   UNL     1       8.968  -1.555  24.028  0.00  0.00    +0.186 A 
ATOM      2  N   UNL     1       9.402  -0.787  22.988  0.00  0.00    -0.222 NA
ATOM      3  C   UNL     1       9.481   0.530  23.263  0.00  0.00    +0.170 A 
ATOM      4 CL   UNL     1      10.022   1.490  21.943  0.00  0.00    -0.058 Cl
ATOM      5  C   UNL     1       9.121   1.092  24.500  0.00  0.00    +0.156 A 
ATOM      6  N   UNL     1       9.260   2.448  24.798  0.00  0.00    -0.341 N 
ATOM      7  H   UNL     1       8.893   3.055  24.072  0.00  0.00    +0.144 HD
ATOM      8  H   UNL     1       8.863   2.627  25.716  0.00  0.00    +0.144 HD
ATOM      9  N   UNL     1       8.684   0.312  25.514  0.00  0.00    -0.213 NA
ATOM     10  C   UNL     1       8.604  -1.022  25.276  0.00  0.00    +0.151 A 
ENDROOT
BRANCH  10  11
ATOM     11  N   UNL     1       8.265  -1.791  26.386  0.00  0.00    -0.341 N 
ATOM     12  H   UNL     1       8.687  -1.399  27.222  0.00  0.00    +0.144 HD
ATOM     13  H   UNL     1       7.262  -1.957  26.463  0.00  0.00    +0.144 HD
ENDBRANCH  10  11
BRANCH   1  14
ATOM     14  C   UNL     1       8.832  -3.019  23.769  0.00  0.00    +0.362 C 
ATOM     15  O   UNL     1       7.922  -3.430  23.047  0.00  0.00    -0.247 OA
BRANCH  14  20
ATOM     16  N   UNL     1      10.275  -5.601  25.717  0.00  0.00    -0.291 N 
ATOM     17  H   UNL     1      11.209  -5.208  25.672  0.00  0.00    +0.254 HD
ATOM     18  H   UNL     1      10.043  -5.960  26.630  0.00  0.00    +0.254 HD
ATOM     19  C   UNL     1       9.362  -4.806  25.117  0.00  0.00    +0.375 C 
ATOM     20  N   UNL     1       9.763  -3.818  24.394  0.00  0.00    +0.002 NA
ATOM     21  N   UNL     1       8.099  -5.230  25.347  0.00  0.00    -0.291 N 
ATOM     22  H   UNL     1       7.392  -4.542  25.086  0.00  0.00    +0.254 HD
ATOM     23  H   UNL     1       7.913  -5.644  26.249  0.00  0.00    +0.254 HD
ENDBRANCH  14  20
ENDBRANCH   1  14
TORSDOF 3
ENDMDL
MODEL 5
REMARK VINA RESULT:      -5.8      2.937      5.727
REMARK  Name = 
REMARK  3 active torsions:
REMARK  status: ('A' for Active; 'I' for Inactive)
REMARK    1  A    between atoms: N_4  and  C_5
REMARK    2  A    between atoms: C_5  and  C_7
REMARK    3  A    between atoms: C_8  and  N_9
REMARK                            x       y       z     vdW  Elec       q    Type
REMARK                         _______ _______ _______ _____ _____    ______ ____
ROOT
ATOM      1  C   UNL     1       7.841  -3.821  23.558  0.00  0.00    +0.186 A 
ATOM      2  N   UNL     1       7.500  -4.232  22.303  0.00  0.00    -0.222 NA
ATOM      3  C   UNL     1       6.551  -5.188  22.270  0.00  0.00    +0.170 A 
ATOM      4 CL   UNL     1       6.133  -5.705  20.684  0.00  0.00    -0.058 Cl
ATOM      5  C   UNL     1       5.970  -5.753  23.419  0.00  0.00    +0.156 A 
ATOM      6  N   UNL     1       4.948  -6.701  23.376  0.00  0.00    -0.341 N 
ATOM      7  H   UNL     1       5.134  -7.459  22.728  0.00  0.00    +0.144 HD
ATOM      8  H   UNL     1       4.749  -7.015  24.322  0.00  0.00    +0.144 HD
ATOM      9  N   UNL     1       6.332  -5.336  24.653  0.00  0.00    -0.213 NA
ATOM     10  C   UNL     1       7.276  -4.364  24.724  0.00  0.00    +0.151 A 
ENDROOT
BRANCH  10  11
ATOM     11  N   UNL     1       7.524  -3.887  26.009  0.00  0.00    -0.341 N 
ATOM     12  H   UNL     1       7.548  -2.872  26.004  0.00  0.00    +0.144 HD
ATOM     13  H   UNL     1       6.899  -4.287  26.708  0.00  0.00    +0.144 HD
ENDBRANCH  10  11
BRANCH   1  14
ATOM     14  C   UNL     1       8.911  -2.783  23.656  0.00  0.00    +0.362 C 
ATOM     15  O   UNL     1      10.055  -3.114  23.971  0.00  0.00    -0.247 OA
BRANCH  14  20
ATOM     16  N   UNL     1       8.591   0.380  22.094  0.00  0.00    -0.291 N 
ATOM     17  H   UNL     1       8.056   0.780  22.858  0.00  0.00    +0.254 HD
ATOM     18  H   UNL     1       9.278   1.014  21.721  0.00  0.00    +0.254 HD
ATOM     19  C   UNL     1       8.998  -0.880  22.367  0.00  0.00    +0.375 C 
ATOM     20  N   UNL     1       8.508  -1.493  23.388  0.00  0.00    +0.002 NA
ATOM     21  N   UNL     1       9.869  -1.337  21.441  0.00  0.00    -0.291 N 
ATOM     22  H   UNL     1      10.347  -2.192  21.729  0.00  0.00    +0.254 HD
ATOM     23  H   UNL     1      10.504  -0.663  21.039  0.00  0.00    +0.254 HD
ENDBRANCH  14  20
ENDBRANCH   1  14
TORSDOF 3
ENDMDL
MODEL 6
REMARK VINA RESULT:      -5.6      2.376      2.683
REMARK  Name = 
REMARK  3 active torsions:
REMARK  status: ('A' for Active; 'I' for Inactive)
REMARK    1  A    between atoms: N_4  and  C_5
REMARK    2  A    between atoms: C_5  and  C_7
REMARK    3  A    between atoms: C_8  and  N_9
REMARK                            x       y       z     vdW  Elec       q    Type
REMARK                         _______ _______ _______ _____ _____    ______ ____
ROOT
ATOM      1  C   UNL     1       7.187  -5.294  25.478  0.00  0.00    +0.186 A 
ATOM      2  N   UNL     1       5.963  -5.302  24.876  0.00  0.00    -0.222 NA
ATOM      3  C   UNL     1       6.002  -5.436  23.536  0.00  0.00    +0.170 A 
ATOM      4 CL   UNL     1       4.454  -5.437  22.787  0.00  0.00    -0.058 Cl
ATOM      5  C   UNL     1       7.193  -5.527  22.795  0.00  0.00    +0.156 A 
ATOM      6  N   UNL     1       7.225  -5.723  21.413  0.00  0.00    -0.341 N 
ATOM      7  H   UNL     1       6.602  -5.102  20.909  0.00  0.00    +0.144 HD
ATOM      8  H   UNL     1       8.189  -5.677  21.096  0.00  0.00    +0.144 HD
ATOM      9  N   UNL     1       8.396  -5.507  23.412  0.00  0.00    -0.213 NA
ATOM     10  C   UNL     1       8.394  -5.388  24.764  0.00  0.00    +0.151 A 
ENDROOT
BRANCH  10  11
ATOM     11  N   UNL     1       9.648  -5.494  25.358  0.00  0.00    -0.341 N 
ATOM     12  H   UNL     1      10.371  -5.252  24.688  0.00  0.00    +0.144 HD
ATOM     13  H   UNL     1       9.712  -4.990  26.242  0.00  0.00    +0.144 HD
ENDBRANCH  10  11
BRANCH   1  14
ATOM     14  C   UNL     1       7.204  -5.119  26.961  0.00  0.00    +0.362 C 
ATOM     15  O   UNL     1       7.514  -4.029  27.443  0.00  0.00    -0.247 OA
BRANCH  14  20
ATOM     16  N   UNL     1       5.335  -7.488  28.815  0.00  0.00    -0.291 N 
ATOM     17  H   UNL     1       6.154  -8.018  29.094  0.00  0.00    +0.254 HD
ATOM     18  H   UNL     1       4.665  -7.377  29.560  0.00  0.00    +0.254 HD
ATOM     19  C   UNL     1       5.665  -6.381  28.112  0.00  0.00    +0.375 C 
ATOM     20  N   UNL     1       6.874  -6.239  27.692  0.00  0.00    +0.002 NA
ATOM     21  N   UNL     1       4.597  -5.578  27.912  0.00  0.00    -0.291 N 
ATOM     22  H   UNL     1       4.852  -4.650  27.572  0.00  0.00    +0.254 HD
ATOM     23  H   UNL     1       3.910  -5.537  28.651  0.00  0.00    +0.254 HD
ENDBRANCH  14  20
ENDBRANCH   1  14
TORSDOF 3
ENDMDL
MODEL 7
REMARK VINA RESULT:      -5.6      3.564      4.685
REMARK  Name = 
REMARK  3 active torsions:
REMARK  status: ('A' for Active; 'I' for Inactive)
REMARK    1  A    between atoms: N_4  and  C_5
REMARK    2  A    between atoms: C_5  and  C_7
REMARK    3  A    between atoms: C_8  and  N_9
REMARK                            x       y       z     vdW  Elec       q    Type
REMARK                         _______ _______ _______ _____ _____    ______ ____
ROOT
ATOM      1  C   UNL     1       8.073  -1.012  22.994  0.00  0.00    +0.186 A 
ATOM      2  N   UNL     1       7.321   0.081  22.681  0.00  0.00    -0.222 NA
ATOM      3  C   UNL     1       8.032   1.147  22.266  0.00  0.00    +0.170 A 
ATOM      4 CL   UNL     1       7.074   2.522  21.882  0.00  0.00    -0.058 Cl
ATOM      5  C   UNL     1       9.435   1.166  22.185  0.00  0.00    +0.156 A 
ATOM      6  N   UNL     1      10.163   2.254  21.699  0.00  0.00    -0.341 N 
ATOM      7  H   UNL     1       9.871   3.138  22.101  0.00  0.00    +0.144 HD
ATOM      8  H   UNL     1      11.155   2.063  21.811  0.00  0.00    +0.144 HD
ATOM      9  N   UNL     1      10.162   0.073  22.509  0.00  0.00    -0.213 NA
ATOM     10  C   UNL     1       9.477  -1.025  22.919  0.00  0.00    +0.151 A 
ENDROOT
BRANCH  10  11
ATOM     11  N   UNL     1      10.261  -2.156  23.124  0.00  0.00    -0.341 N 
ATOM     12  H   UNL     1      11.115  -2.091  22.578  0.00  0.00    +0.144 HD
ATOM     13  H   UNL     1      10.411  -2.362  24.112  0.00  0.00    +0.144 HD
ENDBRANCH  10  11
BRANCH   1  14
ATOM     14  C   UNL     1       7.338  -2.214  23.489  0.00  0.00    +0.362 C 
ATOM     15  O   UNL     1       7.048  -2.303  24.682  0.00  0.00    -0.247 OA
BRANCH  14  20
ATOM     16  N   UNL     1       7.117  -5.318  21.799  0.00  0.00    -0.291 N 
ATOM     17  H   UNL     1       6.777  -4.904  20.937  0.00  0.00    +0.254 HD
ATOM     18  H   UNL     1       7.796  -6.046  21.644  0.00  0.00    +0.254 HD
ATOM     19  C   UNL     1       7.416  -4.382  22.727  0.00  0.00    +0.375 C 
ATOM     20  N   UNL     1       7.048  -3.163  22.534  0.00  0.00    +0.002 NA
ATOM     21  N   UNL     1       8.049  -4.918  23.793  0.00  0.00    -0.291 N 
ATOM     22  H   UNL     1       8.467  -4.217  24.405  0.00  0.00    +0.254 HD
ATOM     23  H   UNL     1       8.676  -5.689  23.614  0.00  0.00    +0.254 HD
ENDBRANCH  14  20
ENDBRANCH   1  14
TORSDOF 3
ENDMDL
MODEL 8
REMARK VINA RESULT:      -5.6      2.254      5.186
REMARK  Name = 
REMARK  3 active torsions:
REMARK  status: ('A' for Active; 'I' for Inactive)
REMARK    1  A    between atoms: N_4  and  C_5
REMARK    2  A    between atoms: C_5  and  C_7
REMARK    3  A    between atoms: C_8  and  N_9
REMARK                            x       y       z     vdW  Elec       q    Type
REMARK                         _______ _______ _______ _____ _____    ______ ____
ROOT
ATOM      1  C   UNL     1       7.943  -4.072  25.106  0.00  0.00    +0.186 A 
ATOM      2  N   UNL     1       6.682  -4.083  24.588  0.00  0.00    -0.222 NA
ATOM      3  C   UNL     1       5.848  -4.966  25.171  0.00  0.00    +0.170 A 
ATOM      4 CL   UNL     1       4.262  -4.976  24.505  0.00  0.00    -0.058 Cl
ATOM      5  C   UNL     1       6.231  -5.837  26.205  0.00  0.00    +0.156 A 
ATOM      6  N   UNL     1       5.348  -6.709  26.843  0.00  0.00    -0.341 N 
ATOM      7  H   UNL     1       4.777  -7.241  26.196  0.00  0.00    +0.144 HD
ATOM      8  H   UNL     1       5.869  -7.287  27.497  0.00  0.00    +0.144 HD
ATOM      9  N   UNL     1       7.491  -5.816  26.696  0.00  0.00    -0.213 NA
ATOM     10  C   UNL     1       8.355  -4.928  26.142  0.00  0.00    +0.151 A 
ENDROOT
BRANCH  10  11
ATOM     11  N   UNL     1       9.599  -4.863  26.763  0.00  0.00    -0.341 N 
ATOM     12  H   UNL     1      10.331  -5.090  26.098  0.00  0.00    +0.144 HD
ATOM     13  H   UNL     1       9.747  -3.987  27.265  0.00  0.00    +0.144 HD
ENDBRANCH  10  11
BRANCH   1  14
ATOM     14  C   UNL     1       8.919  -3.132  24.478  0.00  0.00    +0.362 C 
ATOM     15  O   UNL     1      10.043  -3.534  24.172  0.00  0.00    -0.247 OA
BRANCH  14  20
ATOM     16  N   UNL     1       8.075  -0.051  22.948  0.00  0.00    -0.291 N 
ATOM     17  H   UNL     1       7.882   0.413  23.829  0.00  0.00    +0.254 HD
ATOM     18  H   UNL     1       8.577   0.533  22.298  0.00  0.00    +0.254 HD
ATOM     19  C   UNL     1       8.535  -1.310  23.129  0.00  0.00    +0.375 C 
ATOM     20  N   UNL     1       8.466  -1.844  24.298  0.00  0.00    +0.002 NA
ATOM     21  N   UNL     1       8.975  -1.853  21.973  0.00  0.00    -0.291 N 
ATOM     22  H   UNL     1       9.513  -2.710  22.112  0.00  0.00    +0.254 HD
ATOM     23  H   UNL     1       9.418  -1.230  21.313  0.00  0.00    +0.254 HD
ENDBRANCH  14  20
ENDBRANCH   1  14
TORSDOF 3
ENDMDL
MODEL 9
REMARK VINA RESULT:      -5.6      4.233      7.125
REMARK  Name = 
REMARK  3 active torsions:
REMARK  status: ('A' for Active; 'I' for Inactive)
REMARK    1  A    between atoms: N_4  and  C_5
REMARK    2  A    between atoms: C_5  and  C_7
REMARK    3  A    between atoms: C_8  and  N_9
REMARK                            x       y       z     vdW  Elec       q    Type
REMARK                         _______ _______ _______ _____ _____    ______ ____
ROOT
ATOM      1  C   UNL     1       7.644  -0.567  22.856  0.00  0.00    +0.186 A 
ATOM      2  N   UNL     1       6.554  -0.896  23.607  0.00  0.00    -0.222 NA
ATOM      3  C   UNL     1       6.325  -2.220  23.707  0.00  0.00    +0.170 A 
ATOM      4 CL   UNL     1       4.945  -2.623  24.650  0.00  0.00    -0.058 Cl
ATOM      5  C   UNL     1       7.111  -3.198  23.073  0.00  0.00    +0.156 A 
ATOM      6  N   UNL     1       6.903  -4.570  23.227  0.00  0.00    -0.341 N 
ATOM      7  H   UNL     1       5.932  -4.840  23.113  0.00  0.00    +0.144 HD
ATOM      8  H   UNL     1       7.540  -5.071  22.614  0.00  0.00    +0.144 HD
ATOM      9  N   UNL     1       8.181  -2.848  22.324  0.00  0.00    -0.213 NA
ATOM     10  C   UNL     1       8.450  -1.523  22.213  0.00  0.00    +0.151 A 
ENDROOT
BRANCH  10  11
ATOM     11  N   UNL     1       9.628  -1.223  21.535  0.00  0.00    -0.341 N 
ATOM     12  H   UNL     1      10.182  -0.566  22.075  0.00  0.00    +0.144 HD
ATOM     13  H   UNL     1      10.138  -2.055  21.238  0.00  0.00    +0.144 HD
ENDBRANCH  10  11
BRANCH   1  14
ATOM     14  C   UNL     1       7.928   0.889  22.687  0.00  0.00    +0.362 C 
ATOM     15  O   UNL     1       7.284   1.544  21.866  0.00  0.00    -0.247 OA
BRANCH  14  20
ATOM     16  N   UNL     1      10.897   2.520  23.718  0.00  0.00    -0.291 N 
ATOM     17  H   UNL     1      10.830   2.188  24.674  0.00  0.00    +0.254 HD
ATOM     18  H   UNL     1      11.838   2.490  23.356  0.00  0.00    +0.254 HD
ATOM     19  C   UNL     1       9.919   2.011  22.936  0.00  0.00    +0.375 C 
ATOM     20  N   UNL     1       8.933   1.391  23.483  0.00  0.00    +0.002 NA
ATOM     21  N   UNL     1      10.124   2.294  21.630  0.00  0.00    -0.291 N 
ATOM     22  H   UNL     1       9.524   1.754  21.005  0.00  0.00    +0.254 HD
ATOM     23  H   UNL     1      11.081   2.319  21.311  0.00  0.00    +0.254 HD
ENDBRANCH  14  20
ENDBRANCH   1  14
TORSDOF 3
ENDMDL
