MODEL 1
REMARK VINA RESULT:      -8.2      0.000      0.000
REMARK  Name = 
REMARK  5 active torsions:
REMARK  status: ('A' for Active; 'I' for Inactive)
REMARK    1  A    between atoms: N_8  and  C_9
REMARK    2  A    between atoms: N_12  and  C_13
REMARK    3  A    between atoms: C_13  and  C_14
REMARK    4  A    between atoms: C_14  and  C_15
REMARK    5  A    between atoms: C_15  and  N_16
REMARK                            x       y       z     vdW  Elec       q    Type
REMARK                         _______ _______ _______ _____ _____    ______ ____
ROOT
ATOM      1  C   UNL     1      10.320   0.972  22.776  0.00  0.00    +0.095 C 
ATOM      2  C   UNL     1       9.730  -0.114  21.852  0.00  0.00    +0.040 C 
ATOM      3  C   UNL     1       8.502  -0.851  22.422  0.00  0.00    +0.086 C 
ATOM      4  N   UNL     1       8.577  -1.231  23.840  0.00  0.00    -0.302 NA
ATOM      5  C   UNL     1       9.047  -0.097  24.641  0.00  0.00    +0.086 C 
ATOM      6  C   UNL     1      10.427   0.363  24.188  0.00  0.00    +0.040 C 
ENDROOT
BRANCH   1  12
ATOM      7 CL   UNL     1       4.544   5.107  22.784  0.00  0.00    -0.083 Cl
ATOM      8  C   UNL     1       6.013   4.211  22.791  0.00  0.00    +0.043 A 
ATOM      9  C   UNL     1       6.035   2.904  22.269  0.00  0.00    +0.022 A 
ATOM     10  C   UNL     1       7.220   2.146  22.253  0.00  0.00    +0.029 A 
ATOM     11  C   UNL     1       8.368   2.729  22.747  0.00  0.00    +0.070 A 
ATOM     12  N   UNL     1       9.708   2.294  22.861  0.00  0.00    -0.289 N 
ATOM     13  C   UNL     1      10.484   3.412  23.301  0.00  0.00    +0.328 A 
ATOM     14  N   UNL     1       9.593   4.446  23.573  0.00  0.00    -0.306 N 
ATOM     15  H   UNL     1       9.883   5.340  23.936  0.00  0.00    +0.170 HD
ATOM     16  O   UNL     1      11.692   3.482  23.459  0.00  0.00    -0.247 OA
ATOM     17  C   UNL     1       8.317   4.047  23.223  0.00  0.00    +0.068 A 
ATOM     18  C   UNL     1       7.167   4.803  23.289  0.00  0.00    +0.047 A 
ENDBRANCH   1  12
BRANCH   4  19
ATOM     19  C   UNL     1       9.337  -2.472  24.080  0.00  0.00    +0.086 C 
BRANCH  19  20
ATOM     20  C   UNL     1       9.022  -3.120  25.440  0.00  0.00    +0.037 C 
BRANCH  20  21
ATOM     21  C   UNL     1       8.914  -4.637  25.306  0.00  0.00    +0.128 C 
BRANCH  21  22
ATOM     22  N   UNL     1       7.566  -5.117  25.461  0.00  0.00    -0.292 N 
ATOM     23  C   UNL     1       6.614  -5.245  24.438  0.00  0.00    +0.070 A 
ATOM     24  C   UNL     1       5.506  -5.895  24.983  0.00  0.00    +0.067 A 
ATOM     25  C   UNL     1       4.401  -6.229  24.234  0.00  0.00    +0.028 A 
ATOM     26  C   UNL     1       4.425  -5.866  22.883  0.00  0.00    +0.002 A 
ATOM     27  C   UNL     1       5.530  -5.190  22.328  0.00  0.00    +0.002 A 
ATOM     28  N   UNL     1       5.759  -6.143  26.327  0.00  0.00    -0.306 N 
ATOM     29  H   UNL     1       5.161  -6.614  26.987  0.00  0.00    +0.170 HD
ATOM     30  C   UNL     1       6.651  -4.870  23.112  0.00  0.00    +0.028 A 
ATOM     31  C   UNL     1       7.043  -5.673  26.642  0.00  0.00    +0.328 A 
ATOM     32  O   UNL     1       7.583  -5.764  27.733  0.00  0.00    -0.247 OA
ENDBRANCH  21  22
ENDBRANCH  20  21
ENDBRANCH  19  20
ENDBRANCH   4  19
TORSDOF 5
ENDMDL
MODEL 2
REMARK VINA RESULT:      -7.9      1.495      1.998
REMARK  Name = 
REMARK  5 active torsions:
REMARK  status: ('A' for Active; 'I' for Inactive)
REMARK    1  A    between atoms: N_8  and  C_9
REMARK    2  A    between atoms: N_12  and  C_13
REMARK    3  A    between atoms: C_13  and  C_14
REMARK    4  A    between atoms: C_14  and  C_15
REMARK    5  A    between atoms: C_15  and  N_16
REMARK                            x       y       z     vdW  Elec       q    Type
REMARK                         _______ _______ _______ _____ _____    ______ ____
ROOT
ATOM      1  C   UNL     1      10.276   1.123  22.447  0.00  0.00    +0.095 C 
ATOM      2  C   UNL     1       9.550   0.037  21.627  0.00  0.00    +0.040 C 
ATOM      3  C   UNL     1       8.497  -0.771  22.411  0.00  0.00    +0.086 C 
ATOM      4  N   UNL     1       8.880  -1.184  23.769  0.00  0.00    -0.302 NA
ATOM      5  C   UNL     1       9.461  -0.051  24.495  0.00  0.00    +0.086 C 
ATOM      6  C   UNL     1      10.698   0.483  23.785  0.00  0.00    +0.040 C 
ENDROOT
BRANCH   1  12
ATOM      7 CL   UNL     1       4.433   5.121  23.030  0.00  0.00    -0.083 Cl
ATOM      8  C   UNL     1       5.917   4.258  22.910  0.00  0.00    +0.043 A 
ATOM      9  C   UNL     1       5.955   3.027  22.229  0.00  0.00    +0.022 A 
ATOM     10  C   UNL     1       7.152   2.298  22.106  0.00  0.00    +0.029 A 
ATOM     11  C   UNL     1       8.296   2.835  22.657  0.00  0.00    +0.070 A 
ATOM     12  N   UNL     1       9.644   2.414  22.703  0.00  0.00    -0.289 N 
ATOM     13  C   UNL     1      10.406   3.481  23.271  0.00  0.00    +0.328 A 
ATOM     14  N   UNL     1       9.502   4.458  23.679  0.00  0.00    -0.306 N 
ATOM     15  H   UNL     1       9.782   5.304  24.148  0.00  0.00    +0.170 HD
ATOM     16  O   UNL     1      11.615   3.553  23.425  0.00  0.00    -0.247 OA
ATOM     17  C   UNL     1       8.228   4.083  23.295  0.00  0.00    +0.068 A 
ATOM     18  C   UNL     1       7.068   4.804  23.466  0.00  0.00    +0.047 A 
ENDBRANCH   1  12
BRANCH   4  19
ATOM     19  C   UNL     1       9.721  -2.395  23.803  0.00  0.00    +0.086 C 
BRANCH  19  20
ATOM     20  C   UNL     1       9.096  -3.542  24.616  0.00  0.00    +0.037 C 
BRANCH  20  21
ATOM     21  C   UNL     1       7.603  -3.307  24.829  0.00  0.00    +0.128 C 
BRANCH  21  22
ATOM     22  N   UNL     1       6.786  -4.333  24.234  0.00  0.00    -0.292 N 
ATOM     23  C   UNL     1       6.012  -5.275  24.927  0.00  0.00    +0.070 A 
ATOM     24  C   UNL     1       5.257  -5.968  23.980  0.00  0.00    +0.067 A 
ATOM     25  C   UNL     1       4.343  -6.938  24.326  0.00  0.00    +0.028 A 
ATOM     26  C   UNL     1       4.213  -7.219  25.691  0.00  0.00    +0.002 A 
ATOM     27  C   UNL     1       4.986  -6.540  26.653  0.00  0.00    +0.002 A 
ATOM     28  N   UNL     1       5.578  -5.479  22.719  0.00  0.00    -0.306 N 
ATOM     29  H   UNL     1       5.189  -5.763  21.834  0.00  0.00    +0.170 HD
ATOM     30  C   UNL     1       5.905  -5.547  26.275  0.00  0.00    +0.028 A 
ATOM     31  C   UNL     1       6.523  -4.452  22.857  0.00  0.00    +0.328 A 
ATOM     32  O   UNL     1       6.992  -3.792  21.944  0.00  0.00    -0.247 OA
ENDBRANCH  21  22
ENDBRANCH  20  21
ENDBRANCH  19  20
ENDBRANCH   4  19
TORSDOF 5
ENDMDL
MODEL 3
REMARK VINA RESULT:      -7.9      3.099      8.814
REMARK  Name = 
REMARK  5 active torsions:
REMARK  status: ('A' for Active; 'I' for Inactive)
REMARK    1  A    between atoms: N_8  and  C_9
REMARK    2  A    between atoms: N_12  and  C_13
REMARK    3  A    between atoms: C_13  and  C_14
REMARK    4  A    between atoms: C_14  and  C_15
REMARK    5  A    between atoms: C_15  and  N_16
REMARK                            x       y       z     vdW  Elec       q    Type
REMARK                         _______ _______ _______ _____ _____    ______ ____
ROOT
ATOM      1  C   UNL     1       7.975  -4.900  23.461  0.00  0.00    +0.095 C 
ATOM      2  C   UNL     1       8.882  -4.767  24.701  0.00  0.00    +0.040 C 
ATOM      3  C   UNL     1       8.513  -3.612  25.653  0.00  0.00    +0.086 C 
ATOM      4  N   UNL     1       8.161  -2.336  25.014  0.00  0.00    -0.302 NA
ATOM      5  C   UNL     1       7.215  -2.565  23.918  0.00  0.00    +0.086 C 
ATOM      6  C   UNL     1       7.807  -3.489  22.862  0.00  0.00    +0.040 C 
ENDROOT
BRANCH   1  12
ATOM      7 CL   UNL     1       2.301  -6.813  27.283  0.00  0.00    -0.083 Cl
ATOM      8  C   UNL     1       3.623  -6.409  26.258  0.00  0.00    +0.043 A 
ATOM      9  C   UNL     1       4.868  -6.077  26.824  0.00  0.00    +0.022 A 
ATOM     10  C   UNL     1       5.971  -5.748  26.015  0.00  0.00    +0.029 A 
ATOM     11  C   UNL     1       5.804  -5.781  24.647  0.00  0.00    +0.070 A 
ATOM     12  N   UNL     1       6.670  -5.547  23.555  0.00  0.00    -0.289 N 
ATOM     13  C   UNL     1       5.963  -5.903  22.365  0.00  0.00    +0.328 A 
ATOM     14  N   UNL     1       4.657  -6.209  22.740  0.00  0.00    -0.306 N 
ATOM     15  H   UNL     1       3.939  -6.457  22.079  0.00  0.00    +0.170 HD
ATOM     16  O   UNL     1       6.370  -5.916  21.215  0.00  0.00    -0.247 OA
ATOM     17  C   UNL     1       4.560  -6.155  24.118  0.00  0.00    +0.068 A 
ATOM     18  C   UNL     1       3.449  -6.445  24.880  0.00  0.00    +0.047 A 
ENDBRANCH   1  12
BRANCH   4  19
ATOM     19  C   UNL     1       9.332  -1.532  24.617  0.00  0.00    +0.086 C 
BRANCH  19  20
ATOM     20  C   UNL     1       9.412  -0.180  25.348  0.00  0.00    +0.037 C 
BRANCH  20  21
ATOM     21  C   UNL     1      10.232   0.825  24.543  0.00  0.00    +0.128 C 
BRANCH  21  22
ATOM     22  N   UNL     1       9.441   1.544  23.577  0.00  0.00    -0.292 N 
ATOM     23  C   UNL     1       8.680   2.695  23.828  0.00  0.00    +0.070 A 
ATOM     24  C   UNL     1       8.211   3.157  22.597  0.00  0.00    +0.067 A 
ATOM     25  C   UNL     1       7.467   4.308  22.472  0.00  0.00    +0.028 A 
ATOM     26  C   UNL     1       7.178   5.000  23.654  0.00  0.00    +0.002 A 
ATOM     27  C   UNL     1       7.630   4.530  24.904  0.00  0.00    +0.002 A 
ATOM     28  N   UNL     1       8.654   2.290  21.604  0.00  0.00    -0.306 N 
ATOM     29  H   UNL     1       8.496   2.363  20.612  0.00  0.00    +0.170 HD
ATOM     30  C   UNL     1       8.397   3.358  25.003  0.00  0.00    +0.028 A 
ATOM     31  C   UNL     1       9.430   1.283  22.195  0.00  0.00    +0.328 A 
ATOM     32  O   UNL     1       9.995   0.380  21.597  0.00  0.00    -0.247 OA
ENDBRANCH  21  22
ENDBRANCH  20  21
ENDBRANCH  19  20
ENDBRANCH   4  19
TORSDOF 5
ENDMDL
MODEL 4
REMARK VINA RESULT:      -7.8      2.149      2.727
REMARK  Name = 
REMARK  5 active torsions:
REMARK  status: ('A' for Active; 'I' for Inactive)
REMARK    1  A    between atoms: N_8  and  C_9
REMARK    2  A    between atoms: N_12  and  C_13
REMARK    3  A    between atoms: C_13  and  C_14
REMARK    4  A    between atoms: C_14  and  C_15
REMARK    5  A    between atoms: C_15  and  N_16
REMARK                            x       y       z     vdW  Elec       q    Type
REMARK                         _______ _______ _______ _____ _____    ______ ____
ROOT
ATOM      1  C   UNL     1       7.520  -0.305  23.303  0.00  0.00    +0.095 C 
ATOM      2  C   UNL     1       6.473  -0.252  24.434  0.00  0.00    +0.040 C 
ATOM      3  C   UNL     1       7.052  -0.367  25.858  0.00  0.00    +0.086 C 
ATOM      4  N   UNL     1       8.106  -1.375  26.048  0.00  0.00    -0.302 NA
ATOM      5  C   UNL     1       9.102  -1.268  24.978  0.00  0.00    +0.086 C 
ATOM      6  C   UNL     1       8.468  -1.482  23.610  0.00  0.00    +0.040 C 
ENDROOT
BRANCH   1  12
ATOM      7 CL   UNL     1      10.031   6.135  24.941  0.00  0.00    -0.083 Cl
ATOM      8  C   UNL     1       9.479   4.587  24.430  0.00  0.00    +0.043 A 
ATOM      9  C   UNL     1       8.368   4.000  25.064  0.00  0.00    +0.022 A 
ATOM     10  C   UNL     1       7.886   2.738  24.667  0.00  0.00    +0.029 A 
ATOM     11  C   UNL     1       8.523   2.101  23.624  0.00  0.00    +0.070 A 
ATOM     12  N   UNL     1       8.306   0.875  22.955  0.00  0.00    -0.289 N 
ATOM     13  C   UNL     1       9.193   0.836  21.835  0.00  0.00    +0.328 A 
ATOM     14  N   UNL     1      10.014   1.957  21.924  0.00  0.00    -0.306 N 
ATOM     15  H   UNL     1      10.757   2.147  21.272  0.00  0.00    +0.170 HD
ATOM     16  O   UNL     1       9.278  -0.013  20.963  0.00  0.00    -0.247 OA
ATOM     17  C   UNL     1       9.603   2.734  22.991  0.00  0.00    +0.068 A 
ATOM     18  C   UNL     1      10.124   3.949  23.377  0.00  0.00    +0.047 A 
ENDBRANCH   1  12
BRANCH   4  19
ATOM     19  C   UNL     1       7.588  -2.743  26.231  0.00  0.00    +0.086 C 
BRANCH  19  20
ATOM     20  C   UNL     1       8.700  -3.791  26.412  0.00  0.00    +0.037 C 
BRANCH  20  21
ATOM     21  C   UNL     1       8.121  -5.203  26.410  0.00  0.00    +0.128 C 
BRANCH  21  22
ATOM     22  N   UNL     1       6.887  -5.300  25.674  0.00  0.00    -0.292 N 
ATOM     23  C   UNL     1       6.763  -5.376  24.279  0.00  0.00    +0.070 A 
ATOM     24  C   UNL     1       5.419  -5.622  23.995  0.00  0.00    +0.067 A 
ATOM     25  C   UNL     1       4.954  -5.806  22.713  0.00  0.00    +0.028 A 
ATOM     26  C   UNL     1       5.898  -5.717  21.684  0.00  0.00    +0.002 A 
ATOM     27  C   UNL     1       7.253  -5.448  21.958  0.00  0.00    +0.002 A 
ATOM     28  N   UNL     1       4.719  -5.671  25.196  0.00  0.00    -0.306 N 
ATOM     29  H   UNL     1       3.736  -5.849  25.325  0.00  0.00    +0.170 HD
ATOM     30  C   UNL     1       7.705  -5.275  23.277  0.00  0.00    +0.028 A 
ATOM     31  C   UNL     1       5.619  -5.481  26.254  0.00  0.00    +0.328 A 
ATOM     32  O   UNL     1       5.332  -5.498  27.441  0.00  0.00    -0.247 OA
ENDBRANCH  21  22
ENDBRANCH  20  21
ENDBRANCH  19  20
ENDBRANCH   4  19
TORSDOF 5
ENDMDL
MODEL 5
REMARK VINA RESULT:      -7.7      2.763      3.706
REMARK  Name = 
REMARK  5 active torsions:
REMARK  status: ('A' for Active; 'I' for Inactive)
REMARK    1  A    between atoms: N_8  and  C_9
REMARK    2  A    between atoms: N_12  and  C_13
REMARK    3  A    between atoms: C_13  and  C_14
REMARK    4  A    between atoms: C_14  and  C_15
REMARK    5  A    between atoms: C_15  and  N_16
REMARK                            x       y       z     vdW  Elec       q    Type
REMARK                         _______ _______ _______ _____ _____    ______ ____
ROOT
ATOM      1  C   UNL     1       8.613  -0.859  25.134  0.00  0.00    +0.095 C 
ATOM      2  C   UNL     1       9.720  -1.398  24.203  0.00  0.00    +0.040 C 
ATOM      3  C   UNL     1       9.440  -1.226  22.697  0.00  0.00    +0.086 C 
ATOM      4  N   UNL     1       8.070  -1.528  22.256  0.00  0.00    -0.302 NA
ATOM      5  C   UNL     1       7.101  -0.883  23.146  0.00  0.00    +0.086 C 
ATOM      6  C   UNL     1       7.265  -1.364  24.582  0.00  0.00    +0.040 C 
ENDROOT
BRANCH   1  12
ATOM      7 CL   UNL     1      10.000   5.902  23.454  0.00  0.00    -0.083 Cl
ATOM      8  C   UNL     1       9.609   4.307  23.968  0.00  0.00    +0.043 A 
ATOM      9  C   UNL     1      10.323   3.212  23.446  0.00  0.00    +0.022 A 
ATOM     10  C   UNL     1      10.034   1.895  23.849  0.00  0.00    +0.029 A 
ATOM     11  C   UNL     1       9.042   1.708  24.787  0.00  0.00    +0.070 A 
ATOM     12  N   UNL     1       8.514   0.566  25.431  0.00  0.00    -0.289 N 
ATOM     13  C   UNL     1       7.610   1.023  26.439  0.00  0.00    +0.328 A 
ATOM     14  N   UNL     1       7.502   2.404  26.297  0.00  0.00    -0.306 N 
ATOM     15  H   UNL     1       6.893   2.969  26.866  0.00  0.00    +0.170 HD
ATOM     16  O   UNL     1       6.996   0.365  27.263  0.00  0.00    -0.247 OA
ATOM     17  C   UNL     1       8.378   2.826  25.314  0.00  0.00    +0.068 A 
ATOM     18  C   UNL     1       8.609   4.124  24.915  0.00  0.00    +0.047 A 
ENDBRANCH   1  12
BRANCH   4  19
ATOM     19  C   UNL     1       7.817  -2.968  22.060  0.00  0.00    +0.086 C 
BRANCH  19  20
ATOM     20  C   UNL     1       6.332  -3.293  21.820  0.00  0.00    +0.037 C 
BRANCH  20  21
ATOM     21  C   UNL     1       6.057  -4.776  22.055  0.00  0.00    +0.128 C 
BRANCH  21  22
ATOM     22  N   UNL     1       5.564  -5.049  23.379  0.00  0.00    -0.292 N 
ATOM     23  C   UNL     1       6.340  -5.147  24.544  0.00  0.00    +0.070 A 
ATOM     24  C   UNL     1       5.458  -5.257  25.620  0.00  0.00    +0.067 A 
ATOM     25  C   UNL     1       5.888  -5.319  26.926  0.00  0.00    +0.028 A 
ATOM     26  C   UNL     1       7.272  -5.287  27.134  0.00  0.00    +0.002 A 
ATOM     27  C   UNL     1       8.170  -5.198  26.053  0.00  0.00    +0.002 A 
ATOM     28  N   UNL     1       4.159  -5.252  25.127  0.00  0.00    -0.306 N 
ATOM     29  H   UNL     1       3.302  -5.300  25.655  0.00  0.00    +0.170 HD
ATOM     30  C   UNL     1       7.706  -5.124  24.729  0.00  0.00    +0.028 A 
ATOM     31  C   UNL     1       4.203  -5.115  23.732  0.00  0.00    +0.328 A 
ATOM     32  O   UNL     1       3.233  -5.045  22.995  0.00  0.00    -0.247 OA
ENDBRANCH  21  22
ENDBRANCH  20  21
ENDBRANCH  19  20
ENDBRANCH   4  19
TORSDOF 5
ENDMDL
MODEL 6
REMARK VINA RESULT:      -7.6      2.908      8.626
REMARK  Name = 
REMARK  5 active torsions:
REMARK  status: ('A' for Active; 'I' for Inactive)
REMARK    1  A    between atoms: N_8  and  C_9
REMARK    2  A    between atoms: N_12  and  C_13
REMARK    3  A    between atoms: C_13  and  C_14
REMARK    4  A    between atoms: C_14  and  C_15
REMARK    5  A    between atoms: C_15  and  N_16
REMARK                            x       y       z     vdW  Elec       q    Type
REMARK                         _______ _______ _______ _____ _____    ______ ____
ROOT
ATOM      1  C   UNL     1       7.222  -3.698  26.350  0.00  0.00    +0.095 C 
ATOM      2  C   UNL     1       7.088  -2.431  25.480  0.00  0.00    +0.040 C 
ATOM      3  C   UNL     1       7.525  -2.604  24.012  0.00  0.00    +0.086 C 
ATOM      4  N   UNL     1       8.761  -3.369  23.791  0.00  0.00    -0.302 NA
ATOM      5  C   UNL     1       8.738  -4.602  24.582  0.00  0.00    +0.086 C 
ATOM      6  C   UNL     1       8.613  -4.301  26.070  0.00  0.00    +0.040 C 
ENDROOT
BRANCH   1  12
ATOM      7 CL   UNL     1       1.966  -7.032  22.925  0.00  0.00    -0.083 Cl
ATOM      8  C   UNL     1       3.220  -6.304  23.853  0.00  0.00    +0.043 A 
ATOM      9  C   UNL     1       3.640  -4.995  23.551  0.00  0.00    +0.022 A 
ATOM     10  C   UNL     1       4.657  -4.366  24.292  0.00  0.00    +0.029 A 
ATOM     11  C   UNL     1       5.220  -5.064  25.339  0.00  0.00    +0.070 A 
ATOM     12  N   UNL     1       6.214  -4.753  26.294  0.00  0.00    -0.289 N 
ATOM     13  C   UNL     1       6.249  -5.823  27.241  0.00  0.00    +0.328 A 
ATOM     14  N   UNL     1       5.387  -6.811  26.773  0.00  0.00    -0.306 N 
ATOM     15  H   UNL     1       5.257  -7.693  27.241  0.00  0.00    +0.170 HD
ATOM     16  O   UNL     1       6.917  -5.915  28.257  0.00  0.00    -0.247 OA
ATOM     17  C   UNL     1       4.749  -6.352  25.636  0.00  0.00    +0.068 A 
ATOM     18  C   UNL     1       3.783  -7.011  24.908  0.00  0.00    +0.047 A 
ENDBRANCH   1  12
BRANCH   4  19
ATOM     19  C   UNL     1       9.989  -2.574  23.982  0.00  0.00    +0.086 C 
BRANCH  19  20
ATOM     20  C   UNL     1      10.254  -1.587  22.831  0.00  0.00    +0.037 C 
BRANCH  20  21
ATOM     21  C   UNL     1      10.406  -0.164  23.361  0.00  0.00    +0.128 C 
BRANCH  21  22
ATOM     22  N   UNL     1       9.465   0.754  22.774  0.00  0.00    -0.292 N 
ATOM     23  C   UNL     1       8.984   1.932  23.365  0.00  0.00    +0.070 A 
ATOM     24  C   UNL     1       8.228   2.600  22.401  0.00  0.00    +0.067 A 
ATOM     25  C   UNL     1       7.648   3.827  22.632  0.00  0.00    +0.028 A 
ATOM     26  C   UNL     1       7.835   4.379  23.905  0.00  0.00    +0.002 A 
ATOM     27  C   UNL     1       8.578   3.703  24.892  0.00  0.00    +0.002 A 
ATOM     28  N   UNL     1       8.221   1.835  21.240  0.00  0.00    -0.306 N 
ATOM     29  H   UNL     1       7.778   2.056  20.363  0.00  0.00    +0.170 HD
ATOM     30  C   UNL     1       9.169   2.456  24.627  0.00  0.00    +0.028 A 
ATOM     31  C   UNL     1       8.994   0.684  21.450  0.00  0.00    +0.328 A 
ATOM     32  O   UNL     1       9.217  -0.182  20.620  0.00  0.00    -0.247 OA
ENDBRANCH  21  22
ENDBRANCH  20  21
ENDBRANCH  19  20
ENDBRANCH   4  19
TORSDOF 5
ENDMDL
MODEL 7
REMARK VINA RESULT:      -7.5      2.767      3.641
REMARK  Name = 
REMARK  5 active torsions:
REMARK  status: ('A' for Active; 'I' for Inactive)
REMARK    1  A    between atoms: N_8  and  C_9
REMARK    2  A    between atoms: N_12  and  C_13
REMARK    3  A    between atoms: C_13  and  C_14
REMARK    4  A    between atoms: C_14  and  C_15
REMARK    5  A    between atoms: C_15  and  N_16
REMARK                            x       y       z     vdW  Elec       q    Type
REMARK                         _______ _______ _______ _____ _____    ______ ____
ROOT
ATOM      1  C   UNL     1       7.521  -0.046  25.961  0.00  0.00    +0.095 C 
ATOM      2  C   UNL     1       8.647  -0.911  25.358  0.00  0.00    +0.040 C 
ATOM      3  C   UNL     1       8.717  -0.902  23.818  0.00  0.00    +0.086 C 
ATOM      4  N   UNL     1       7.430  -0.995  23.112  0.00  0.00    -0.302 NA
ATOM      5  C   UNL     1       6.467  -0.057  23.696  0.00  0.00    +0.086 C 
ATOM      6  C   UNL     1       6.233  -0.355  25.172  0.00  0.00    +0.040 C 
ENDROOT
BRANCH   1  12
ATOM      7 CL   UNL     1       9.897   6.153  23.432  0.00  0.00    -0.083 Cl
ATOM      8  C   UNL     1       9.281   4.714  24.148  0.00  0.00    +0.043 A 
ATOM      9  C   UNL     1       9.772   3.463  23.730  0.00  0.00    +0.022 A 
ATOM     10  C   UNL     1       9.295   2.267  24.299  0.00  0.00    +0.029 A 
ATOM     11  C   UNL     1       8.345   2.357  25.293  0.00  0.00    +0.070 A 
ATOM     12  N   UNL     1       7.677   1.400  26.091  0.00  0.00    -0.289 N 
ATOM     13  C   UNL     1       6.924   2.113  27.074  0.00  0.00    +0.328 A 
ATOM     14  N   UNL     1       7.037   3.467  26.773  0.00  0.00    -0.306 N 
ATOM     15  H   UNL     1       6.565   4.187  27.296  0.00  0.00    +0.170 HD
ATOM     16  O   UNL     1       6.262   1.664  27.996  0.00  0.00    -0.247 OA
ATOM     17  C   UNL     1       7.908   3.623  25.711  0.00  0.00    +0.068 A 
ATOM     18  C   UNL     1       8.325   4.810  25.151  0.00  0.00    +0.047 A 
ENDBRANCH   1  12
BRANCH   4  19
ATOM     19  C   UNL     1       6.915  -2.372  23.003  0.00  0.00    +0.086 C 
BRANCH  19  20
ATOM     20  C   UNL     1       8.004  -3.399  22.646  0.00  0.00    +0.037 C 
BRANCH  20  21
ATOM     21  C   UNL     1       7.642  -4.782  23.179  0.00  0.00    +0.128 C 
BRANCH  21  22
ATOM     22  N   UNL     1       7.806  -4.892  24.605  0.00  0.00    -0.292 N 
ATOM     23  C   UNL     1       6.784  -5.128  25.536  0.00  0.00    +0.070 A 
ATOM     24  C   UNL     1       7.393  -5.325  26.777  0.00  0.00    +0.067 A 
ATOM     25  C   UNL     1       6.678  -5.634  27.912  0.00  0.00    +0.028 A 
ATOM     26  C   UNL     1       5.288  -5.727  27.773  0.00  0.00    +0.002 A 
ATOM     27  C   UNL     1       4.663  -5.509  26.529  0.00  0.00    +0.002 A 
ATOM     28  N   UNL     1       8.767  -5.187  26.620  0.00  0.00    -0.306 N 
ATOM     29  H   UNL     1       9.478  -5.289  27.326  0.00  0.00    +0.170 HD
ATOM     30  C   UNL     1       5.417  -5.206  25.383  0.00  0.00    +0.028 A 
ATOM     31  C   UNL     1       9.045  -4.926  25.270  0.00  0.00    +0.328 A 
ATOM     32  O   UNL     1      10.159  -4.783  24.790  0.00  0.00    -0.247 OA
ENDBRANCH  21  22
ENDBRANCH  20  21
ENDBRANCH  19  20
ENDBRANCH   4  19
TORSDOF 5
ENDMDL
MODEL 8
REMARK VINA RESULT:      -7.5      2.977      3.860
REMARK  Name = 
REMARK  5 active torsions:
REMARK  status: ('A' for Active; 'I' for Inactive)
REMARK    1  A    between atoms: N_8  and  C_9
REMARK    2  A    between atoms: N_12  and  C_13
REMARK    3  A    between atoms: C_13  and  C_14
REMARK    4  A    between atoms: C_14  and  C_15
REMARK    5  A    between atoms: C_15  and  N_16
REMARK                            x       y       z     vdW  Elec       q    Type
REMARK                         _______ _______ _______ _____ _____    ______ ____
ROOT
ATOM      1  C   UNL     1       7.264   1.280  25.418  0.00  0.00    +0.095 C 
ATOM      2  C   UNL     1       8.092  -0.016  25.539  0.00  0.00    +0.040 C 
ATOM      3  C   UNL     1       8.620  -0.575  24.203  0.00  0.00    +0.086 C 
ATOM      4  N   UNL     1       7.674  -0.557  23.077  0.00  0.00    -0.302 NA
ATOM      5  C   UNL     1       7.022   0.752  22.988  0.00  0.00    +0.086 C 
ATOM      6  C   UNL     1       6.259   1.076  24.266  0.00  0.00    +0.040 C 
ENDROOT
BRANCH   1  12
ATOM      7 CL   UNL     1      12.441   5.286  22.657  0.00  0.00    -0.083 Cl
ATOM      8  C   UNL     1      11.147   4.419  23.389  0.00  0.00    +0.043 A 
ATOM      9  C   UNL     1      11.214   3.016  23.485  0.00  0.00    +0.022 A 
ATOM     10  C   UNL     1      10.177   2.276  24.083  0.00  0.00    +0.029 A 
ATOM     11  C   UNL     1       9.098   2.968  24.591  0.00  0.00    +0.070 A 
ATOM     12  N   UNL     1       7.921   2.575  25.267  0.00  0.00    -0.289 N 
ATOM     13  C   UNL     1       7.258   3.765  25.699  0.00  0.00    +0.328 A 
ATOM     14  N   UNL     1       7.961   4.842  25.166  0.00  0.00    -0.306 N 
ATOM     15  H   UNL     1       7.678   5.800  25.292  0.00  0.00    +0.170 HD
ATOM     16  O   UNL     1       6.247   3.868  26.374  0.00  0.00    -0.247 OA
ATOM     17  C   UNL     1       9.084   4.369  24.512  0.00  0.00    +0.068 A 
ATOM     18  C   UNL     1      10.062   5.121  23.901  0.00  0.00    +0.047 A 
ENDBRANCH   1  12
BRANCH   4  19
ATOM     19  C   UNL     1       6.725  -1.685  23.085  0.00  0.00    +0.086 C 
BRANCH  19  20
ATOM     20  C   UNL     1       7.091  -2.791  22.078  0.00  0.00    +0.037 C 
BRANCH  20  21
ATOM     21  C   UNL     1       7.594  -4.038  22.801  0.00  0.00    +0.128 C 
BRANCH  21  22
ATOM     22  N   UNL     1       6.579  -5.049  22.940  0.00  0.00    -0.292 N 
ATOM     23  C   UNL     1       6.080  -5.556  24.149  0.00  0.00    +0.070 A 
ATOM     24  C   UNL     1       5.005  -6.390  23.836  0.00  0.00    +0.067 A 
ATOM     25  C   UNL     1       4.247  -7.015  24.800  0.00  0.00    +0.028 A 
ATOM     26  C   UNL     1       4.616  -6.791  26.132  0.00  0.00    +0.002 A 
ATOM     27  C   UNL     1       5.712  -5.967  26.457  0.00  0.00    +0.002 A 
ATOM     28  N   UNL     1       4.859  -6.419  22.454  0.00  0.00    -0.306 N 
ATOM     29  H   UNL     1       4.163  -6.915  21.922  0.00  0.00    +0.170 HD
ATOM     30  C   UNL     1       6.463  -5.332  25.454  0.00  0.00    +0.028 A 
ATOM     31  C   UNL     1       5.826  -5.582  21.878  0.00  0.00    +0.328 A 
ATOM     32  O   UNL     1       5.951  -5.360  20.684  0.00  0.00    -0.247 OA
ENDBRANCH  21  22
ENDBRANCH  20  21
ENDBRANCH  19  20
ENDBRANCH   4  19
TORSDOF 5
ENDMDL
MODEL 9
REMARK VINA RESULT:      -7.4      3.726      8.403
REMARK  Name = 
REMARK  5 active torsions:
REMARK  status: ('A' for Active; 'I' for Inactive)
REMARK    1  A    between atoms: N_8  and  C_9
REMARK    2  A    between atoms: N_12  and  C_13
REMARK    3  A    between atoms: C_13  and  C_14
REMARK    4  A    between atoms: C_14  and  C_15
REMARK    5  A    between atoms: C_15  and  N_16
REMARK                            x       y       z     vdW  Elec       q    Type
REMARK                         _______ _______ _______ _____ _____    ______ ____
ROOT
ATOM      1  C   UNL     1       7.604  -4.589  23.690  0.00  0.00    +0.095 C 
ATOM      2  C   UNL     1       8.390  -4.598  25.017  0.00  0.00    +0.040 C 
ATOM      3  C   UNL     1       7.750  -3.777  26.154  0.00  0.00    +0.086 C 
ATOM      4  N   UNL     1       7.204  -2.465  25.776  0.00  0.00    -0.302 NA
ATOM      5  C   UNL     1       6.390  -2.589  24.564  0.00  0.00    +0.086 C 
ATOM      6  C   UNL     1       7.211  -3.126  23.400  0.00  0.00    +0.040 C 
ENDROOT
BRANCH   1  12
ATOM      7 CL   UNL     1       1.858  -7.846  26.303  0.00  0.00    -0.083 Cl
ATOM      8  C   UNL     1       3.225  -7.113  25.558  0.00  0.00    +0.043 A 
ATOM      9  C   UNL     1       4.285  -6.644  26.356  0.00  0.00    +0.022 A 
ATOM     10  C   UNL     1       5.421  -6.045  25.781  0.00  0.00    +0.029 A 
ATOM     11  C   UNL     1       5.476  -5.949  24.406  0.00  0.00    +0.070 A 
ATOM     12  N   UNL     1       6.442  -5.452  23.503  0.00  0.00    -0.289 N 
ATOM     13  C   UNL     1       6.004  -5.783  22.183  0.00  0.00    +0.328 A 
ATOM     14  N   UNL     1       4.735  -6.343  22.301  0.00  0.00    -0.306 N 
ATOM     15  H   UNL     1       4.186  -6.631  21.508  0.00  0.00    +0.170 HD
ATOM     16  O   UNL     1       6.580  -5.596  21.124  0.00  0.00    -0.247 OA
ATOM     17  C   UNL     1       4.418  -6.464  23.641  0.00  0.00    +0.068 A 
ATOM     18  C   UNL     1       3.276  -7.020  24.173  0.00  0.00    +0.047 A 
ENDBRANCH   1  12
BRANCH   4  19
ATOM     19  C   UNL     1       8.225  -1.404  25.690  0.00  0.00    +0.086 C 
BRANCH  19  20
ATOM     20  C   UNL     1       8.220  -0.461  26.906  0.00  0.00    +0.037 C 
BRANCH  20  21
ATOM     21  C   UNL     1       7.523   0.854  26.571  0.00  0.00    +0.128 C 
BRANCH  21  22
ATOM     22  N   UNL     1       7.347   1.048  25.155  0.00  0.00    -0.292 N 
ATOM     23  C   UNL     1       8.363   1.335  24.230  0.00  0.00    +0.070 A 
ATOM     24  C   UNL     1       7.791   1.281  22.958  0.00  0.00    +0.067 A 
ATOM     25  C   UNL     1       8.524   1.464  21.808  0.00  0.00    +0.028 A 
ATOM     26  C   UNL     1       9.889   1.730  21.969  0.00  0.00    +0.002 A 
ATOM     27  C   UNL     1      10.471   1.808  23.250  0.00  0.00    +0.002 A 
ATOM     28  N   UNL     1       6.439   0.990  23.096  0.00  0.00    -0.306 N 
ATOM     29  H   UNL     1       5.760   0.868  22.361  0.00  0.00    +0.170 HD
ATOM     30  C   UNL     1       9.702   1.606  24.409  0.00  0.00    +0.028 A 
ATOM     31  C   UNL     1       6.145   0.833  24.458  0.00  0.00    +0.328 A 
ATOM     32  O   UNL     1       5.052   0.542  24.919  0.00  0.00    -0.247 OA
ENDBRANCH  21  22
ENDBRANCH  20  21
ENDBRANCH  19  20
ENDBRANCH   4  19
TORSDOF 5
ENDMDL
