MODEL 1
REMARK VINA RESULT:      -4.9      0.000      0.000
REMARK  Name = 
REMARK  7 active torsions:
REMARK  status: ('A' for Active; 'I' for Inactive)
REMARK    1  A    between atoms: N_1  and  CA_2
REMARK    2  A    between atoms: CA_2  and  CB_4
REMARK    3  A    between atoms: CA_2  and  C_13
REMARK    4  A    between atoms: CB_4  and  CG_5
REMARK    5  A    between atoms: CG_5  and  CD_6
REMARK    6  A    between atoms: CD_6  and  NE_7
REMARK    7  A    between atoms: C_13  and  O_14
REMARK                            x       y       z     vdW  Elec       q    Type
REMARK                         _______ _______ _______ _____ _____    ______ ____
ROOT
ATOM      1  CG  ARG A   1       9.577   3.315  23.835  0.00  0.00    +0.039 C 
ENDROOT
BRANCH   1   2
ATOM      2  CB  ARG A   1      10.515   2.209  23.337  0.00  0.00    +0.033 C 
BRANCH   2   3
ATOM      3  CA  ARG A   1      10.034   1.503  22.062  0.00  0.00    +0.161 C 
BRANCH   3   4
ATOM      4  N   ARG A   1       8.852   2.233  21.511  0.00  0.00    -0.318 NA
ATOM      5  H1  ARG A   1       8.379   2.741  22.266  0.00  0.00    +0.119 HD
ATOM      6  H2  ARG A   1       9.189   2.969  20.883  0.00  0.00    +0.119 HD
ENDBRANCH   3   4
BRANCH   3   7
ATOM      7  C   ARG A   1       9.617   0.040  22.319  0.00  0.00    +0.322 C 
ATOM      8  OXT ARG A   1       9.120  -0.380  23.352  0.00  0.00    -0.249 OA
BRANCH   7   9
ATOM      9  O   ARG A   1       9.876  -0.749  21.246  0.00  0.00    -0.480 OA
ATOM     10  H   ARG A   1      10.548  -1.411  21.547  0.00  0.00    +0.295 HD
ENDBRANCH   7   9
ENDBRANCH   3   7
ENDBRANCH   2   3
ENDBRANCH   1   2
BRANCH   1  11
ATOM     11  CD  ARG A   1      10.240   4.687  23.757  0.00  0.00    +0.196 C 
BRANCH  11  12
ATOM     12  NE  ARG A   1      11.601   4.577  23.208  0.00  0.00    -0.279 N 
ATOM     13  HE  ARG A   1      11.790   3.839  22.538  0.00  0.00    +0.258 HD
ATOM     14  CZ  ARG A   1      12.623   5.371  23.556  0.00  0.00    +0.341 C 
ATOM     15  NH2 ARG A   1      13.823   5.187  22.998  0.00  0.00    -0.292 N 
ATOM     16 HH21 ARG A   1      14.613   5.770  23.240  0.00  0.00    +0.255 HD
ATOM     17 HH22 ARG A   1      13.987   4.459  22.314  0.00  0.00    +0.255 HD
ATOM     18  NH1 ARG A   1      12.481   6.349  24.455  0.00  0.00    -0.292 N 
ATOM     19 HH11 ARG A   1      13.254   6.946  24.717  0.00  0.00    +0.255 HD
ATOM     20 HH12 ARG A   1      11.596   6.519  24.911  0.00  0.00    +0.255 HD
ENDBRANCH  11  12
ENDBRANCH   1  11
TORSDOF 7
ENDMDL
MODEL 2
REMARK VINA RESULT:      -4.8      4.993      6.877
REMARK  Name = 
REMARK  7 active torsions:
REMARK  status: ('A' for Active; 'I' for Inactive)
REMARK    1  A    between atoms: N_1  and  CA_2
REMARK    2  A    between atoms: CA_2  and  CB_4
REMARK    3  A    between atoms: CA_2  and  C_13
REMARK    4  A    between atoms: CB_4  and  CG_5
REMARK    5  A    between atoms: CG_5  and  CD_6
REMARK    6  A    between atoms: CD_6  and  NE_7
REMARK    7  A    between atoms: C_13  and  O_14
REMARK                            x       y       z     vdW  Elec       q    Type
REMARK                         _______ _______ _______ _____ _____    ______ ____
ROOT
ATOM      1  CG  ARG A   1       9.046  -2.289  24.413  0.00  0.00    +0.039 C 
ENDROOT
BRANCH   1   2
ATOM      2  CB  ARG A   1       8.745  -3.790  24.341  0.00  0.00    +0.033 C 
BRANCH   2   3
ATOM      3  CA  ARG A   1       9.062  -4.559  25.632  0.00  0.00    +0.161 C 
BRANCH   3   4
ATOM      4  N   ARG A   1      10.142  -5.556  25.358  0.00  0.00    -0.318 NA
ATOM      5  H1  ARG A   1       9.723  -6.441  25.053  0.00  0.00    +0.119 HD
ATOM      6  H2  ARG A   1      10.679  -5.237  24.546  0.00  0.00    +0.119 HD
ENDBRANCH   3   4
BRANCH   3   7
ATOM      7  C   ARG A   1       7.838  -5.318  26.183  0.00  0.00    +0.322 C 
ATOM      8  OXT ARG A   1       6.775  -5.460  25.598  0.00  0.00    -0.249 OA
BRANCH   7   9
ATOM      9  O   ARG A   1       8.075  -5.815  27.423  0.00  0.00    -0.480 OA
ATOM     10  H   ARG A   1       7.403  -5.399  28.020  0.00  0.00    +0.295 HD
ENDBRANCH   7   9
ENDBRANCH   3   7
ENDBRANCH   2   3
ENDBRANCH   1   2
BRANCH   1  11
ATOM     11  CD  ARG A   1      10.213  -1.910  23.506  0.00  0.00    +0.196 C 
BRANCH  11  12
ATOM     12  NE  ARG A   1      10.150  -0.486  23.143  0.00  0.00    -0.279 N 
ATOM     13  HE  ARG A   1      10.352   0.202  23.860  0.00  0.00    +0.258 HD
ATOM     14  CZ  ARG A   1       9.810  -0.029  21.929  0.00  0.00    +0.341 C 
ATOM     15  NH2 ARG A   1       9.782   1.287  21.702  0.00  0.00    -0.292 N 
ATOM     16 HH21 ARG A   1       9.531   1.661  20.797  0.00  0.00    +0.255 HD
ATOM     17 HH22 ARG A   1      10.009   1.958  22.425  0.00  0.00    +0.255 HD
ATOM     18  NH1 ARG A   1       9.494  -0.856  20.929  0.00  0.00    -0.292 N 
ATOM     19 HH11 ARG A   1       9.237  -0.509  20.014  0.00  0.00    +0.255 HD
ATOM     20 HH12 ARG A   1       9.491  -1.859  21.056  0.00  0.00    +0.255 HD
ENDBRANCH  11  12
ENDBRANCH   1  11
TORSDOF 7
ENDMDL
MODEL 3
REMARK VINA RESULT:      -4.8      5.090      7.423
REMARK  Name = 
REMARK  7 active torsions:
REMARK  status: ('A' for Active; 'I' for Inactive)
REMARK    1  A    between atoms: N_1  and  CA_2
REMARK    2  A    between atoms: CA_2  and  CB_4
REMARK    3  A    between atoms: CA_2  and  C_13
REMARK    4  A    between atoms: CB_4  and  CG_5
REMARK    5  A    between atoms: CG_5  and  CD_6
REMARK    6  A    between atoms: CD_6  and  NE_7
REMARK    7  A    between atoms: C_13  and  O_14
REMARK                            x       y       z     vdW  Elec       q    Type
REMARK                         _______ _______ _______ _____ _____    ______ ____
ROOT
ATOM      1  CG  ARG A   1       8.543  -2.550  23.304  0.00  0.00    +0.039 C 
ENDROOT
BRANCH   1   2
ATOM      2  CB  ARG A   1       8.341  -1.037  23.157  0.00  0.00    +0.033 C 
BRANCH   2   3
ATOM      3  CA  ARG A   1       9.080  -0.417  21.963  0.00  0.00    +0.161 C 
BRANCH   3   4
ATOM      4  N   ARG A   1      10.060  -1.408  21.422  0.00  0.00    -0.318 NA
ATOM      5  H1  ARG A   1      10.486  -1.928  22.197  0.00  0.00    +0.119 HD
ATOM      6  H2  ARG A   1       9.545  -2.118  20.894  0.00  0.00    +0.119 HD
ENDBRANCH   3   4
BRANCH   3   7
ATOM      7  C   ARG A   1       9.854   0.862  22.347  0.00  0.00    +0.322 C 
ATOM      8  OXT ARG A   1      10.512   1.008  23.365  0.00  0.00    -0.249 OA
BRANCH   7   9
ATOM      9  O   ARG A   1       9.713   1.831  21.408  0.00  0.00    -0.480 OA
ATOM     10  H   ARG A   1       9.060   1.484  20.750  0.00  0.00    +0.295 HD
ENDBRANCH   7   9
ENDBRANCH   3   7
ENDBRANCH   2   3
ENDBRANCH   1   2
BRANCH   1  11
ATOM     11  CD  ARG A   1       9.288  -2.890  24.592  0.00  0.00    +0.196 C 
BRANCH  11  12
ATOM     12  NE  ARG A   1       8.501  -3.818  25.420  0.00  0.00    -0.279 N 
ATOM     13  HE  ARG A   1       7.552  -3.556  25.665  0.00  0.00    +0.258 HD
ATOM     14  CZ  ARG A   1       8.964  -4.980  25.902  0.00  0.00    +0.341 C 
ATOM     15  NH2 ARG A   1       8.167  -5.751  26.646  0.00  0.00    -0.292 N 
ATOM     16 HH21 ARG A   1       8.487  -6.633  27.023  0.00  0.00    +0.255 HD
ATOM     17 HH22 ARG A   1       7.214  -5.483  26.862  0.00  0.00    +0.255 HD
ATOM     18  NH1 ARG A   1      10.210  -5.395  25.662  0.00  0.00    -0.292 N 
ATOM     19 HH11 ARG A   1      10.558  -6.272  26.028  0.00  0.00    +0.255 HD
ATOM     20 HH12 ARG A   1      10.853  -4.841  25.113  0.00  0.00    +0.255 HD
ENDBRANCH  11  12
ENDBRANCH   1  11
TORSDOF 7
ENDMDL
MODEL 4
REMARK VINA RESULT:      -4.7      5.387      7.771
REMARK  Name = 
REMARK  7 active torsions:
REMARK  status: ('A' for Active; 'I' for Inactive)
REMARK    1  A    between atoms: N_1  and  CA_2
REMARK    2  A    between atoms: CA_2  and  CB_4
REMARK    3  A    between atoms: CA_2  and  C_13
REMARK    4  A    between atoms: CB_4  and  CG_5
REMARK    5  A    between atoms: CG_5  and  CD_6
REMARK    6  A    between atoms: CD_6  and  NE_7
REMARK    7  A    between atoms: C_13  and  O_14
REMARK                            x       y       z     vdW  Elec       q    Type
REMARK                         _______ _______ _______ _____ _____    ______ ____
ROOT
ATOM      1  CG  ARG A   1       6.964  -2.666  24.582  0.00  0.00    +0.039 C 
ENDROOT
BRANCH   1   2
ATOM      2  CB  ARG A   1       7.278  -1.990  23.242  0.00  0.00    +0.033 C 
BRANCH   2   3
ATOM      3  CA  ARG A   1       8.536  -1.110  23.262  0.00  0.00    +0.161 C 
BRANCH   3   4
ATOM      4  N   ARG A   1       8.350   0.035  22.318  0.00  0.00    -0.318 NA
ATOM      5  H1  ARG A   1       9.101   0.030  21.620  0.00  0.00    +0.119 HD
ATOM      6  H2  ARG A   1       7.498  -0.128  21.775  0.00  0.00    +0.119 HD
ENDBRANCH   3   4
BRANCH   3   7
ATOM      7  C   ARG A   1       9.803  -1.881  22.835  0.00  0.00    +0.322 C 
ATOM      8  OXT ARG A   1      10.396  -2.696  23.524  0.00  0.00    -0.249 OA
BRANCH   7   9
ATOM      9  O   ARG A   1      10.199  -1.537  21.584  0.00  0.00    -0.480 OA
ATOM     10  H   ARG A   1       9.525  -1.920  20.967  0.00  0.00    +0.295 HD
ENDBRANCH   7   9
ENDBRANCH   3   7
ENDBRANCH   2   3
ENDBRANCH   1   2
BRANCH   1  11
ATOM     11  CD  ARG A   1       7.054  -4.185  24.475  0.00  0.00    +0.196 C 
BRANCH  11  12
ATOM     12  NE  ARG A   1       8.451  -4.633  24.581  0.00  0.00    -0.279 N 
ATOM     13  HE  ARG A   1       9.085  -4.417  23.819  0.00  0.00    +0.258 HD
ATOM     14  CZ  ARG A   1       8.942  -5.340  25.610  0.00  0.00    +0.341 C 
ATOM     15  NH2 ARG A   1      10.228  -5.699  25.610  0.00  0.00    -0.292 N 
ATOM     16 HH21 ARG A   1      10.627  -6.232  26.372  0.00  0.00    +0.255 HD
ATOM     17 HH22 ARG A   1      10.851  -5.454  24.850  0.00  0.00    +0.255 HD
ATOM     18  NH1 ARG A   1       8.178  -5.702  26.644  0.00  0.00    -0.292 N 
ATOM     19 HH11 ARG A   1       8.550  -6.236  27.418  0.00  0.00    +0.255 HD
ATOM     20 HH12 ARG A   1       7.197  -5.462  26.683  0.00  0.00    +0.255 HD
ENDBRANCH  11  12
ENDBRANCH   1  11
TORSDOF 7
ENDMDL
MODEL 5
REMARK VINA RESULT:      -4.6      7.561      8.759
REMARK  Name = 
REMARK  7 active torsions:
REMARK  status: ('A' for Active; 'I' for Inactive)
REMARK    1  A    between atoms: N_1  and  CA_2
REMARK    2  A    between atoms: CA_2  and  CB_4
REMARK    3  A    between atoms: CA_2  and  C_13
REMARK    4  A    between atoms: CB_4  and  CG_5
REMARK    5  A    between atoms: CG_5  and  CD_6
REMARK    6  A    between atoms: CD_6  and  NE_7
REMARK    7  A    between atoms: C_13  and  O_14
REMARK                            x       y       z     vdW  Elec       q    Type
REMARK                         _______ _______ _______ _____ _____    ______ ____
ROOT
ATOM      1  CG  ARG A   1       9.490  -2.815  24.117  0.00  0.00    +0.039 C 
ENDROOT
BRANCH   1   2
ATOM      2  CB  ARG A   1       8.782  -3.136  25.439  0.00  0.00    +0.033 C 
BRANCH   2   3
ATOM      3  CA  ARG A   1       9.089  -4.534  25.994  0.00  0.00    +0.161 C 
BRANCH   3   4
ATOM      4  N   ARG A   1       9.893  -5.297  24.991  0.00  0.00    -0.318 NA
ATOM      5  H1  ARG A   1       9.785  -6.303  25.158  0.00  0.00    +0.119 HD
ATOM      6  H2  ARG A   1       9.479  -5.149  24.065  0.00  0.00    +0.119 HD
ENDBRANCH   3   4
BRANCH   3   7
ATOM      7  C   ARG A   1       7.811  -5.343  26.299  0.00  0.00    +0.322 C 
ATOM      8  OXT ARG A   1       6.863  -5.474  25.541  0.00  0.00    -0.249 OA
BRANCH   7   9
ATOM      9  O   ARG A   1       7.855  -5.898  27.537  0.00  0.00    -0.480 OA
ATOM     10  H   ARG A   1       7.966  -5.146  28.172  0.00  0.00    +0.295 HD
ENDBRANCH   7   9
ENDBRANCH   3   7
ENDBRANCH   2   3
ENDBRANCH   1   2
BRANCH   1  11
ATOM     11  CD  ARG A   1       8.495  -2.688  22.968  0.00  0.00    +0.196 C 
BRANCH  11  12
ATOM     12  NE  ARG A   1       7.580  -3.840  22.940  0.00  0.00    -0.279 N 
ATOM     13  HE  ARG A   1       7.963  -4.762  23.120  0.00  0.00    +0.258 HD
ATOM     14  CZ  ARG A   1       6.271  -3.759  22.662  0.00  0.00    +0.341 C 
ATOM     15  NH2 ARG A   1       5.526  -4.868  22.662  0.00  0.00    -0.292 N 
ATOM     16 HH21 ARG A   1       4.537  -4.839  22.456  0.00  0.00    +0.255 HD
ATOM     17 HH22 ARG A   1       5.923  -5.777  22.865  0.00  0.00    +0.255 HD
ATOM     18  NH1 ARG A   1       5.682  -2.595  22.379  0.00  0.00    -0.292 N 
ATOM     19 HH11 ARG A   1       4.694  -2.536  22.168  0.00  0.00    +0.255 HD
ATOM     20 HH12 ARG A   1       6.206  -1.731  22.356  0.00  0.00    +0.255 HD
ENDBRANCH  11  12
ENDBRANCH   1  11
TORSDOF 7
ENDMDL
MODEL 6
REMARK VINA RESULT:      -4.6      4.191      5.895
REMARK  Name = 
REMARK  7 active torsions:
REMARK  status: ('A' for Active; 'I' for Inactive)
REMARK    1  A    between atoms: N_1  and  CA_2
REMARK    2  A    between atoms: CA_2  and  CB_4
REMARK    3  A    between atoms: CA_2  and  C_13
REMARK    4  A    between atoms: CB_4  and  CG_5
REMARK    5  A    between atoms: CG_5  and  CD_6
REMARK    6  A    between atoms: CD_6  and  NE_7
REMARK    7  A    between atoms: C_13  and  O_14
REMARK                            x       y       z     vdW  Elec       q    Type
REMARK                         _______ _______ _______ _____ _____    ______ ____
ROOT
ATOM      1  CG  ARG A   1       8.699  -1.985  23.027  0.00  0.00    +0.039 C 
ENDROOT
BRANCH   1   2
ATOM      2  CB  ARG A   1       9.025  -2.614  24.387  0.00  0.00    +0.033 C 
BRANCH   2   3
ATOM      3  CA  ARG A   1       8.777  -4.127  24.456  0.00  0.00    +0.161 C 
BRANCH   3   4
ATOM      4  N   ARG A   1       7.305  -4.386  24.427  0.00  0.00    -0.318 NA
ATOM      5  H1  ARG A   1       7.097  -5.110  23.731  0.00  0.00    +0.119 HD
ATOM      6  H2  ARG A   1       7.033  -4.808  25.320  0.00  0.00    +0.119 HD
ENDBRANCH   3   4
BRANCH   3   7
ATOM      7  C   ARG A   1       9.350  -4.761  25.740  0.00  0.00    +0.322 C 
ATOM      8  OXT ARG A   1       8.907  -4.595  26.866  0.00  0.00    -0.249 OA
BRANCH   7   9
ATOM      9  O   ARG A   1      10.431  -5.536  25.475  0.00  0.00    -0.480 OA
ATOM     10  H   ARG A   1      11.211  -4.925  25.461  0.00  0.00    +0.295 HD
ENDBRANCH   7   9
ENDBRANCH   3   7
ENDBRANCH   2   3
ENDBRANCH   1   2
BRANCH   1  11
ATOM     11  CD  ARG A   1       9.967  -1.553  22.295  0.00  0.00    +0.196 C 
BRANCH  11  12
ATOM     12  NE  ARG A   1       9.760  -0.267  21.610  0.00  0.00    -0.279 N 
ATOM     13  HE  ARG A   1       9.444  -0.282  20.646  0.00  0.00    +0.258 HD
ATOM     14  CZ  ARG A   1       9.993   0.931  22.165  0.00  0.00    +0.341 C 
ATOM     15  NH2 ARG A   1       9.774   2.041  21.455  0.00  0.00    -0.292 N 
ATOM     16 HH21 ARG A   1       9.940   2.959  21.846  0.00  0.00    +0.255 HD
ATOM     17 HH22 ARG A   1       9.436   2.007  20.501  0.00  0.00    +0.255 HD
ATOM     18  NH1 ARG A   1      10.444   1.052  23.416  0.00  0.00    -0.292 N 
ATOM     19 HH11 ARG A   1      10.619   1.957  23.832  0.00  0.00    +0.255 HD
ATOM     20 HH12 ARG A   1      10.634   0.240  23.988  0.00  0.00    +0.255 HD
ENDBRANCH  11  12
ENDBRANCH   1  11
TORSDOF 7
ENDMDL
MODEL 7
REMARK VINA RESULT:      -4.5      7.554      8.666
REMARK  Name = 
REMARK  7 active torsions:
REMARK  status: ('A' for Active; 'I' for Inactive)
REMARK    1  A    between atoms: N_1  and  CA_2
REMARK    2  A    between atoms: CA_2  and  CB_4
REMARK    3  A    between atoms: CA_2  and  C_13
REMARK    4  A    between atoms: CB_4  and  CG_5
REMARK    5  A    between atoms: CG_5  and  CD_6
REMARK    6  A    between atoms: CD_6  and  NE_7
REMARK    7  A    between atoms: C_13  and  O_14
REMARK                            x       y       z     vdW  Elec       q    Type
REMARK                         _______ _______ _______ _____ _____    ______ ____
ROOT
ATOM      1  CG  ARG A   1       8.487  -3.044  23.453  0.00  0.00    +0.039 C 
ENDROOT
BRANCH   1   2
ATOM      2  CB  ARG A   1       6.998  -3.405  23.502  0.00  0.00    +0.033 C 
BRANCH   2   3
ATOM      3  CA  ARG A   1       6.667  -4.792  22.933  0.00  0.00    +0.161 C 
BRANCH   3   4
ATOM      4  N   ARG A   1       7.919  -5.605  22.859  0.00  0.00    -0.318 NA
ATOM      5  H1  ARG A   1       8.035  -6.138  23.728  0.00  0.00    +0.119 HD
ATOM      6  H2  ARG A   1       7.798  -6.322  22.138  0.00  0.00    +0.119 HD
ENDBRANCH   3   4
BRANCH   3   7
ATOM      7  C   ARG A   1       6.060  -4.720  21.516  0.00  0.00    +0.322 C 
ATOM      8  OXT ARG A   1       6.029  -5.642  20.715  0.00  0.00    -0.249 OA
BRANCH   7   9
ATOM      9  O   ARG A   1       5.560  -3.487  21.249  0.00  0.00    -0.480 OA
ATOM     10  H   ARG A   1       5.742  -3.318  20.290  0.00  0.00    +0.295 HD
ENDBRANCH   7   9
ENDBRANCH   3   7
ENDBRANCH   2   3
ENDBRANCH   1   2
BRANCH   1  11
ATOM     11  CD  ARG A   1       9.071  -2.895  24.855  0.00  0.00    +0.196 C 
BRANCH  11  12
ATOM     12  NE  ARG A   1       8.401  -3.805  25.798  0.00  0.00    -0.279 N 
ATOM     13  HE  ARG A   1       7.562  -3.479  26.266  0.00  0.00    +0.258 HD
ATOM     14  CZ  ARG A   1       8.844  -5.032  26.107  0.00  0.00    +0.341 C 
ATOM     15  NH2 ARG A   1       8.161  -5.779  26.979  0.00  0.00    -0.292 N 
ATOM     16 HH21 ARG A   1       8.469  -6.709  27.232  0.00  0.00    +0.255 HD
ATOM     17 HH22 ARG A   1       7.312  -5.446  27.419  0.00  0.00    +0.255 HD
ATOM     18  NH1 ARG A   1       9.957  -5.535  25.570  0.00  0.00    -0.292 N 
ATOM     19 HH11 ARG A   1      10.290  -6.461  25.806  0.00  0.00    +0.255 HD
ATOM     20 HH12 ARG A   1      10.512  -5.003  24.914  0.00  0.00    +0.255 HD
ENDBRANCH  11  12
ENDBRANCH   1  11
TORSDOF 7
ENDMDL
MODEL 8
REMARK VINA RESULT:      -4.5      2.426      3.148
REMARK  Name = 
REMARK  7 active torsions:
REMARK  status: ('A' for Active; 'I' for Inactive)
REMARK    1  A    between atoms: N_1  and  CA_2
REMARK    2  A    between atoms: CA_2  and  CB_4
REMARK    3  A    between atoms: CA_2  and  C_13
REMARK    4  A    between atoms: CB_4  and  CG_5
REMARK    5  A    between atoms: CG_5  and  CD_6
REMARK    6  A    between atoms: CD_6  and  NE_7
REMARK    7  A    between atoms: C_13  and  O_14
REMARK                            x       y       z     vdW  Elec       q    Type
REMARK                         _______ _______ _______ _____ _____    ______ ____
ROOT
ATOM      1  CG  ARG A   1       8.974   2.724  24.083  0.00  0.00    +0.039 C 
ENDROOT
BRANCH   1   2
ATOM      2  CB  ARG A   1      10.296   2.187  23.524  0.00  0.00    +0.033 C 
BRANCH   2   3
ATOM      3  CA  ARG A   1      10.166   1.487  22.164  0.00  0.00    +0.161 C 
BRANCH   3   4
ATOM      4  N   ARG A   1       9.035   2.100  21.401  0.00  0.00    -0.318 NA
ATOM      5  H1  ARG A   1       8.456   1.359  20.992  0.00  0.00    +0.119 HD
ATOM      6  H2  ARG A   1       8.413   2.569  22.066  0.00  0.00    +0.119 HD
ENDBRANCH   3   4
BRANCH   3   7
ATOM      7  C   ARG A   1       9.888  -0.024  22.301  0.00  0.00    +0.322 C 
ATOM      8  OXT ARG A   1       9.826  -0.636  23.356  0.00  0.00    -0.249 OA
BRANCH   7   9
ATOM      9  O   ARG A   1       9.725  -0.614  21.090  0.00  0.00    -0.480 OA
ATOM     10  H   ARG A   1       8.846  -0.308  20.751  0.00  0.00    +0.295 HD
ENDBRANCH   7   9
ENDBRANCH   3   7
ENDBRANCH   2   3
ENDBRANCH   1   2
BRANCH   1  11
ATOM     11  CD  ARG A   1       9.014   4.241  24.250  0.00  0.00    +0.196 C 
BRANCH  11  12
ATOM     12  NE  ARG A   1       8.753   4.912  22.967  0.00  0.00    -0.279 N 
ATOM     13  HE  ARG A   1       9.509   4.972  22.294  0.00  0.00    +0.258 HD
ATOM     14  CZ  ARG A   1       7.585   5.483  22.636  0.00  0.00    +0.341 C 
ATOM     15  NH2 ARG A   1       7.452   6.070  21.443  0.00  0.00    -0.292 N 
ATOM     16 HH21 ARG A   1       6.584   6.508  21.165  0.00  0.00    +0.255 HD
ATOM     17 HH22 ARG A   1       8.212   6.100  20.775  0.00  0.00    +0.255 HD
ATOM     18  NH1 ARG A   1       6.542   5.486  23.469  0.00  0.00    -0.292 N 
ATOM     19 HH11 ARG A   1       5.662   5.917  23.217  0.00  0.00    +0.255 HD
ATOM     20 HH12 ARG A   1       6.599   5.063  24.385  0.00  0.00    +0.255 HD
ENDBRANCH  11  12
ENDBRANCH   1  11
TORSDOF 7
ENDMDL
MODEL 9
REMARK VINA RESULT:      -4.5      2.300      3.538
REMARK  Name = 
REMARK  7 active torsions:
REMARK  status: ('A' for Active; 'I' for Inactive)
REMARK    1  A    between atoms: N_1  and  CA_2
REMARK    2  A    between atoms: CA_2  and  CB_4
REMARK    3  A    between atoms: CA_2  and  C_13
REMARK    4  A    between atoms: CB_4  and  CG_5
REMARK    5  A    between atoms: CG_5  and  CD_6
REMARK    6  A    between atoms: CD_6  and  NE_7
REMARK    7  A    between atoms: C_13  and  O_14
REMARK                            x       y       z     vdW  Elec       q    Type
REMARK                         _______ _______ _______ _____ _____    ______ ____
ROOT
ATOM      1  CG  ARG A   1       9.700  -0.113  25.175  0.00  0.00    +0.039 C 
ENDROOT
BRANCH   1   2
ATOM      2  CB  ARG A   1       8.615  -1.020  24.584  0.00  0.00    +0.033 C 
BRANCH   2   3
ATOM      3  CA  ARG A   1       8.280  -0.727  23.115  0.00  0.00    +0.161 C 
BRANCH   3   4
ATOM      4  N   ARG A   1       6.824  -0.412  22.995  0.00  0.00    -0.318 NA
ATOM      5  H1  ARG A   1       6.653   0.549  23.310  0.00  0.00    +0.119 HD
ATOM      6  H2  ARG A   1       6.576  -0.400  22.001  0.00  0.00    +0.119 HD
ENDBRANCH   3   4
BRANCH   3   7
ATOM      7  C   ARG A   1       8.589  -1.923  22.190  0.00  0.00    +0.322 C 
ATOM      8  OXT ARG A   1       7.914  -2.937  22.100  0.00  0.00    -0.249 OA
BRANCH   7   9
ATOM      9  O   ARG A   1       9.725  -1.721  21.476  0.00  0.00    -0.480 OA
ATOM     10  H   ARG A   1      10.389  -1.355  22.112  0.00  0.00    +0.295 HD
ENDBRANCH   7   9
ENDBRANCH   3   7
ENDBRANCH   2   3
ENDBRANCH   1   2
BRANCH   1  11
ATOM     11  CD  ARG A   1      10.636   0.415  24.091  0.00  0.00    +0.196 C 
BRANCH  11  12
ATOM     12  NE  ARG A   1      10.661   1.887  24.096  0.00  0.00    -0.279 N 
ATOM     13  HE  ARG A   1      10.851   2.361  24.972  0.00  0.00    +0.258 HD
ATOM     14  CZ  ARG A   1      10.417   2.650  23.021  0.00  0.00    +0.341 C 
ATOM     15  NH2 ARG A   1      10.463   3.980  23.132  0.00  0.00    -0.292 N 
ATOM     16 HH21 ARG A   1      10.284   4.583  22.340  0.00  0.00    +0.255 HD
ATOM     17 HH22 ARG A   1      10.678   4.436  24.011  0.00  0.00    +0.255 HD
ATOM     18  NH1 ARG A   1      10.123   2.119  21.832  0.00  0.00    -0.292 N 
ATOM     19 HH11 ARG A   1       9.938   2.697  21.023  0.00  0.00    +0.255 HD
ATOM     20 HH12 ARG A   1      10.065   1.118  21.702  0.00  0.00    +0.255 HD
ENDBRANCH  11  12
ENDBRANCH   1  11
TORSDOF 7
ENDMDL
