MODEL 1
REMARK VINA RESULT:      -5.0      0.000      0.000
REMARK  Name = 
REMARK  5 active torsions:
REMARK  status: ('A' for Active; 'I' for Inactive)
REMARK    1  A    between atoms: C_1  and  N_2
REMARK    2  A    between atoms: N_2  and  C_3
REMARK    3  A    between atoms: N_2  and  N_4
REMARK    4  A    between atoms: N_5  and  C_6
REMARK    5  A    between atoms: C_7  and  C_11
REMARK                            x       y       z     vdW  Elec       q    Type
REMARK                         _______ _______ _______ _____ _____    ______ ____
ROOT
ATOM      1  C   UNL     1      10.426   1.395  23.959  0.00  0.00    +0.186 A 
ATOM      2  N   UNL     1      10.399   0.814  25.206  0.00  0.00    -0.328 N 
ATOM      3  H   UNL     1      10.833   1.212  26.025  0.00  0.00    +0.168 HD
ATOM      4  C   UNL     1       9.710  -0.359  25.131  0.00  0.00    +0.199 A 
ATOM      5  N   UNL     1       9.272  -0.579  23.913  0.00  0.00    -0.229 NA
ATOM      6  C   UNL     1       9.711   0.514  23.159  0.00  0.00    +0.171 A 
ENDROOT
BRANCH   6   7
ATOM      7  C   UNL     1       9.428   0.648  21.737  0.00  0.00    +0.264 C 
ATOM      8  O   UNL     1       9.318  -0.282  20.947  0.00  0.00    -0.269 OA
ATOM      9  N   UNL     1       9.286   1.947  21.332  0.00  0.00    -0.324 N 
ATOM     10  H   UNL     1       9.091   2.146  20.363  0.00  0.00    +0.145 HD
ATOM     11  H   UNL     1       9.383   2.690  22.011  0.00  0.00    +0.145 HD
ENDBRANCH   6   7
BRANCH   1  13
ATOM     12  N   UNL     1      10.288   3.582  23.726  0.00  0.00    -0.078 NA
ATOM     13  N   UNL     1      11.034   2.583  23.722  0.00  0.00    -0.113 NA
BRANCH  12  15
ATOM     14  C   UNL     1      10.289   5.935  24.043  0.00  0.00    +0.153 C 
ATOM     15  N   UNL     1      10.945   4.765  23.492  0.00  0.00    -0.243 N 
ATOM     16  C   UNL     1      12.392   4.785  23.316  0.00  0.00    +0.153 C 
ENDBRANCH  12  15
ENDBRANCH   1  13
TORSDOF 3
ENDMDL
MODEL 2
REMARK VINA RESULT:      -4.7      3.210      6.079
REMARK  Name = 
REMARK  5 active torsions:
REMARK  status: ('A' for Active; 'I' for Inactive)
REMARK    1  A    between atoms: C_1  and  N_2
REMARK    2  A    between atoms: N_2  and  C_3
REMARK    3  A    between atoms: N_2  and  N_4
REMARK    4  A    between atoms: N_5  and  C_6
REMARK    5  A    between atoms: C_7  and  C_11
REMARK                            x       y       z     vdW  Elec       q    Type
REMARK                         _______ _______ _______ _____ _____    ______ ____
ROOT
ATOM      1  C   UNL     1       9.818  -1.651  23.144  0.00  0.00    +0.186 A 
ATOM      2  N   UNL     1       9.413  -1.732  21.831  0.00  0.00    -0.328 N 
ATOM      3  H   UNL     1       9.107  -2.583  21.385  0.00  0.00    +0.168 HD
ATOM      4  C   UNL     1       9.507  -0.497  21.264  0.00  0.00    +0.199 A 
ATOM      5  N   UNL     1       9.936   0.394  22.126  0.00  0.00    -0.229 NA
ATOM      6  C   UNL     1      10.138  -0.311  23.317  0.00  0.00    +0.171 A 
ENDROOT
BRANCH   6   7
ATOM      7  C   UNL     1      10.621   0.328  24.534  0.00  0.00    +0.264 C 
ATOM      8  O   UNL     1      11.629   1.019  24.617  0.00  0.00    -0.269 OA
ATOM      9  N   UNL     1       9.829   0.090  25.623  0.00  0.00    -0.324 N 
ATOM     10  H   UNL     1      10.081   0.486  26.515  0.00  0.00    +0.145 HD
ATOM     11  H   UNL     1       9.004  -0.486  25.518  0.00  0.00    +0.145 HD
ENDBRANCH   6   7
BRANCH   1  13
ATOM     12  N   UNL     1       8.851  -2.812  24.748  0.00  0.00    -0.078 NA
ATOM     13  N   UNL     1       9.823  -2.724  23.972  0.00  0.00    -0.113 NA
BRANCH  12  15
ATOM     14  C   UNL     1       7.879  -3.935  26.602  0.00  0.00    +0.153 C 
ATOM     15  N   UNL     1       8.891  -3.917  25.562  0.00  0.00    -0.243 N 
ATOM     16  C   UNL     1       9.410  -5.185  25.062  0.00  0.00    +0.153 C 
ENDBRANCH  12  15
ENDBRANCH   1  13
TORSDOF 3
ENDMDL
MODEL 3
REMARK VINA RESULT:      -4.7      3.872      5.699
REMARK  Name = 
REMARK  5 active torsions:
REMARK  status: ('A' for Active; 'I' for Inactive)
REMARK    1  A    between atoms: C_1  and  N_2
REMARK    2  A    between atoms: N_2  and  C_3
REMARK    3  A    between atoms: N_2  and  N_4
REMARK    4  A    between atoms: N_5  and  C_6
REMARK    5  A    between atoms: C_7  and  C_11
REMARK                            x       y       z     vdW  Elec       q    Type
REMARK                         _______ _______ _______ _____ _____    ______ ____
ROOT
ATOM      1  C   UNL     1       8.803  -3.123  23.822  0.00  0.00    +0.186 A 
ATOM      2  N   UNL     1       7.991  -3.258  22.720  0.00  0.00    -0.328 N 
ATOM      3  H   UNL     1       7.901  -2.562  21.994  0.00  0.00    +0.168 HD
ATOM      4  C   UNL     1       7.349  -4.457  22.790  0.00  0.00    +0.199 A 
ATOM      5  N   UNL     1       7.698  -5.125  23.864  0.00  0.00    -0.229 NA
ATOM      6  C   UNL     1       8.614  -4.303  24.529  0.00  0.00    +0.171 A 
ENDROOT
BRANCH   6   7
ATOM      7  C   UNL     1       9.245  -4.687  25.784  0.00  0.00    +0.264 C 
ATOM      8  O   UNL     1       8.907  -4.294  26.895  0.00  0.00    -0.269 OA
ATOM      9  N   UNL     1      10.286  -5.559  25.624  0.00  0.00    -0.324 N 
ATOM     10  H   UNL     1      10.791  -5.883  26.435  0.00  0.00    +0.145 HD
ATOM     11  H   UNL     1      10.538  -5.863  24.693  0.00  0.00    +0.145 HD
ENDBRANCH   6   7
BRANCH   1  13
ATOM     12  N   UNL     1       9.410  -1.089  23.226  0.00  0.00    -0.078 NA
ATOM     13  N   UNL     1       9.582  -2.032  24.024  0.00  0.00    -0.113 NA
BRANCH  12  15
ATOM     14  C   UNL     1      10.078   1.073  22.507  0.00  0.00    +0.153 C 
ATOM     15  N   UNL     1      10.209  -0.001  23.473  0.00  0.00    -0.243 N 
ATOM     16  C   UNL     1      10.619   0.322  24.836  0.00  0.00    +0.153 C 
ENDBRANCH  12  15
ENDBRANCH   1  13
TORSDOF 3
ENDMDL
MODEL 4
REMARK VINA RESULT:      -4.7      1.115      1.571
REMARK  Name = 
REMARK  5 active torsions:
REMARK  status: ('A' for Active; 'I' for Inactive)
REMARK    1  A    between atoms: C_1  and  N_2
REMARK    2  A    between atoms: N_2  and  C_3
REMARK    3  A    between atoms: N_2  and  N_4
REMARK    4  A    between atoms: N_5  and  C_6
REMARK    5  A    between atoms: C_7  and  C_11
REMARK                            x       y       z     vdW  Elec       q    Type
REMARK                         _______ _______ _______ _____ _____    ______ ____
ROOT
ATOM      1  C   UNL     1       9.216   1.646  24.261  0.00  0.00    +0.186 A 
ATOM      2  N   UNL     1       9.326   1.013  25.477  0.00  0.00    -0.328 N 
ATOM      3  H   UNL     1       9.143   1.455  26.365  0.00  0.00    +0.168 HD
ATOM      4  C   UNL     1       9.721  -0.274  25.270  0.00  0.00    +0.199 A 
ATOM      5  N   UNL     1       9.866  -0.530  23.991  0.00  0.00    -0.229 NA
ATOM      6  C   UNL     1       9.552   0.666  23.337  0.00  0.00    +0.171 A 
ENDROOT
BRANCH   6   7
ATOM      7  C   UNL     1       9.593   0.801  21.887  0.00  0.00    +0.264 C 
ATOM      8  O   UNL     1       9.422  -0.112  21.088  0.00  0.00    -0.269 OA
ATOM      9  N   UNL     1       9.846   2.077  21.467  0.00  0.00    -0.324 N 
ATOM     10  H   UNL     1       9.898   2.273  20.480  0.00  0.00    +0.145 HD
ATOM     11  H   UNL     1       9.982   2.806  22.156  0.00  0.00    +0.145 HD
ENDBRANCH   6   7
BRANCH   1  13
ATOM     12  N   UNL     1       9.745   3.767  23.976  0.00  0.00    -0.078 NA
ATOM     13  N   UNL     1       8.827   2.939  24.146  0.00  0.00    -0.113 NA
BRANCH  12  15
ATOM     14  C   UNL     1      10.366   6.042  23.704  0.00  0.00    +0.153 C 
ATOM     15  N   UNL     1       9.307   5.062  23.854  0.00  0.00    -0.243 N 
ATOM     16  C   UNL     1       7.994   5.349  23.286  0.00  0.00    +0.153 C 
ENDBRANCH  12  15
ENDBRANCH   1  13
TORSDOF 3
ENDMDL
MODEL 5
REMARK VINA RESULT:      -4.6      1.505      2.797
REMARK  Name = 
REMARK  5 active torsions:
REMARK  status: ('A' for Active; 'I' for Inactive)
REMARK    1  A    between atoms: C_1  and  N_2
REMARK    2  A    between atoms: N_2  and  C_3
REMARK    3  A    between atoms: N_2  and  N_4
REMARK    4  A    between atoms: N_5  and  C_6
REMARK    5  A    between atoms: C_7  and  C_11
REMARK                            x       y       z     vdW  Elec       q    Type
REMARK                         _______ _______ _______ _____ _____    ______ ____
ROOT
ATOM      1  C   UNL     1       9.741   1.976  22.729  0.00  0.00    +0.186 A 
ATOM      2  N   UNL     1       9.367   1.796  21.417  0.00  0.00    -0.328 N 
ATOM      3  H   UNL     1       9.322   2.538  20.735  0.00  0.00    +0.168 HD
ATOM      4  C   UNL     1       9.074   0.481  21.220  0.00  0.00    +0.199 A 
ATOM      5  N   UNL     1       9.242  -0.218  22.318  0.00  0.00    -0.229 NA
ATOM      6  C   UNL     1       9.663   0.705  23.281  0.00  0.00    +0.171 A 
ENDROOT
BRANCH   6   7
ATOM      7  C   UNL     1       9.960   0.322  24.655  0.00  0.00    +0.264 C 
ATOM      8  O   UNL     1       9.215  -0.320  25.386  0.00  0.00    -0.269 OA
ATOM      9  N   UNL     1      11.185   0.751  25.085  0.00  0.00    -0.324 N 
ATOM     10  H   UNL     1      11.482   0.539  26.025  0.00  0.00    +0.145 HD
ATOM     11  H   UNL     1      11.773   1.279  24.454  0.00  0.00    +0.145 HD
ENDBRANCH   6   7
BRANCH   1  13
ATOM     12  N   UNL     1      11.314   3.469  23.123  0.00  0.00    -0.078 NA
ATOM     13  N   UNL     1      10.104   3.185  23.224  0.00  0.00    -0.113 NA
BRANCH  12  15
ATOM     14  C   UNL     1      12.958   5.177  23.257  0.00  0.00    +0.153 C 
ATOM     15  N   UNL     1      11.637   4.704  23.626  0.00  0.00    -0.243 N 
ATOM     16  C   UNL     1      10.594   5.682  23.914  0.00  0.00    +0.153 C 
ENDBRANCH  12  15
ENDBRANCH   1  13
TORSDOF 3
ENDMDL
MODEL 6
REMARK VINA RESULT:      -4.6      4.933      7.118
REMARK  Name = 
REMARK  5 active torsions:
REMARK  status: ('A' for Active; 'I' for Inactive)
REMARK    1  A    between atoms: C_1  and  N_2
REMARK    2  A    between atoms: N_2  and  C_3
REMARK    3  A    between atoms: N_2  and  N_4
REMARK    4  A    between atoms: N_5  and  C_6
REMARK    5  A    between atoms: C_7  and  C_11
REMARK                            x       y       z     vdW  Elec       q    Type
REMARK                         _______ _______ _______ _____ _____    ______ ____
ROOT
ATOM      1  C   UNL     1       7.096  -3.880  24.747  0.00  0.00    +0.186 A 
ATOM      2  N   UNL     1       6.076  -4.063  23.843  0.00  0.00    -0.328 N 
ATOM      3  H   UNL     1       5.873  -3.431  23.083  0.00  0.00    +0.168 HD
ATOM      4  C   UNL     1       5.409  -5.209  24.157  0.00  0.00    +0.199 A 
ATOM      5  N   UNL     1       5.936  -5.797  25.205  0.00  0.00    -0.229 NA
ATOM      6  C   UNL     1       7.001  -4.977  25.592  0.00  0.00    +0.171 A 
ENDROOT
BRANCH   6   7
ATOM      7  C   UNL     1       7.852  -5.285  26.734  0.00  0.00    +0.264 C 
ATOM      8  O   UNL     1       7.469  -5.782  27.787  0.00  0.00    -0.269 OA
ATOM      9  N   UNL     1       9.166  -4.965  26.534  0.00  0.00    -0.324 N 
ATOM     10  H   UNL     1       9.835  -5.136  27.267  0.00  0.00    +0.145 HD
ATOM     11  H   UNL     1       9.446  -4.555  25.652  0.00  0.00    +0.145 HD
ENDBRANCH   6   7
BRANCH   1  13
ATOM     12  N   UNL     1       8.948  -2.981  23.960  0.00  0.00    -0.078 NA
ATOM     13  N   UNL     1       7.945  -2.825  24.684  0.00  0.00    -0.113 NA
BRANCH  12  15
ATOM     14  C   UNL     1      10.326  -1.601  22.605  0.00  0.00    +0.153 C 
ATOM     15  N   UNL     1       9.775  -1.886  23.917  0.00  0.00    -0.243 N 
ATOM     16  C   UNL     1       9.601  -0.789  24.862  0.00  0.00    +0.153 C 
ENDBRANCH  12  15
ENDBRANCH   1  13
TORSDOF 3
ENDMDL
MODEL 7
REMARK VINA RESULT:      -4.5      4.041      5.803
REMARK  Name = 
REMARK  5 active torsions:
REMARK  status: ('A' for Active; 'I' for Inactive)
REMARK    1  A    between atoms: C_1  and  N_2
REMARK    2  A    between atoms: N_2  and  C_3
REMARK    3  A    between atoms: N_2  and  N_4
REMARK    4  A    between atoms: N_5  and  C_6
REMARK    5  A    between atoms: C_7  and  C_11
REMARK                            x       y       z     vdW  Elec       q    Type
REMARK                         _______ _______ _______ _____ _____    ______ ____
ROOT
ATOM      1  C   UNL     1       8.985  -3.960  24.766  0.00  0.00    +0.186 A 
ATOM      2  N   UNL     1       9.060  -4.207  26.117  0.00  0.00    -0.328 N 
ATOM      3  H   UNL     1       9.712  -3.755  26.740  0.00  0.00    +0.168 HD
ATOM      4  C   UNL     1       8.130  -5.147  26.445  0.00  0.00    +0.199 A 
ATOM      5  N   UNL     1       7.439  -5.525  25.395  0.00  0.00    -0.229 NA
ATOM      6  C   UNL     1       7.962  -4.788  24.326  0.00  0.00    +0.171 A 
ENDROOT
BRANCH   6   7
ATOM      7  C   UNL     1       7.459  -4.920  22.965  0.00  0.00    +0.264 C 
ATOM      8  O   UNL     1       7.162  -5.977  22.420  0.00  0.00    -0.269 OA
ATOM      9  N   UNL     1       7.338  -3.725  22.312  0.00  0.00    -0.324 N 
ATOM     10  H   UNL     1       7.001  -3.710  21.362  0.00  0.00    +0.145 HD
ATOM     11  H   UNL     1       7.593  -2.871  22.793  0.00  0.00    +0.145 HD
ENDBRANCH   6   7
BRANCH   1  13
ATOM     12  N   UNL     1       9.311  -1.909  24.026  0.00  0.00    -0.078 NA
ATOM     13  N   UNL     1       9.783  -3.058  24.145  0.00  0.00    -0.113 NA
BRANCH  12  15
ATOM     14  C   UNL     1      10.015  -0.978  21.958  0.00  0.00    +0.153 C 
ATOM     15  N   UNL     1      10.155  -1.025  23.402  0.00  0.00    -0.243 N 
ATOM     16  C   UNL     1      10.634   0.161  24.103  0.00  0.00    +0.153 C 
ENDBRANCH  12  15
ENDBRANCH   1  13
TORSDOF 3
ENDMDL
MODEL 8
REMARK VINA RESULT:      -4.5      3.885      6.832
REMARK  Name = 
REMARK  5 active torsions:
REMARK  status: ('A' for Active; 'I' for Inactive)
REMARK    1  A    between atoms: C_1  and  N_2
REMARK    2  A    between atoms: N_2  and  C_3
REMARK    3  A    between atoms: N_2  and  N_4
REMARK    4  A    between atoms: N_5  and  C_6
REMARK    5  A    between atoms: C_7  and  C_11
REMARK                            x       y       z     vdW  Elec       q    Type
REMARK                         _______ _______ _______ _____ _____    ______ ____
ROOT
ATOM      1  C   UNL     1       8.545  -1.714  22.479  0.00  0.00    +0.186 A 
ATOM      2  N   UNL     1       9.547  -1.355  21.608  0.00  0.00    -0.328 N 
ATOM      3  H   UNL     1      10.207  -2.003  21.206  0.00  0.00    +0.168 HD
ATOM      4  C   UNL     1       9.491  -0.009  21.404  0.00  0.00    +0.199 A 
ATOM      5  N   UNL     1       8.505   0.537  22.076  0.00  0.00    -0.229 NA
ATOM      6  C   UNL     1       7.896  -0.520  22.761  0.00  0.00    +0.171 A 
ENDROOT
BRANCH   6   7
ATOM      7  C   UNL     1       6.746  -0.328  23.634  0.00  0.00    +0.264 C 
ATOM      8  O   UNL     1       6.483   0.703  24.241  0.00  0.00    -0.269 OA
ATOM      9  N   UNL     1       5.945  -1.433  23.727  0.00  0.00    -0.324 N 
ATOM     10  H   UNL     1       5.123  -1.402  24.311  0.00  0.00    +0.145 HD
ATOM     11  H   UNL     1       6.192  -2.268  23.212  0.00  0.00    +0.145 HD
ENDBRANCH   6   7
BRANCH   1  13
ATOM     12  N   UNL     1       7.485  -3.629  22.215  0.00  0.00    -0.078 NA
ATOM     13  N   UNL     1       8.342  -2.998  22.866  0.00  0.00    -0.113 NA
BRANCH  12  15
ATOM     14  C   UNL     1       6.974  -5.066  24.035  0.00  0.00    +0.153 C 
ATOM     15  N   UNL     1       7.318  -4.926  22.632  0.00  0.00    -0.243 N 
ATOM     16  C   UNL     1       6.884  -5.955  21.693  0.00  0.00    +0.153 C 
ENDBRANCH  12  15
ENDBRANCH   1  13
TORSDOF 3
ENDMDL
MODEL 9
REMARK VINA RESULT:      -4.4      2.074      5.181
REMARK  Name = 
REMARK  5 active torsions:
REMARK  status: ('A' for Active; 'I' for Inactive)
REMARK    1  A    between atoms: C_1  and  N_2
REMARK    2  A    between atoms: N_2  and  C_3
REMARK    3  A    between atoms: N_2  and  N_4
REMARK    4  A    between atoms: N_5  and  C_6
REMARK    5  A    between atoms: C_7  and  C_11
REMARK                            x       y       z     vdW  Elec       q    Type
REMARK                         _______ _______ _______ _____ _____    ______ ____
ROOT
ATOM      1  C   UNL     1      10.068  -0.198  24.063  0.00  0.00    +0.186 A 
ATOM      2  N   UNL     1      10.480   0.775  24.944  0.00  0.00    -0.328 N 
ATOM      3  H   UNL     1      10.700   0.605  25.913  0.00  0.00    +0.168 HD
ATOM      4  C   UNL     1      10.526   1.969  24.290  0.00  0.00    +0.199 A 
ATOM      5  N   UNL     1      10.182   1.839  23.030  0.00  0.00    -0.229 NA
ATOM      6  C   UNL     1       9.890   0.481  22.866  0.00  0.00    +0.171 A 
ENDROOT
BRANCH   6   7
ATOM      7  C   UNL     1       9.461  -0.079  21.591  0.00  0.00    +0.264 C 
ATOM      8  O   UNL     1       8.859   0.533  20.717  0.00  0.00    -0.269 OA
ATOM      9  N   UNL     1       9.796  -1.396  21.436  0.00  0.00    -0.324 N 
ATOM     10  H   UNL     1       9.540  -1.876  20.588  0.00  0.00    +0.145 HD
ATOM     11  H   UNL     1      10.292  -1.870  22.180  0.00  0.00    +0.145 HD
ENDBRANCH   6   7
BRANCH   1  13
ATOM     12  N   UNL     1       8.767  -1.920  24.512  0.00  0.00    -0.078 NA
ATOM     13  N   UNL     1       9.937  -1.499  24.423  0.00  0.00    -0.113 NA
BRANCH  12  15
ATOM     14  C   UNL     1       8.470  -3.471  26.286  0.00  0.00    +0.153 C 
ATOM     15  N   UNL     1       8.680  -3.243  24.869  0.00  0.00    -0.243 N 
ATOM     16  C   UNL     1       8.197  -4.236  23.916  0.00  0.00    +0.153 C 
ENDBRANCH  12  15
ENDBRANCH   1  13
TORSDOF 3
ENDMDL
