MODEL 1
REMARK VINA RESULT:      -7.8      0.000      0.000
REMARK  Name = 
REMARK  6 active torsions:
REMARK  status: ('A' for Active; 'I' for Inactive)
REMARK    1  A    between atoms: C_2  and  C_3
REMARK    2  A    between atoms: C_3  and  C_4
REMARK    3  A    between atoms: C_4  and  N_5
REMARK    4  A    between atoms: C_7  and  C_14
REMARK    5  A    between atoms: C_15  and  C_21
REMARK    6  A    between atoms: N_33  and  C_34
REMARK                            x       y       z     vdW  Elec       q    Type
REMARK                         _______ _______ _______ _____ _____    ______ ____
ROOT
ATOM      1  C   UNL     1       6.162  -5.157  26.482  0.00  0.00    +0.059 C 
ATOM      2  C   UNL     1       7.393  -5.467  27.270  0.00  0.00    +0.252 C 
ATOM      3  O   UNL     1       8.493  -4.965  27.125  0.00  0.00    -0.270 OA
ATOM      4  N   UNL     1       7.081  -6.369  28.199  0.00  0.00    -0.248 N 
ATOM      5  H   UNL     1       7.714  -6.680  28.921  0.00  0.00    +0.158 HD
ATOM      6  C   UNL     1       5.752  -6.516  28.260  0.00  0.00    +0.252 C 
ATOM      7  O   UNL     1       5.192  -7.120  29.160  0.00  0.00    -0.270 OA
ATOM      8  C   UNL     1       5.130  -5.791  27.083  0.00  0.00    +0.059 C 
ENDROOT
BRANCH   8   9
ATOM      9  C   UNL     1       3.706  -5.863  26.863  0.00  0.00    +0.013 A 
ATOM     10  C   UNL     1       2.941  -6.565  25.871  0.00  0.00    +0.008 A 
ATOM     11  C   UNL     1       3.198  -7.568  24.920  0.00  0.00    +0.010 A 
ATOM     12  C   UNL     1       2.292  -7.812  23.884  0.00  0.00    +0.001 A 
ATOM     13  C   UNL     1       1.084  -7.131  23.830  0.00  0.00    +0.002 A 
ATOM     14  C   UNL     1       0.718  -6.255  24.850  0.00  0.00    +0.026 A 
ATOM     15  C   UNL     1       1.660  -5.998  25.854  0.00  0.00    +0.047 A 
ATOM     16  N   UNL     1       1.563  -5.191  26.955  0.00  0.00    -0.360 N 
ATOM     17  H   UNL     1       0.732  -4.684  27.231  0.00  0.00    +0.165 HD
ATOM     18  C   UNL     1       2.784  -5.094  27.562  0.00  0.00    +0.092 A 
ENDBRANCH   8   9
BRANCH   1  26
ATOM     19  N   UNL     1       6.309  -2.478  24.133  0.00  0.00    -0.346 N 
ATOM     20  C   UNL     1       6.232  -3.496  23.202  0.00  0.00    +0.050 A 
ATOM     21  C   UNL     1       6.135  -3.439  21.801  0.00  0.00    +0.026 A 
ATOM     22  C   UNL     1       6.066  -4.641  21.094  0.00  0.00    +0.002 A 
ATOM     23  C   UNL     1       6.056  -5.857  21.760  0.00  0.00    +0.001 A 
ATOM     24  C   UNL     1       6.109  -5.906  23.164  0.00  0.00    +0.010 A 
ATOM     25  C   UNL     1       6.226  -4.708  23.912  0.00  0.00    +0.008 A 
ATOM     26  C   UNL     1       6.356  -4.376  25.306  0.00  0.00    +0.013 A 
ATOM     27  C   UNL     1       6.530  -3.006  25.379  0.00  0.00    +0.095 A 
BRANCH  19  28
ATOM     28  C   UNL     1       6.179  -1.049  23.840  0.00  0.00    +0.123 C 
BRANCH  28  29
ATOM     29  C   UNL     1       7.407  -0.234  24.269  0.00  0.00    +0.040 C 
BRANCH  29  30
ATOM     30  C   UNL     1       8.738  -0.486  23.519  0.00  0.00    +0.058 C 
ATOM     31  N   UNL     1       9.355   0.613  22.797  0.00  0.00    -0.302 NA
ATOM     32  C   UNL     1       8.621   1.334  21.792  0.00  0.00    +0.105 C 
ATOM     33  C   UNL     1      10.349   1.311  23.584  0.00  0.00    +0.084 C 
ATOM     34  C   UNL     1      10.621   0.385  24.764  0.00  0.00    +0.017 C 
ATOM     35  C   UNL     1       9.899  -0.912  24.418  0.00  0.00    +0.020 C 
ENDBRANCH  29  30
ENDBRANCH  28  29
ENDBRANCH  19  28
ENDBRANCH   1  26
TORSDOF 5
ENDMDL
MODEL 2
REMARK VINA RESULT:      -7.6      2.595      4.727
REMARK  Name = 
REMARK  6 active torsions:
REMARK  status: ('A' for Active; 'I' for Inactive)
REMARK    1  A    between atoms: C_2  and  C_3
REMARK    2  A    between atoms: C_3  and  C_4
REMARK    3  A    between atoms: C_4  and  N_5
REMARK    4  A    between atoms: C_7  and  C_14
REMARK    5  A    between atoms: C_15  and  C_21
REMARK    6  A    between atoms: N_33  and  C_34
REMARK                            x       y       z     vdW  Elec       q    Type
REMARK                         _______ _______ _______ _____ _____    ______ ____
ROOT
ATOM      1  C   UNL     1       6.102  -3.613  23.341  0.00  0.00    +0.059 C 
ATOM      2  C   UNL     1       5.821  -3.783  21.883  0.00  0.00    +0.252 C 
ATOM      3  O   UNL     1       5.659  -2.895  21.067  0.00  0.00    -0.270 OA
ATOM      4  N   UNL     1       5.813  -5.087  21.607  0.00  0.00    -0.248 N 
ATOM      5  H   UNL     1       5.736  -5.467  20.675  0.00  0.00    +0.158 HD
ATOM      6  C   UNL     1       6.278  -5.776  22.656  0.00  0.00    +0.252 C 
ATOM      7  O   UNL     1       6.570  -6.959  22.596  0.00  0.00    -0.270 OA
ATOM      8  C   UNL     1       6.396  -4.836  23.839  0.00  0.00    +0.059 C 
ENDROOT
BRANCH   8   9
ATOM      9  C   UNL     1       6.796  -5.346  25.127  0.00  0.00    +0.013 A 
ATOM     10  C   UNL     1       6.020  -5.887  26.208  0.00  0.00    +0.008 A 
ATOM     11  C   UNL     1       4.696  -6.324  26.382  0.00  0.00    +0.010 A 
ATOM     12  C   UNL     1       4.171  -6.506  27.664  0.00  0.00    +0.001 A 
ATOM     13  C   UNL     1       4.974  -6.346  28.784  0.00  0.00    +0.002 A 
ATOM     14  C   UNL     1       6.336  -6.082  28.646  0.00  0.00    +0.026 A 
ATOM     15  C   UNL     1       6.828  -5.865  27.353  0.00  0.00    +0.047 A 
ATOM     16  N   UNL     1       8.104  -5.589  26.940  0.00  0.00    -0.360 N 
ATOM     17  H   UNL     1       8.914  -5.554  27.545  0.00  0.00    +0.165 HD
ATOM     18  C   UNL     1       8.096  -5.267  25.612  0.00  0.00    +0.092 A 
ENDBRANCH   8   9
BRANCH   1  26
ATOM     19  N   UNL     1       6.587  -0.200  24.251  0.00  0.00    -0.346 N 
ATOM     20  C   UNL     1       5.646  -0.486  25.221  0.00  0.00    +0.050 A 
ATOM     21  C   UNL     1       5.154   0.308  26.270  0.00  0.00    +0.026 A 
ATOM     22  C   UNL     1       4.194  -0.242  27.122  0.00  0.00    +0.002 A 
ATOM     23  C   UNL     1       3.766  -1.550  26.958  0.00  0.00    +0.001 A 
ATOM     24  C   UNL     1       4.294  -2.354  25.933  0.00  0.00    +0.010 A 
ATOM     25  C   UNL     1       5.236  -1.815  25.022  0.00  0.00    +0.008 A 
ATOM     26  C   UNL     1       5.931  -2.296  23.858  0.00  0.00    +0.013 A 
ATOM     27  C   UNL     1       6.650  -1.231  23.348  0.00  0.00    +0.095 A 
BRANCH  19  28
ATOM     28  C   UNL     1       7.395   1.020  24.186  0.00  0.00    +0.123 C 
BRANCH  28  29
ATOM     29  C   UNL     1       8.697   0.921  24.991  0.00  0.00    +0.040 C 
BRANCH  29  30
ATOM     30  C   UNL     1      10.028   0.827  24.206  0.00  0.00    +0.058 C 
ATOM     31  N   UNL     1      10.218  -0.272  23.276  0.00  0.00    -0.302 NA
ATOM     32  C   UNL     1      10.075  -1.635  23.712  0.00  0.00    +0.105 C 
ATOM     33  C   UNL     1       9.859   0.077  21.918  0.00  0.00    +0.084 C 
ATOM     34  C   UNL     1       9.755   1.597  21.929  0.00  0.00    +0.017 C 
ATOM     35  C   UNL     1      10.304   2.018  23.287  0.00  0.00    +0.020 C 
ENDBRANCH  29  30
ENDBRANCH  28  29
ENDBRANCH  19  28
ENDBRANCH   1  26
TORSDOF 5
ENDMDL
MODEL 3
REMARK VINA RESULT:      -7.5      2.497      4.509
REMARK  Name = 
REMARK  6 active torsions:
REMARK  status: ('A' for Active; 'I' for Inactive)
REMARK    1  A    between atoms: C_2  and  C_3
REMARK    2  A    between atoms: C_3  and  C_4
REMARK    3  A    between atoms: C_4  and  N_5
REMARK    4  A    between atoms: C_7  and  C_14
REMARK    5  A    between atoms: C_15  and  C_21
REMARK    6  A    between atoms: N_33  and  C_34
REMARK                            x       y       z     vdW  Elec       q    Type
REMARK                         _______ _______ _______ _____ _____    ______ ____
ROOT
ATOM      1  C   UNL     1       7.778  -2.637  24.278  0.00  0.00    +0.059 C 
ATOM      2  C   UNL     1       9.233  -2.429  24.550  0.00  0.00    +0.252 C 
ATOM      3  O   UNL     1       9.774  -1.379  24.843  0.00  0.00    -0.270 OA
ATOM      4  N   UNL     1       9.850  -3.607  24.454  0.00  0.00    -0.248 N 
ATOM      5  H   UNL     1      10.822  -3.756  24.681  0.00  0.00    +0.158 HD
ATOM      6  C   UNL     1       8.944  -4.589  24.378  0.00  0.00    +0.252 C 
ATOM      7  O   UNL     1       9.233  -5.768  24.493  0.00  0.00    -0.270 OA
ATOM      8  C   UNL     1       7.575  -3.971  24.177  0.00  0.00    +0.059 C 
ENDROOT
BRANCH   8   9
ATOM      9  C   UNL     1       6.424  -4.817  23.977  0.00  0.00    +0.013 A 
ATOM     10  C   UNL     1       5.404  -5.250  24.891  0.00  0.00    +0.008 A 
ATOM     11  C   UNL     1       4.991  -4.894  26.187  0.00  0.00    +0.010 A 
ATOM     12  C   UNL     1       4.149  -5.736  26.918  0.00  0.00    +0.001 A 
ATOM     13  C   UNL     1       3.635  -6.891  26.345  0.00  0.00    +0.002 A 
ATOM     14  C   UNL     1       3.883  -7.187  25.006  0.00  0.00    +0.026 A 
ATOM     15  C   UNL     1       4.761  -6.350  24.308  0.00  0.00    +0.047 A 
ATOM     16  N   UNL     1       5.174  -6.412  23.004  0.00  0.00    -0.360 N 
ATOM     17  H   UNL     1       4.840  -7.080  22.321  0.00  0.00    +0.165 HD
ATOM     18  C   UNL     1       6.176  -5.506  22.796  0.00  0.00    +0.092 A 
ENDBRANCH   8   9
BRANCH   1  26
ATOM     19  N   UNL     1       6.539   0.535  23.222  0.00  0.00    -0.346 N 
ATOM     20  C   UNL     1       5.918   0.529  24.455  0.00  0.00    +0.050 A 
ATOM     21  C   UNL     1       5.148   1.520  25.089  0.00  0.00    +0.026 A 
ATOM     22  C   UNL     1       4.636   1.249  26.359  0.00  0.00    +0.002 A 
ATOM     23  C   UNL     1       4.911   0.046  26.993  0.00  0.00    +0.001 A 
ATOM     24  C   UNL     1       5.717  -0.923  26.372  0.00  0.00    +0.010 A 
ATOM     25  C   UNL     1       6.216  -0.701  25.065  0.00  0.00    +0.008 A 
ATOM     26  C   UNL     1       6.999  -1.454  24.122  0.00  0.00    +0.013 A 
ATOM     27  C   UNL     1       7.063  -0.705  22.961  0.00  0.00    +0.095 A 
BRANCH  19  28
ATOM     28  C   UNL     1       6.625   1.686  22.320  0.00  0.00    +0.123 C 
BRANCH  28  29
ATOM     29  C   UNL     1       8.012   1.848  21.683  0.00  0.00    +0.040 C 
BRANCH  29  30
ATOM     30  C   UNL     1       9.056   2.711  22.433  0.00  0.00    +0.058 C 
ATOM     31  N   UNL     1       8.589   3.756  23.327  0.00  0.00    -0.302 NA
ATOM     32  C   UNL     1       7.693   4.778  22.857  0.00  0.00    +0.105 C 
ATOM     33  C   UNL     1       8.500   3.315  24.703  0.00  0.00    +0.084 C 
ATOM     34  C   UNL     1       9.281   2.007  24.736  0.00  0.00    +0.017 C 
ATOM     35  C   UNL     1       9.965   1.925  23.377  0.00  0.00    +0.020 C 
ENDBRANCH  29  30
ENDBRANCH  28  29
ENDBRANCH  19  28
ENDBRANCH   1  26
TORSDOF 5
ENDMDL
MODEL 4
REMARK VINA RESULT:      -7.4      2.933      4.943
REMARK  Name = 
REMARK  6 active torsions:
REMARK  status: ('A' for Active; 'I' for Inactive)
REMARK    1  A    between atoms: C_2  and  C_3
REMARK    2  A    between atoms: C_3  and  C_4
REMARK    3  A    between atoms: C_4  and  N_5
REMARK    4  A    between atoms: C_7  and  C_14
REMARK    5  A    between atoms: C_15  and  C_21
REMARK    6  A    between atoms: N_33  and  C_34
REMARK                            x       y       z     vdW  Elec       q    Type
REMARK                         _______ _______ _______ _____ _____    ______ ____
ROOT
ATOM      1  C   UNL     1       7.616  -2.243  24.042  0.00  0.00    +0.059 C 
ATOM      2  C   UNL     1       8.980  -2.142  24.645  0.00  0.00    +0.252 C 
ATOM      3  O   UNL     1       9.465  -1.164  25.183  0.00  0.00    -0.270 OA
ATOM      4  N   UNL     1       9.578  -3.327  24.530  0.00  0.00    -0.248 N 
ATOM      5  H   UNL     1      10.473  -3.551  24.939  0.00  0.00    +0.158 HD
ATOM      6  C   UNL     1       8.690  -4.247  24.133  0.00  0.00    +0.252 C 
ATOM      7  O   UNL     1       8.922  -5.445  24.151  0.00  0.00    -0.270 OA
ATOM      8  C   UNL     1       7.412  -3.542  23.725  0.00  0.00    +0.059 C 
ENDROOT
BRANCH   8   9
ATOM      9  C   UNL     1       6.315  -4.299  23.174  0.00  0.00    +0.013 A 
ATOM     10  C   UNL     1       4.931  -4.361  23.549  0.00  0.00    +0.008 A 
ATOM     11  C   UNL     1       4.076  -3.619  24.383  0.00  0.00    +0.010 A 
ATOM     12  C   UNL     1       2.839  -4.139  24.773  0.00  0.00    +0.001 A 
ATOM     13  C   UNL     1       2.396  -5.356  24.272  0.00  0.00    +0.002 A 
ATOM     14  C   UNL     1       3.139  -6.038  23.310  0.00  0.00    +0.026 A 
ATOM     15  C   UNL     1       4.392  -5.516  22.967  0.00  0.00    +0.047 A 
ATOM     16  N   UNL     1       5.313  -5.980  22.067  0.00  0.00    -0.360 N 
ATOM     17  H   UNL     1       5.180  -6.779  21.461  0.00  0.00    +0.165 HD
ATOM     18  C   UNL     1       6.472  -5.266  22.188  0.00  0.00    +0.092 A 
ENDBRANCH   8   9
BRANCH   1  26
ATOM     19  N   UNL     1       6.648   1.045  23.058  0.00  0.00    -0.346 N 
ATOM     20  C   UNL     1       5.902   1.005  24.220  0.00  0.00    +0.050 A 
ATOM     21  C   UNL     1       5.119   2.000  24.831  0.00  0.00    +0.026 A 
ATOM     22  C   UNL     1       4.466   1.687  26.023  0.00  0.00    +0.002 A 
ATOM     23  C   UNL     1       4.615   0.439  26.609  0.00  0.00    +0.001 A 
ATOM     24  C   UNL     1       5.434  -0.537  26.016  0.00  0.00    +0.010 A 
ATOM     25  C   UNL     1       6.076  -0.271  24.782  0.00  0.00    +0.008 A 
ATOM     26  C   UNL     1       6.916  -1.013  23.879  0.00  0.00    +0.013 A 
ATOM     27  C   UNL     1       7.136  -0.206  22.778  0.00  0.00    +0.095 A 
BRANCH  19  28
ATOM     28  C   UNL     1       6.883   2.237  22.240  0.00  0.00    +0.123 C 
BRANCH  28  29
ATOM     29  C   UNL     1       8.312   2.781  22.369  0.00  0.00    +0.040 C 
BRANCH  29  30
ATOM     30  C   UNL     1       8.750   3.345  23.743  0.00  0.00    +0.058 C 
ATOM     31  N   UNL     1       9.994   4.088  23.833  0.00  0.00    -0.302 NA
ATOM     32  C   UNL     1      11.230   3.507  23.383  0.00  0.00    +0.105 C 
ATOM     33  C   UNL     1       9.800   5.518  23.714  0.00  0.00    +0.084 C 
ATOM     34  C   UNL     1       8.300   5.716  23.899  0.00  0.00    +0.017 C 
ATOM     35  C   UNL     1       7.778   4.357  24.349  0.00  0.00    +0.020 C 
ENDBRANCH  29  30
ENDBRANCH  28  29
ENDBRANCH  19  28
ENDBRANCH   1  26
TORSDOF 5
ENDMDL
MODEL 5
REMARK VINA RESULT:      -7.4      2.325      7.540
REMARK  Name = 
REMARK  6 active torsions:
REMARK  status: ('A' for Active; 'I' for Inactive)
REMARK    1  A    between atoms: C_2  and  C_3
REMARK    2  A    between atoms: C_3  and  C_4
REMARK    3  A    between atoms: C_4  and  N_5
REMARK    4  A    between atoms: C_7  and  C_14
REMARK    5  A    between atoms: C_15  and  C_21
REMARK    6  A    between atoms: N_33  and  C_34
REMARK                            x       y       z     vdW  Elec       q    Type
REMARK                         _______ _______ _______ _____ _____    ______ ____
ROOT
ATOM      1  C   UNL     1       7.456  -3.791  26.069  0.00  0.00    +0.059 C 
ATOM      2  C   UNL     1       7.864  -4.953  26.915  0.00  0.00    +0.252 C 
ATOM      3  O   UNL     1       7.178  -5.526  27.741  0.00  0.00    -0.270 OA
ATOM      4  N   UNL     1       9.111  -5.293  26.589  0.00  0.00    -0.248 N 
ATOM      5  H   UNL     1       9.589  -6.104  26.951  0.00  0.00    +0.158 HD
ATOM      6  C   UNL     1       9.483  -4.642  25.479  0.00  0.00    +0.252 C 
ATOM      7  O   UNL     1      10.490  -4.924  24.852  0.00  0.00    -0.270 OA
ATOM      8  C   UNL     1       8.442  -3.586  25.166  0.00  0.00    +0.059 C 
ENDROOT
BRANCH   8   9
ATOM      9  C   UNL     1       8.644  -2.682  24.061  0.00  0.00    +0.013 A 
ATOM     10  C   UNL     1       9.143  -1.335  24.025  0.00  0.00    +0.008 A 
ATOM     11  C   UNL     1       9.801  -0.477  24.924  0.00  0.00    +0.010 A 
ATOM     12  C   UNL     1       9.871   0.895  24.671  0.00  0.00    +0.001 A 
ATOM     13  C   UNL     1       9.373   1.420  23.487  0.00  0.00    +0.002 A 
ATOM     14  C   UNL     1       8.870   0.579  22.496  0.00  0.00    +0.026 A 
ATOM     15  C   UNL     1       8.774  -0.786  22.790  0.00  0.00    +0.047 A 
ATOM     16  N   UNL     1       8.321  -1.817  22.011  0.00  0.00    -0.360 N 
ATOM     17  H   UNL     1       8.028  -1.728  21.047  0.00  0.00    +0.165 HD
ATOM     18  C   UNL     1       8.230  -2.954  22.763  0.00  0.00    +0.092 A 
ENDBRANCH   8   9
BRANCH   1  26
ATOM     19  N   UNL     1       4.020  -2.885  26.363  0.00  0.00    -0.346 N 
ATOM     20  C   UNL     1       4.536  -1.659  26.734  0.00  0.00    +0.050 A 
ATOM     21  C   UNL     1       3.882  -0.448  27.019  0.00  0.00    +0.026 A 
ATOM     22  C   UNL     1       4.659   0.657  27.369  0.00  0.00    +0.002 A 
ATOM     23  C   UNL     1       6.043   0.570  27.400  0.00  0.00    +0.001 A 
ATOM     24  C   UNL     1       6.693  -0.632  27.072  0.00  0.00    +0.010 A 
ATOM     25  C   UNL     1       5.935  -1.786  26.755  0.00  0.00    +0.008 A 
ATOM     26  C   UNL     1       6.234  -3.156  26.433  0.00  0.00    +0.013 A 
ATOM     27  C   UNL     1       5.025  -3.818  26.325  0.00  0.00    +0.095 A 
BRANCH  19  28
ATOM     28  C   UNL     1       2.613  -3.158  26.058  0.00  0.00    +0.123 C 
BRANCH  28  29
ATOM     29  C   UNL     1       2.396  -4.526  25.398  0.00  0.00    +0.040 C 
BRANCH  29  30
ATOM     30  C   UNL     1       2.112  -4.558  23.877  0.00  0.00    +0.058 C 
ATOM     31  N   UNL     1       2.818  -5.522  23.051  0.00  0.00    -0.302 NA
ATOM     32  C   UNL     1       4.255  -5.573  23.050  0.00  0.00    +0.105 C 
ATOM     33  C   UNL     1       2.066  -6.742  22.851  0.00  0.00    +0.084 C 
ATOM     34  C   UNL     1       0.651  -6.397  23.298  0.00  0.00    +0.017 C 
ATOM     35  C   UNL     1       0.665  -4.888  23.511  0.00  0.00    +0.020 C 
ENDBRANCH  29  30
ENDBRANCH  28  29
ENDBRANCH  19  28
ENDBRANCH   1  26
TORSDOF 5
ENDMDL
MODEL 6
REMARK VINA RESULT:      -7.4      4.687      9.703
REMARK  Name = 
REMARK  6 active torsions:
REMARK  status: ('A' for Active; 'I' for Inactive)
REMARK    1  A    between atoms: C_2  and  C_3
REMARK    2  A    between atoms: C_3  and  C_4
REMARK    3  A    between atoms: C_4  and  N_5
REMARK    4  A    between atoms: C_7  and  C_14
REMARK    5  A    between atoms: C_15  and  C_21
REMARK    6  A    between atoms: N_33  and  C_34
REMARK                            x       y       z     vdW  Elec       q    Type
REMARK                         _______ _______ _______ _____ _____    ______ ____
ROOT
ATOM      1  C   UNL     1       6.346   2.473  23.631  0.00  0.00    +0.059 C 
ATOM      2  C   UNL     1       5.048   3.070  23.193  0.00  0.00    +0.252 C 
ATOM      3  O   UNL     1       3.934   2.720  23.538  0.00  0.00    -0.270 OA
ATOM      4  N   UNL     1       5.310   4.091  22.377  0.00  0.00    -0.248 N 
ATOM      5  H   UNL     1       4.609   4.719  22.014  0.00  0.00    +0.158 HD
ATOM      6  C   UNL     1       6.618   4.374  22.410  0.00  0.00    +0.252 C 
ATOM      7  O   UNL     1       7.090   5.387  21.922  0.00  0.00    -0.270 OA
ATOM      8  C   UNL     1       7.333   3.270  23.164  0.00  0.00    +0.059 C 
ENDROOT
BRANCH   8   9
ATOM      9  C   UNL     1       8.771   3.287  23.272  0.00  0.00    +0.013 A 
ATOM     10  C   UNL     1       9.664   4.273  23.814  0.00  0.00    +0.008 A 
ATOM     11  C   UNL     1       9.533   5.430  24.602  0.00  0.00    +0.010 A 
ATOM     12  C   UNL     1      10.583   6.348  24.694  0.00  0.00    +0.001 A 
ATOM     13  C   UNL     1      11.802   6.087  24.085  0.00  0.00    +0.002 A 
ATOM     14  C   UNL     1      12.026   4.872  23.441  0.00  0.00    +0.026 A 
ATOM     15  C   UNL     1      10.946   3.988  23.328  0.00  0.00    +0.047 A 
ATOM     16  N   UNL     1      10.891   2.747  22.751  0.00  0.00    -0.360 N 
ATOM     17  H   UNL     1      11.681   2.258  22.353  0.00  0.00    +0.165 HD
ATOM     18  C   UNL     1       9.593   2.321  22.703  0.00  0.00    +0.092 A 
ENDBRANCH   8   9
BRANCH   1  26
ATOM     19  N   UNL     1       5.937  -0.969  24.470  0.00  0.00    -0.346 N 
ATOM     20  C   UNL     1       5.634  -0.467  25.721  0.00  0.00    +0.050 A 
ATOM     21  C   UNL     1       5.204  -1.128  26.884  0.00  0.00    +0.026 A 
ATOM     22  C   UNL     1       4.960  -0.365  28.027  0.00  0.00    +0.002 A 
ATOM     23  C   UNL     1       5.105   1.014  28.004  0.00  0.00    +0.001 A 
ATOM     24  C   UNL     1       5.493   1.674  26.825  0.00  0.00    +0.010 A 
ATOM     25  C   UNL     1       5.792   0.927  25.659  0.00  0.00    +0.008 A 
ATOM     26  C   UNL     1       6.255   1.236  24.332  0.00  0.00    +0.013 A 
ATOM     27  C   UNL     1       6.449   0.030  23.683  0.00  0.00    +0.095 A 
BRANCH  19  28
ATOM     28  C   UNL     1       5.748  -2.357  24.044  0.00  0.00    +0.123 C 
BRANCH  28  29
ATOM     29  C   UNL     1       6.388  -2.659  22.682  0.00  0.00    +0.040 C 
BRANCH  29  30
ATOM     30  C   UNL     1       7.786  -3.325  22.672  0.00  0.00    +0.058 C 
ATOM     31  N   UNL     1       8.966  -2.481  22.746  0.00  0.00    -0.302 NA
ATOM     32  C   UNL     1       9.172  -1.424  21.793  0.00  0.00    +0.105 C 
ATOM     33  C   UNL     1       9.451  -2.318  24.100  0.00  0.00    +0.084 C 
ATOM     34  C   UNL     1       8.734  -3.401  24.896  0.00  0.00    +0.017 C 
ATOM     35  C   UNL     1       8.045  -4.267  23.848  0.00  0.00    +0.020 C 
ENDBRANCH  29  30
ENDBRANCH  28  29
ENDBRANCH  19  28
ENDBRANCH   1  26
TORSDOF 5
ENDMDL
MODEL 7
REMARK VINA RESULT:      -7.3      2.876      4.504
REMARK  Name = 
REMARK  6 active torsions:
REMARK  status: ('A' for Active; 'I' for Inactive)
REMARK    1  A    between atoms: C_2  and  C_3
REMARK    2  A    between atoms: C_3  and  C_4
REMARK    3  A    between atoms: C_4  and  N_5
REMARK    4  A    between atoms: C_7  and  C_14
REMARK    5  A    between atoms: C_15  and  C_21
REMARK    6  A    between atoms: N_33  and  C_34
REMARK                            x       y       z     vdW  Elec       q    Type
REMARK                         _______ _______ _______ _____ _____    ______ ____
ROOT
ATOM      1  C   UNL     1       5.831  -1.628  25.756  0.00  0.00    +0.059 C 
ATOM      2  C   UNL     1       5.670  -1.045  27.123  0.00  0.00    +0.252 C 
ATOM      3  O   UNL     1       6.009   0.067  27.482  0.00  0.00    -0.270 OA
ATOM      4  N   UNL     1       5.049  -1.941  27.890  0.00  0.00    -0.248 N 
ATOM      5  H   UNL     1       4.739  -1.760  28.833  0.00  0.00    +0.158 HD
ATOM      6  C   UNL     1       4.585  -2.943  27.133  0.00  0.00    +0.252 C 
ATOM      7  O   UNL     1       3.804  -3.782  27.549  0.00  0.00    -0.270 OA
ATOM      8  C   UNL     1       5.159  -2.801  25.737  0.00  0.00    +0.059 C 
ENDROOT
BRANCH   8   9
ATOM      9  C   UNL     1       4.884  -3.806  24.739  0.00  0.00    +0.013 A 
ATOM     10  C   UNL     1       5.767  -4.653  23.987  0.00  0.00    +0.008 A 
ATOM     11  C   UNL     1       7.127  -5.003  24.048  0.00  0.00    +0.010 A 
ATOM     12  C   UNL     1       7.750  -5.622  22.961  0.00  0.00    +0.001 A 
ATOM     13  C   UNL     1       7.016  -5.983  21.840  0.00  0.00    +0.002 A 
ATOM     14  C   UNL     1       5.633  -5.809  21.813  0.00  0.00    +0.026 A 
ATOM     15  C   UNL     1       5.040  -5.150  22.897  0.00  0.00    +0.047 A 
ATOM     16  N   UNL     1       3.723  -4.850  23.122  0.00  0.00    -0.360 N 
ATOM     17  H   UNL     1       2.956  -5.126  22.523  0.00  0.00    +0.165 HD
ATOM     18  C   UNL     1       3.618  -4.038  24.216  0.00  0.00    +0.092 A 
ENDBRANCH   8   9
BRANCH   1  26
ATOM     19  N   UNL     1       7.047   0.550  23.207  0.00  0.00    -0.346 N 
ATOM     20  C   UNL     1       8.144  -0.288  23.231  0.00  0.00    +0.050 A 
ATOM     21  C   UNL     1       9.293  -0.304  22.421  0.00  0.00    +0.026 A 
ATOM     22  C   UNL     1      10.260  -1.281  22.662  0.00  0.00    +0.002 A 
ATOM     23  C   UNL     1      10.074  -2.233  23.653  0.00  0.00    +0.001 A 
ATOM     24  C   UNL     1       8.904  -2.239  24.431  0.00  0.00    +0.010 A 
ATOM     25  C   UNL     1       7.922  -1.236  24.244  0.00  0.00    +0.008 A 
ATOM     26  C   UNL     1       6.668  -0.897  24.863  0.00  0.00    +0.013 A 
ATOM     27  C   UNL     1       6.233   0.277  24.277  0.00  0.00    +0.095 A 
BRANCH  19  28
ATOM     28  C   UNL     1       6.787   1.580  22.199  0.00  0.00    +0.123 C 
BRANCH  28  29
ATOM     29  C   UNL     1       6.732   2.996  22.788  0.00  0.00    +0.040 C 
BRANCH  29  30
ATOM     30  C   UNL     1       8.069   3.750  22.986  0.00  0.00    +0.058 C 
ATOM     31  N   UNL     1       8.050   5.198  23.090  0.00  0.00    -0.302 NA
ATOM     32  C   UNL     1       7.448   6.000  22.060  0.00  0.00    +0.105 C 
ATOM     33  C   UNL     1       8.004   5.658  24.462  0.00  0.00    +0.084 C 
ATOM     34  C   UNL     1       8.358   4.428  25.289  0.00  0.00    +0.017 C 
ATOM     35  C   UNL     1       8.813   3.389  24.272  0.00  0.00    +0.020 C 
ENDBRANCH  29  30
ENDBRANCH  28  29
ENDBRANCH  19  28
ENDBRANCH   1  26
TORSDOF 5
ENDMDL
MODEL 8
REMARK VINA RESULT:      -7.2      3.229      6.799
REMARK  Name = 
REMARK  6 active torsions:
REMARK  status: ('A' for Active; 'I' for Inactive)
REMARK    1  A    between atoms: C_2  and  C_3
REMARK    2  A    between atoms: C_3  and  C_4
REMARK    3  A    between atoms: C_4  and  N_5
REMARK    4  A    between atoms: C_7  and  C_14
REMARK    5  A    between atoms: C_15  and  C_21
REMARK    6  A    between atoms: N_33  and  C_34
REMARK                            x       y       z     vdW  Elec       q    Type
REMARK                         _______ _______ _______ _____ _____    ______ ____
ROOT
ATOM      1  C   UNL     1       7.616  -3.022  25.994  0.00  0.00    +0.059 C 
ATOM      2  C   UNL     1       7.721  -4.238  26.856  0.00  0.00    +0.252 C 
ATOM      3  O   UNL     1       6.935  -4.587  27.718  0.00  0.00    -0.270 OA
ATOM      4  N   UNL     1       8.813  -4.913  26.500  0.00  0.00    -0.248 N 
ATOM      5  H   UNL     1       9.064  -5.819  26.867  0.00  0.00    +0.158 HD
ATOM      6  C   UNL     1       9.307  -4.407  25.363  0.00  0.00    +0.252 C 
ATOM      7  O   UNL     1      10.175  -4.965  24.711  0.00  0.00    -0.270 OA
ATOM      8  C   UNL     1       8.586  -3.111  25.055  0.00  0.00    +0.059 C 
ENDROOT
BRANCH   8   9
ATOM      9  C   UNL     1       8.987  -2.314  23.922  0.00  0.00    +0.013 A 
ATOM     10  C   UNL     1       9.646  -1.040  23.852  0.00  0.00    +0.008 A 
ATOM     11  C   UNL     1      10.325  -0.203  24.755  0.00  0.00    +0.010 A 
ATOM     12  C   UNL     1      10.582   1.131  24.429  0.00  0.00    +0.001 A 
ATOM     13  C   UNL     1      10.251   1.627  23.175  0.00  0.00    +0.002 A 
ATOM     14  C   UNL     1       9.735   0.782  22.194  0.00  0.00    +0.026 A 
ATOM     15  C   UNL     1       9.450  -0.539  22.558  0.00  0.00    +0.047 A 
ATOM     16  N   UNL     1       8.943  -1.562  21.803  0.00  0.00    -0.360 N 
ATOM     17  H   UNL     1       8.744  -1.508  20.813  0.00  0.00    +0.165 HD
ATOM     18  C   UNL     1       8.653  -2.627  22.610  0.00  0.00    +0.092 A 
ENDBRANCH   8   9
BRANCH   1  26
ATOM     19  N   UNL     1       5.879  -0.331  27.559  0.00  0.00    -0.346 N 
ATOM     20  C   UNL     1       4.756  -1.046  27.191  0.00  0.00    +0.050 A 
ATOM     21  C   UNL     1       3.398  -0.807  27.462  0.00  0.00    +0.026 A 
ATOM     22  C   UNL     1       2.455  -1.708  26.964  0.00  0.00    +0.002 A 
ATOM     23  C   UNL     1       2.853  -2.830  26.252  0.00  0.00    +0.001 A 
ATOM     24  C   UNL     1       4.215  -3.086  26.021  0.00  0.00    +0.010 A 
ATOM     25  C   UNL     1       5.197  -2.170  26.472  0.00  0.00    +0.008 A 
ATOM     26  C   UNL     1       6.629  -2.069  26.379  0.00  0.00    +0.013 A 
ATOM     27  C   UNL     1       6.987  -0.862  26.951  0.00  0.00    +0.095 A 
BRANCH  19  28
ATOM     28  C   UNL     1       5.891   0.825  28.459  0.00  0.00    +0.123 C 
BRANCH  28  29
ATOM     29  C   UNL     1       6.771   1.974  27.949  0.00  0.00    +0.040 C 
BRANCH  29  30
ATOM     30  C   UNL     1       6.264   2.786  26.732  0.00  0.00    +0.058 C 
ATOM     31  N   UNL     1       6.271   4.237  26.805  0.00  0.00    -0.302 NA
ATOM     32  C   UNL     1       5.598   4.921  27.875  0.00  0.00    +0.105 C 
ATOM     33  C   UNL     1       7.469   4.818  26.236  0.00  0.00    +0.084 C 
ATOM     34  C   UNL     1       8.109   3.681  25.448  0.00  0.00    +0.017 C 
ATOM     35  C   UNL     1       7.067   2.569  25.449  0.00  0.00    +0.020 C 
ENDBRANCH  29  30
ENDBRANCH  28  29
ENDBRANCH  19  28
ENDBRANCH   1  26
TORSDOF 5
ENDMDL
MODEL 9
REMARK VINA RESULT:      -7.2      3.547      8.784
REMARK  Name = 
REMARK  6 active torsions:
REMARK  status: ('A' for Active; 'I' for Inactive)
REMARK    1  A    between atoms: C_2  and  C_3
REMARK    2  A    between atoms: C_3  and  C_4
REMARK    3  A    between atoms: C_4  and  N_5
REMARK    4  A    between atoms: C_7  and  C_14
REMARK    5  A    between atoms: C_15  and  C_21
REMARK    6  A    between atoms: N_33  and  C_34
REMARK                            x       y       z     vdW  Elec       q    Type
REMARK                         _______ _______ _______ _____ _____    ______ ____
ROOT
ATOM      1  C   UNL     1       7.274   1.147  25.914  0.00  0.00    +0.059 C 
ATOM      2  C   UNL     1       7.336   0.480  27.250  0.00  0.00    +0.252 C 
ATOM      3  O   UNL     1       7.575  -0.694  27.465  0.00  0.00    -0.270 OA
ATOM      4  N   UNL     1       7.120   1.401  28.189  0.00  0.00    -0.248 N 
ATOM      5  H   UNL     1       7.199   1.228  29.179  0.00  0.00    +0.158 HD
ATOM      6  C   UNL     1       7.152   2.622  27.641  0.00  0.00    +0.252 C 
ATOM      7  O   UNL     1       7.192   3.645  28.305  0.00  0.00    -0.270 OA
ATOM      8  C   UNL     1       7.169   2.477  26.133  0.00  0.00    +0.059 C 
ENDROOT
BRANCH   8   9
ATOM      9  C   UNL     1       7.117   3.650  25.296  0.00  0.00    +0.013 A 
ATOM     10  C   UNL     1       8.148   4.329  24.561  0.00  0.00    +0.008 A 
ATOM     11  C   UNL     1       9.474   4.049  24.187  0.00  0.00    +0.010 A 
ATOM     12  C   UNL     1      10.313   5.069  23.732  0.00  0.00    +0.001 A 
ATOM     13  C   UNL     1       9.826   6.357  23.556  0.00  0.00    +0.002 A 
ATOM     14  C   UNL     1       8.474   6.635  23.751  0.00  0.00    +0.026 A 
ATOM     15  C   UNL     1       7.664   5.605  24.245  0.00  0.00    +0.047 A 
ATOM     16  N   UNL     1       6.324   5.608  24.525  0.00  0.00    -0.360 N 
ATOM     17  H   UNL     1       5.697   6.384  24.353  0.00  0.00    +0.165 HD
ATOM     18  C   UNL     1       5.986   4.447  25.163  0.00  0.00    +0.092 A 
ENDBRANCH   8   9
BRANCH   1  26
ATOM     19  N   UNL     1       6.564  -1.501  23.634  0.00  0.00    -0.346 N 
ATOM     20  C   UNL     1       7.827  -1.217  23.153  0.00  0.00    +0.050 A 
ATOM     21  C   UNL     1       8.587  -1.861  22.160  0.00  0.00    +0.026 A 
ATOM     22  C   UNL     1       9.857  -1.360  21.871  0.00  0.00    +0.002 A 
ATOM     23  C   UNL     1      10.370  -0.278  22.571  0.00  0.00    +0.001 A 
ATOM     24  C   UNL     1       9.623   0.334  23.592  0.00  0.00    +0.010 A 
ATOM     25  C   UNL     1       8.313  -0.119  23.882  0.00  0.00    +0.008 A 
ATOM     26  C   UNL     1       7.265   0.277  24.785  0.00  0.00    +0.013 A 
ATOM     27  C   UNL     1       6.170  -0.520  24.506  0.00  0.00    +0.095 A 
BRANCH  19  28
ATOM     28  C   UNL     1       5.760  -2.670  23.268  0.00  0.00    +0.123 C 
BRANCH  28  29
ATOM     29  C   UNL     1       5.693  -3.724  24.381  0.00  0.00    +0.040 C 
BRANCH  29  30
ATOM     30  C   UNL     1       6.150  -5.164  24.041  0.00  0.00    +0.058 C 
ATOM     31  N   UNL     1       5.344  -5.959  23.132  0.00  0.00    -0.302 NA
ATOM     32  C   UNL     1       3.948  -6.182  23.392  0.00  0.00    +0.105 C 
ATOM     33  C   UNL     1       5.804  -5.877  21.762  0.00  0.00    +0.084 C 
ATOM     34  C   UNL     1       7.193  -5.258  21.861  0.00  0.00    +0.017 C 
ATOM     35  C   UNL     1       7.511  -5.248  23.351  0.00  0.00    +0.020 C 
ENDBRANCH  29  30
ENDBRANCH  28  29
ENDBRANCH  19  28
ENDBRANCH   1  26
TORSDOF 5
ENDMDL
