MODEL 1
REMARK VINA RESULT:      -6.6      0.000      0.000
REMARK  Name = 
REMARK  5 active torsions:
REMARK  status: ('A' for Active; 'I' for Inactive)
REMARK    1  A    between atoms: C_1  and  C_2
REMARK    2  A    between atoms: N_4  and  C_10
REMARK    3  A    between atoms: C_14  and  C_16
REMARK    4  A    between atoms: C_16  and  O_17
REMARK    5  A    between atoms: C_18  and  O_20
REMARK                            x       y       z     vdW  Elec       q    Type
REMARK                         _______ _______ _______ _____ _____    ______ ____
ROOT
ATOM      1  C   UNL     1       8.749  -2.620  24.384  0.00  0.00    +0.056 C 
ATOM      2  C   UNL     1       9.773  -3.755  24.437  0.00  0.00    +0.060 C 
ATOM      3  C   UNL     1       9.303  -4.588  25.635  0.00  0.00    +0.122 C 
ATOM      4  C   UNL     1       7.791  -4.633  25.380  0.00  0.00    +0.048 C 
ATOM      5  C   UNL     1       7.505  -3.168  25.063  0.00  0.00    +0.025 C 
ATOM      6  C   UNL     1       7.428  -2.745  23.634  0.00  0.00    +0.035 C 
ENDROOT
BRANCH   1  15
ATOM      7  C   UNL     1       9.923   1.485  21.961  0.00  0.00    +0.051 C 
ATOM      8  C   UNL     1       9.736   0.696  23.215  0.00  0.00    +0.030 A 
ATOM      9  C   UNL     1       9.562   1.458  24.472  0.00  0.00    +0.257 A 
ATOM     10  O   UNL     1       9.439   2.676  24.473  0.00  0.00    -0.267 OA
ATOM     11  N   UNL     1       9.512   0.726  25.619  0.00  0.00    -0.275 N 
ATOM     12  H   UNL     1       9.297   1.240  26.459  0.00  0.00    +0.173 HD
ATOM     13  C   UNL     1       9.236  -0.609  25.665  0.00  0.00    +0.330 A 
ATOM     14  O   UNL     1       8.834  -1.110  26.717  0.00  0.00    -0.246 OA
ATOM     15  N   UNL     1       9.355  -1.302  24.451  0.00  0.00    -0.294 N 
ATOM     16  C   UNL     1       9.634  -0.640  23.272  0.00  0.00    +0.099 A 
ENDBRANCH   1  15
BRANCH   3  17
ATOM     17  O   UNL     1       9.904  -5.862  25.675  0.00  0.00    -0.391 OA
ATOM     18  H   UNL     1       9.541  -6.307  26.464  0.00  0.00    +0.210 HD
ENDBRANCH   3  17
BRANCH   4  19
ATOM     19  C   UNL     1       6.991  -5.303  26.481  0.00  0.00    +0.162 C 
BRANCH  19  20
ATOM     20  O   UNL     1       7.827  -5.842  27.492  0.00  0.00    -0.395 OA
ATOM     21  H   UNL     1       7.861  -6.804  27.352  0.00  0.00    +0.209 HD
ENDBRANCH  19  20
ENDBRANCH   4  19
TORSDOF 4
ENDMDL
MODEL 2
REMARK VINA RESULT:      -6.4      2.346      6.232
REMARK  Name = 
REMARK  5 active torsions:
REMARK  status: ('A' for Active; 'I' for Inactive)
REMARK    1  A    between atoms: C_1  and  C_2
REMARK    2  A    between atoms: N_4  and  C_10
REMARK    3  A    between atoms: C_14  and  C_16
REMARK    4  A    between atoms: C_16  and  O_17
REMARK    5  A    between atoms: C_18  and  O_20
REMARK                            x       y       z     vdW  Elec       q    Type
REMARK                         _______ _______ _______ _____ _____    ______ ____
ROOT
ATOM      1  C   UNL     1       9.641  -0.102  23.990  0.00  0.00    +0.056 C 
ATOM      2  C   UNL     1       9.613   0.265  22.505  0.00  0.00    +0.060 C 
ATOM      3  C   UNL     1       8.998   1.669  22.508  0.00  0.00    +0.122 C 
ATOM      4  C   UNL     1       9.760   2.316  23.670  0.00  0.00    +0.048 C 
ATOM      5  C   UNL     1       9.657   1.224  24.732  0.00  0.00    +0.025 C 
ATOM      6  C   UNL     1      10.799   0.280  24.905  0.00  0.00    +0.035 C 
ENDROOT
BRANCH   1  15
ATOM      7  C   UNL     1       5.321  -2.257  24.880  0.00  0.00    +0.051 C 
ATOM      8  C   UNL     1       6.777  -2.297  24.553  0.00  0.00    +0.030 A 
ATOM      9  C   UNL     1       7.294  -3.535  23.927  0.00  0.00    +0.257 A 
ATOM     10  O   UNL     1       6.545  -4.434  23.566  0.00  0.00    -0.267 OA
ATOM     11  N   UNL     1       8.642  -3.601  23.744  0.00  0.00    -0.275 N 
ATOM     12  H   UNL     1       8.977  -4.401  23.231  0.00  0.00    +0.173 HD
ATOM     13  C   UNL     1       9.468  -2.516  23.737  0.00  0.00    +0.330 A 
ATOM     14  O   UNL     1      10.573  -2.597  23.198  0.00  0.00    -0.246 OA
ATOM     15  N   UNL     1       8.938  -1.338  24.286  0.00  0.00    -0.294 N 
ATOM     16  C   UNL     1       7.626  -1.271  24.708  0.00  0.00    +0.099 A 
ENDBRANCH   1  15
BRANCH   3  17
ATOM     17  O   UNL     1       9.173   2.337  21.280  0.00  0.00    -0.391 OA
ATOM     18  H   UNL     1       9.453   1.657  20.639  0.00  0.00    +0.210 HD
ENDBRANCH   3  17
BRANCH   4  19
ATOM     19  C   UNL     1       9.292   3.714  24.025  0.00  0.00    +0.162 C 
BRANCH  19  20
ATOM     20  O   UNL     1       9.756   4.681  23.095  0.00  0.00    -0.395 OA
ATOM     21  H   UNL     1      10.720   4.744  23.206  0.00  0.00    +0.209 HD
ENDBRANCH  19  20
ENDBRANCH   4  19
TORSDOF 4
ENDMDL
MODEL 3
REMARK VINA RESULT:      -6.3      1.595      1.997
REMARK  Name = 
REMARK  5 active torsions:
REMARK  status: ('A' for Active; 'I' for Inactive)
REMARK    1  A    between atoms: C_1  and  C_2
REMARK    2  A    between atoms: N_4  and  C_10
REMARK    3  A    between atoms: C_14  and  C_16
REMARK    4  A    between atoms: C_16  and  O_17
REMARK    5  A    between atoms: C_18  and  O_20
REMARK                            x       y       z     vdW  Elec       q    Type
REMARK                         _______ _______ _______ _____ _____    ______ ____
ROOT
ATOM      1  C   UNL     1       8.507  -2.895  23.797  0.00  0.00    +0.056 C 
ATOM      2  C   UNL     1       9.698  -3.563  24.485  0.00  0.00    +0.060 C 
ATOM      3  C   UNL     1       9.068  -4.190  25.734  0.00  0.00    +0.122 C 
ATOM      4  C   UNL     1       7.798  -4.808  25.138  0.00  0.00    +0.048 C 
ATOM      5  C   UNL     1       7.283  -3.652  24.283  0.00  0.00    +0.025 C 
ATOM      6  C   UNL     1       7.600  -3.641  22.825  0.00  0.00    +0.035 C 
ENDROOT
BRANCH   1  15
ATOM      7  C   UNL     1       7.910   1.667  25.511  0.00  0.00    +0.051 C 
ATOM      8  C   UNL     1       8.501   0.676  24.564  0.00  0.00    +0.030 A 
ATOM      9  C   UNL     1       9.734   1.079  23.849  0.00  0.00    +0.257 A 
ATOM     10  O   UNL     1      10.321   2.119  24.118  0.00  0.00    -0.267 OA
ATOM     11  N   UNL     1      10.193   0.214  22.904  0.00  0.00    -0.275 N 
ATOM     12  H   UNL     1      11.082   0.446  22.490  0.00  0.00    +0.173 HD
ATOM     13  C   UNL     1       9.846  -1.103  22.837  0.00  0.00    +0.330 A 
ATOM     14  O   UNL     1      10.568  -1.892  22.224  0.00  0.00    -0.246 OA
ATOM     15  N   UNL     1       8.705  -1.475  23.566  0.00  0.00    -0.294 N 
ATOM     16  C   UNL     1       8.048  -0.572  24.377  0.00  0.00    +0.099 A 
ENDBRANCH   1  15
BRANCH   3  17
ATOM     17  O   UNL     1       9.914  -5.132  26.352  0.00  0.00    -0.391 OA
ATOM     18  H   UNL     1      10.601  -5.350  25.694  0.00  0.00    +0.210 HD
ENDBRANCH   3  17
BRANCH   4  19
ATOM     19  C   UNL     1       6.861  -5.423  26.159  0.00  0.00    +0.162 C 
BRANCH  19  20
ATOM     20  O   UNL     1       7.567  -6.017  27.237  0.00  0.00    -0.395 OA
ATOM     21  H   UNL     1       7.667  -6.961  27.026  0.00  0.00    +0.209 HD
ENDBRANCH  19  20
ENDBRANCH   4  19
TORSDOF 4
ENDMDL
MODEL 4
REMARK VINA RESULT:      -6.3      2.012      6.179
REMARK  Name = 
REMARK  5 active torsions:
REMARK  status: ('A' for Active; 'I' for Inactive)
REMARK    1  A    between atoms: C_1  and  C_2
REMARK    2  A    between atoms: N_4  and  C_10
REMARK    3  A    between atoms: C_14  and  C_16
REMARK    4  A    between atoms: C_16  and  O_17
REMARK    5  A    between atoms: C_18  and  O_20
REMARK                            x       y       z     vdW  Elec       q    Type
REMARK                         _______ _______ _______ _____ _____    ______ ____
ROOT
ATOM      1  C   UNL     1       9.527  -0.388  23.855  0.00  0.00    +0.056 C 
ATOM      2  C   UNL     1      10.211   0.139  22.592  0.00  0.00    +0.060 C 
ATOM      3  C   UNL     1       9.524   1.490  22.366  0.00  0.00    +0.122 C 
ATOM      4  C   UNL     1       9.519   2.053  23.793  0.00  0.00    +0.048 C 
ATOM      5  C   UNL     1       9.018   0.845  24.581  0.00  0.00    +0.025 C 
ATOM      6  C   UNL     1      10.015  -0.036  25.255  0.00  0.00    +0.035 C 
ENDROOT
BRANCH   1  15
ATOM      7  C   UNL     1       9.458  -5.113  25.186  0.00  0.00    +0.051 C 
ATOM      8  C   UNL     1       8.872  -3.921  24.504  0.00  0.00    +0.030 A 
ATOM      9  C   UNL     1       7.418  -3.954  24.220  0.00  0.00    +0.257 A 
ATOM     10  O   UNL     1       6.701  -4.852  24.644  0.00  0.00    -0.267 OA
ATOM     11  N   UNL     1       6.922  -2.915  23.494  0.00  0.00    -0.275 N 
ATOM     12  H   UNL     1       5.921  -2.893  23.387  0.00  0.00    +0.173 HD
ATOM     13  C   UNL     1       7.552  -1.714  23.345  0.00  0.00    +0.330 A 
ATOM     14  O   UNL     1       6.898  -0.722  23.017  0.00  0.00    -0.246 OA
ATOM     15  N   UNL     1       8.916  -1.693  23.671  0.00  0.00    -0.294 N 
ATOM     16  C   UNL     1       9.543  -2.800  24.206  0.00  0.00    +0.099 A 
ENDBRANCH   1  15
BRANCH   3  17
ATOM     17  O   UNL     1      10.218   2.302  21.446  0.00  0.00    -0.391 OA
ATOM     18  H   UNL     1       9.536   2.810  20.967  0.00  0.00    +0.210 HD
ENDBRANCH   3  17
BRANCH   4  19
ATOM     19  C   UNL     1       8.781   3.370  23.945  0.00  0.00    +0.162 C 
BRANCH  19  20
ATOM     20  O   UNL     1       9.417   4.418  23.230  0.00  0.00    -0.395 OA
ATOM     21  H   UNL     1       8.809   5.178  23.238  0.00  0.00    +0.209 HD
ENDBRANCH  19  20
ENDBRANCH   4  19
TORSDOF 4
ENDMDL
MODEL 5
REMARK VINA RESULT:      -6.2      3.067      6.036
REMARK  Name = 
REMARK  5 active torsions:
REMARK  status: ('A' for Active; 'I' for Inactive)
REMARK    1  A    between atoms: C_1  and  C_2
REMARK    2  A    between atoms: N_4  and  C_10
REMARK    3  A    between atoms: C_14  and  C_16
REMARK    4  A    between atoms: C_16  and  O_17
REMARK    5  A    between atoms: C_18  and  O_20
REMARK                            x       y       z     vdW  Elec       q    Type
REMARK                         _______ _______ _______ _____ _____    ______ ____
ROOT
ATOM      1  C   UNL     1       8.958  -1.371  22.583  0.00  0.00    +0.056 C 
ATOM      2  C   UNL     1       9.241  -0.378  21.454  0.00  0.00    +0.060 C 
ATOM      3  C   UNL     1       9.426   0.948  22.200  0.00  0.00    +0.122 C 
ATOM      4  C   UNL     1      10.314   0.502  23.368  0.00  0.00    +0.048 C 
ATOM      5  C   UNL     1       9.584  -0.759  23.824  0.00  0.00    +0.025 C 
ATOM      6  C   UNL     1      10.070  -2.084  23.343  0.00  0.00    +0.035 C 
ENDROOT
BRANCH   1  15
ATOM      7  C   UNL     1       6.754  -5.714  21.966  0.00  0.00    +0.051 C 
ATOM      8  C   UNL     1       6.737  -4.253  22.272  0.00  0.00    +0.030 A 
ATOM      9  C   UNL     1       5.558  -3.730  23.001  0.00  0.00    +0.257 A 
ATOM     10  O   UNL     1       4.700  -4.477  23.455  0.00  0.00    -0.267 OA
ATOM     11  N   UNL     1       5.502  -2.381  23.168  0.00  0.00    -0.275 N 
ATOM     12  H   UNL     1       4.750  -2.040  23.746  0.00  0.00    +0.173 HD
ATOM     13  C   UNL     1       6.578  -1.549  23.061  0.00  0.00    +0.330 A 
ATOM     14  O   UNL     1       6.540  -0.436  23.587  0.00  0.00    -0.246 OA
ATOM     15  N   UNL     1       7.703  -2.083  22.414  0.00  0.00    -0.294 N 
ATOM     16  C   UNL     1       7.738  -3.402  22.009  0.00  0.00    +0.099 A 
ENDBRANCH   1  15
BRANCH   3  17
ATOM     17  O   UNL     1      10.017   1.943  21.395  0.00  0.00    -0.391 OA
ATOM     18  H   UNL     1       9.597   1.864  20.517  0.00  0.00    +0.210 HD
ENDBRANCH   3  17
BRANCH   4  19
ATOM     19  C   UNL     1      10.594   1.585  24.392  0.00  0.00    +0.162 C 
BRANCH  19  20
ATOM     20  O   UNL     1       9.864   2.771  24.122  0.00  0.00    -0.395 OA
ATOM     21  H   UNL     1       8.926   2.521  24.057  0.00  0.00    +0.209 HD
ENDBRANCH  19  20
ENDBRANCH   4  19
TORSDOF 4
ENDMDL
MODEL 6
REMARK VINA RESULT:      -6.1      2.509      3.067
REMARK  Name = 
REMARK  5 active torsions:
REMARK  status: ('A' for Active; 'I' for Inactive)
REMARK    1  A    between atoms: C_1  and  C_2
REMARK    2  A    between atoms: N_4  and  C_10
REMARK    3  A    between atoms: C_14  and  C_16
REMARK    4  A    between atoms: C_16  and  O_17
REMARK    5  A    between atoms: C_18  and  O_20
REMARK                            x       y       z     vdW  Elec       q    Type
REMARK                         _______ _______ _______ _____ _____    ______ ____
ROOT
ATOM      1  C   UNL     1       7.944  -3.206  24.276  0.00  0.00    +0.056 C 
ATOM      2  C   UNL     1       6.461  -2.875  24.096  0.00  0.00    +0.060 C 
ATOM      3  C   UNL     1       6.107  -3.582  22.783  0.00  0.00    +0.122 C 
ATOM      4  C   UNL     1       6.799  -4.935  22.987  0.00  0.00    +0.048 C 
ATOM      5  C   UNL     1       8.168  -4.489  23.495  0.00  0.00    +0.025 C 
ATOM      6  C   UNL     1       8.420  -4.479  24.966  0.00  0.00    +0.035 C 
ENDROOT
BRANCH   1  15
ATOM      7  C   UNL     1       9.913   0.700  22.047  0.00  0.00    +0.051 C 
ATOM      8  C   UNL     1       9.552  -0.088  23.263  0.00  0.00    +0.030 A 
ATOM      9  C   UNL     1       9.488   0.647  24.547  0.00  0.00    +0.257 A 
ATOM     10  O   UNL     1       9.590   1.866  24.596  0.00  0.00    -0.267 OA
ATOM     11  N   UNL     1       9.275  -0.106  25.662  0.00  0.00    -0.275 N 
ATOM     12  H   UNL     1       9.136   0.407  26.518  0.00  0.00    +0.173 HD
ATOM     13  C   UNL     1       8.758  -1.368  25.648  0.00  0.00    +0.330 A 
ATOM     14  O   UNL     1       8.244  -1.825  26.670  0.00  0.00    -0.246 OA
ATOM     15  N   UNL     1       8.779  -2.025  24.408  0.00  0.00    -0.294 N 
ATOM     16  C   UNL     1       9.206  -1.383  23.263  0.00  0.00    +0.099 A 
ENDBRANCH   1  15
BRANCH   3  17
ATOM     17  O   UNL     1       4.716  -3.687  22.584  0.00  0.00    -0.391 OA
ATOM     18  H   UNL     1       4.304  -3.478  23.443  0.00  0.00    +0.210 HD
ENDBRANCH   3  17
BRANCH   4  19
ATOM     19  C   UNL     1       6.741  -5.857  21.784  0.00  0.00    +0.162 C 
BRANCH  19  20
ATOM     20  O   UNL     1       6.031  -5.273  20.703  0.00  0.00    -0.395 OA
ATOM     21  H   UNL     1       5.654  -4.437  21.028  0.00  0.00    +0.209 HD
ENDBRANCH  19  20
ENDBRANCH   4  19
TORSDOF 4
ENDMDL
MODEL 7
REMARK VINA RESULT:      -5.9      1.944      6.225
REMARK  Name = 
REMARK  5 active torsions:
REMARK  status: ('A' for Active; 'I' for Inactive)
REMARK    1  A    between atoms: C_1  and  C_2
REMARK    2  A    between atoms: N_4  and  C_10
REMARK    3  A    between atoms: C_14  and  C_16
REMARK    4  A    between atoms: C_16  and  O_17
REMARK    5  A    between atoms: C_18  and  O_20
REMARK                            x       y       z     vdW  Elec       q    Type
REMARK                         _______ _______ _______ _____ _____    ______ ____
ROOT
ATOM      1  C   UNL     1       8.613  -0.057  22.765  0.00  0.00    +0.056 C 
ATOM      2  C   UNL     1       7.598   1.036  23.104  0.00  0.00    +0.060 C 
ATOM      3  C   UNL     1       8.462   2.118  23.760  0.00  0.00    +0.122 C 
ATOM      4  C   UNL     1       9.662   2.148  22.806  0.00  0.00    +0.048 C 
ATOM      5  C   UNL     1       9.950   0.657  22.652  0.00  0.00    +0.025 C 
ATOM      6  C   UNL     1       9.405  -0.060  21.462  0.00  0.00    +0.035 C 
ENDROOT
BRANCH   1  15
ATOM      7  C   UNL     1       7.113  -4.660  21.951  0.00  0.00    +0.051 C 
ATOM      8  C   UNL     1       7.696  -3.591  22.815  0.00  0.00    +0.030 A 
ATOM      9  C   UNL     1       8.484  -4.029  23.990  0.00  0.00    +0.257 A 
ATOM     10  O   UNL     1       8.763  -5.207  24.174  0.00  0.00    -0.267 OA
ATOM     11  N   UNL     1       8.907  -3.047  24.832  0.00  0.00    -0.275 N 
ATOM     12  H   UNL     1       9.522  -3.340  25.575  0.00  0.00    +0.173 HD
ATOM     13  C   UNL     1       8.990  -1.729  24.493  0.00  0.00    +0.330 A 
ATOM     14  O   UNL     1       9.720  -0.978  25.142  0.00  0.00    -0.246 OA
ATOM     15  N   UNL     1       8.279  -1.346  23.344  0.00  0.00    -0.294 N 
ATOM     16  C   UNL     1       7.627  -2.277  22.562  0.00  0.00    +0.099 A 
ENDBRANCH   1  15
BRANCH   3  17
ATOM     17  O   UNL     1       7.795   3.355  23.861  0.00  0.00    -0.391 OA
ATOM     18  H   UNL     1       8.475   4.041  23.729  0.00  0.00    +0.210 HD
ENDBRANCH   3  17
BRANCH   4  19
ATOM     19  C   UNL     1      10.792   3.059  23.248  0.00  0.00    +0.162 C 
BRANCH  19  20
ATOM     20  O   UNL     1      10.412   4.425  23.220  0.00  0.00    -0.395 OA
ATOM     21  H   UNL     1      10.666   4.775  22.349  0.00  0.00    +0.209 HD
ENDBRANCH  19  20
ENDBRANCH   4  19
TORSDOF 4
ENDMDL
MODEL 8
REMARK VINA RESULT:      -5.9      2.508      3.405
REMARK  Name = 
REMARK  5 active torsions:
REMARK  status: ('A' for Active; 'I' for Inactive)
REMARK    1  A    between atoms: C_1  and  C_2
REMARK    2  A    between atoms: N_4  and  C_10
REMARK    3  A    between atoms: C_14  and  C_16
REMARK    4  A    between atoms: C_16  and  O_17
REMARK    5  A    between atoms: C_18  and  O_20
REMARK                            x       y       z     vdW  Elec       q    Type
REMARK                         _______ _______ _______ _____ _____    ______ ____
ROOT
ATOM      1  C   UNL     1       7.279  -4.621  23.915  0.00  0.00    +0.056 C 
ATOM      2  C   UNL     1       7.372  -5.204  25.326  0.00  0.00    +0.060 C 
ATOM      3  C   UNL     1       5.912  -5.529  25.663  0.00  0.00    +0.122 C 
ATOM      4  C   UNL     1       5.452  -6.181  24.353  0.00  0.00    +0.048 C 
ATOM      5  C   UNL     1       6.001  -5.193  23.326  0.00  0.00    +0.025 C 
ATOM      6  C   UNL     1       7.305  -5.494  22.666  0.00  0.00    +0.035 C 
ENDROOT
BRANCH   1  15
ATOM      7  C   UNL     1       6.501   0.218  24.201  0.00  0.00    +0.051 C 
ATOM      8  C   UNL     1       7.393  -0.977  24.126  0.00  0.00    +0.030 A 
ATOM      9  C   UNL     1       8.792  -0.804  24.580  0.00  0.00    +0.257 A 
ATOM     10  O   UNL     1       9.169   0.227  25.121  0.00  0.00    -0.267 OA
ATOM     11  N   UNL     1       9.622  -1.867  24.394  0.00  0.00    -0.275 N 
ATOM     12  H   UNL     1      10.544  -1.779  24.791  0.00  0.00    +0.173 HD
ATOM     13  C   UNL     1       9.195  -3.146  24.187  0.00  0.00    +0.330 A 
ATOM     14  O   UNL     1       9.961  -4.085  24.409  0.00  0.00    -0.246 OA
ATOM     15  N   UNL     1       7.852  -3.290  23.810  0.00  0.00    -0.294 N 
ATOM     16  C   UNL     1       7.002  -2.204  23.756  0.00  0.00    +0.099 A 
ENDBRANCH   1  15
BRANCH   3  17
ATOM     17  O   UNL     1       5.791  -6.374  26.784  0.00  0.00    -0.391 OA
ATOM     18  H   UNL     1       5.426  -7.215  26.449  0.00  0.00    +0.210 HD
ENDBRANCH   3  17
BRANCH   4  19
ATOM     19  C   UNL     1       3.975  -6.522  24.308  0.00  0.00    +0.162 C 
BRANCH  19  20
ATOM     20  O   UNL     1       3.757  -7.904  24.072  0.00  0.00    -0.395 OA
ATOM     21  H   UNL     1       3.513  -8.304  24.925  0.00  0.00    +0.209 HD
ENDBRANCH  19  20
ENDBRANCH   4  19
TORSDOF 4
ENDMDL
MODEL 9
REMARK VINA RESULT:      -5.9      1.647      2.193
REMARK  Name = 
REMARK  5 active torsions:
REMARK  status: ('A' for Active; 'I' for Inactive)
REMARK    1  A    between atoms: C_1  and  C_2
REMARK    2  A    between atoms: N_4  and  C_10
REMARK    3  A    between atoms: C_14  and  C_16
REMARK    4  A    between atoms: C_16  and  O_17
REMARK    5  A    between atoms: C_18  and  O_20
REMARK                            x       y       z     vdW  Elec       q    Type
REMARK                         _______ _______ _______ _____ _____    ______ ____
ROOT
ATOM      1  C   UNL     1       8.093  -4.150  25.152  0.00  0.00    +0.056 C 
ATOM      2  C   UNL     1       8.623  -4.938  26.352  0.00  0.00    +0.060 C 
ATOM      3  C   UNL     1       7.346  -5.295  27.121  0.00  0.00    +0.122 C 
ATOM      4  C   UNL     1       6.432  -5.741  25.973  0.00  0.00    +0.048 C 
ATOM      5  C   UNL     1       6.660  -4.617  24.965  0.00  0.00    +0.025 C 
ATOM      6  C   UNL     1       7.643  -4.829  23.863  0.00  0.00    +0.035 C 
ENDROOT
BRANCH   1  15
ATOM      7  C   UNL     1      10.387  -0.907  22.269  0.00  0.00    +0.051 C 
ATOM      8  C   UNL     1       9.644  -1.282  23.507  0.00  0.00    +0.030 A 
ATOM      9  C   UNL     1       8.984  -0.188  24.256  0.00  0.00    +0.257 A 
ATOM     10  O   UNL     1       8.930   0.952  23.812  0.00  0.00    -0.267 OA
ATOM     11  N   UNL     1       8.412  -0.529  25.443  0.00  0.00    -0.275 N 
ATOM     12  H   UNL     1       7.882   0.197  25.900  0.00  0.00    +0.173 HD
ATOM     13  C   UNL     1       8.079  -1.804  25.796  0.00  0.00    +0.330 A 
ATOM     14  O   UNL     1       7.242  -1.990  26.681  0.00  0.00    -0.246 OA
ATOM     15  N   UNL     1       8.674  -2.824  25.039  0.00  0.00    -0.294 N 
ATOM     16  C   UNL     1       9.463  -2.537  23.943  0.00  0.00    +0.099 A 
ENDBRANCH   1  15
BRANCH   3  17
ATOM     17  O   UNL     1       7.561  -6.297  28.089  0.00  0.00    -0.391 OA
ATOM     18  H   UNL     1       6.902  -6.140  28.791  0.00  0.00    +0.210 HD
ENDBRANCH   3  17
BRANCH   4  19
ATOM     19  C   UNL     1       5.010  -6.059  26.392  0.00  0.00    +0.162 C 
BRANCH  19  20
ATOM     20  O   UNL     1       4.926  -7.288  27.096  0.00  0.00    -0.395 OA
ATOM     21  H   UNL     1       5.796  -7.717  27.024  0.00  0.00    +0.209 HD
ENDBRANCH  19  20
ENDBRANCH   4  19
TORSDOF 4
ENDMDL
