MODEL 1
REMARK VINA RESULT:      -6.7      0.000      0.000
REMARK  Name = 
REMARK  22 active torsions:
REMARK  status: ('A' for Active; 'I' for Inactive)
REMARK    1  A    between atoms: N_1  and  C_2
REMARK    2  A    between atoms: C_2  and  C_3
REMARK    3  A    between atoms: C_3  and  C_4
REMARK    4  A    between atoms: C_4  and  O_6
REMARK    5  A    between atoms: C_4  and  C_7
REMARK    6  A    between atoms: N_9  and  C_10
REMARK    7  A    between atoms: C_13  and  N_15
REMARK    8  A    between atoms: C_16  and  O_18
REMARK    9  A    between atoms: O_18  and  C_19
REMARK   10  A    between atoms: C_22  and  C_24
REMARK   11  A    between atoms: C_24  and  N_25
REMARK   12  A    between atoms: C_26  and  O_28
REMARK   13  A    between atoms: C_29  and  O_31
REMARK   14  A    between atoms: C_32  and  O_34
REMARK   15  A    between atoms: C_35  and  O_37
REMARK   16  A    between atoms: C_38  and  O_40
REMARK   17  A    between atoms: O_40  and  C_41
REMARK   18  A    between atoms: C_44  and  C_46
REMARK   19  A    between atoms: C_46  and  O_47
REMARK   20  A    between atoms: C_48  and  O_50
REMARK   21  A    between atoms: C_51  and  N_53
REMARK   22  A    between atoms: C_54  and  O_56
REMARK                            x       y       z     vdW  Elec       q    Type
REMARK                         _______ _______ _______ _____ _____    ______ ____
ROOT
ATOM      1  C   UNL     1       8.589  -0.627  23.977  0.00  0.00    +0.106 C 
ATOM      2  C   UNL     1       7.246  -0.838  23.217  0.00  0.00    +0.173 C 
ATOM      3  C   UNL     1       6.474  -2.124  23.578  0.00  0.00    +0.175 C 
ATOM      4  C   UNL     1       7.367  -3.388  23.658  0.00  0.00    +0.169 C 
ATOM      5  C   UNL     1       8.557  -3.112  24.622  0.00  0.00    +0.084 C 
ATOM      6  C   UNL     1       9.390  -1.918  24.155  0.00  0.00    +0.046 C 
ENDROOT
BRANCH   1   8
ATOM      7  C   UNL     1      10.377   1.174  23.717  0.00  0.00    +0.242 C 
ATOM      8  N   UNL     1       9.428   0.326  23.210  0.00  0.00    -0.308 N 
ATOM      9  H   UNL     1       9.127   0.506  22.259  0.00  0.00    +0.149 HD
ATOM     10  O   UNL     1      10.745   1.126  24.891  0.00  0.00    -0.273 OA
BRANCH   7  11
ATOM     11  C   UNL     1      10.876   2.301  22.763  0.00  0.00    +0.201 C 
BRANCH  11  12
ATOM     12  O   UNL     1      10.178   2.254  21.518  0.00  0.00    -0.383 OA
ATOM     13  H   UNL     1      10.488   3.027  21.008  0.00  0.00    +0.210 HD
ENDBRANCH  11  12
BRANCH  11  14
ATOM     14  C   UNL     1      10.862   3.750  23.265  0.00  0.00    +0.056 C 
BRANCH  14  15
ATOM     15  C   UNL     1      12.221   4.447  23.319  0.00  0.00    +0.080 C 
BRANCH  15  16
ATOM     16  N   UNL     1      12.462   5.280  22.146  0.00  0.00    -0.330 NA
ATOM     17  H   UNL     1      11.639   5.857  21.961  0.00  0.00    +0.118 HD
ATOM     18  H   UNL     1      12.527   4.667  21.330  0.00  0.00    +0.118 HD
ENDBRANCH  15  16
ENDBRANCH  14  15
ENDBRANCH  11  14
ENDBRANCH   7  11
ENDBRANCH   1   8
BRANCH   5  19
ATOM     19  N   UNL     1       9.453  -4.280  24.744  0.00  0.00    -0.325 NA
ATOM     20  H   UNL     1       8.922  -5.140  24.599  0.00  0.00    +0.119 HD
ATOM     21  H   UNL     1      10.155  -4.255  24.002  0.00  0.00    +0.119 HD
ENDBRANCH   5  19
BRANCH   3  22
ATOM     22  O   UNL     1       5.501  -2.297  22.526  0.00  0.00    -0.387 OA
ATOM     23  H   UNL     1       5.913  -1.993  21.699  0.00  0.00    +0.210 HD
ENDBRANCH   3  22
BRANCH   4  24
ATOM     24  O   UNL     1       6.653  -4.552  24.157  0.00  0.00    -0.341 OA
BRANCH  24  25
ATOM     25  C   UNL     1       5.559  -4.264  25.041  0.00  0.00    +0.282 C 
ATOM     26  C   UNL     1       5.678  -5.102  26.336  0.00  0.00    +0.201 C 
ATOM     27  C   UNL     1       5.318  -6.568  26.077  0.00  0.00    +0.179 C 
ATOM     28  C   UNL     1       3.962  -6.663  25.363  0.00  0.00    +0.176 C 
ATOM     29  C   UNL     1       3.977  -5.794  24.098  0.00  0.00    +0.166 C 
ATOM     30  O   UNL     1       4.281  -4.432  24.431  0.00  0.00    -0.342 OA
BRANCH  27  31
ATOM     31  O   UNL     1       5.237  -7.288  27.319  0.00  0.00    -0.386 OA
ATOM     32  H   UNL     1       5.920  -7.983  27.272  0.00  0.00    +0.210 HD
ENDBRANCH  27  31
BRANCH  26  33
ATOM     33  O   UNL     1       6.994  -4.974  26.895  0.00  0.00    -0.384 OA
ATOM     34  H   UNL     1       7.224  -4.029  26.831  0.00  0.00    +0.210 HD
ENDBRANCH  26  33
BRANCH  28  35
ATOM     35  O   UNL     1       3.674  -8.041  25.089  0.00  0.00    -0.387 OA
ATOM     36  H   UNL     1       4.233  -8.594  25.664  0.00  0.00    +0.210 HD
ENDBRANCH  28  35
BRANCH  29  37
ATOM     37  C   UNL     1       2.605  -5.818  23.394  0.00  0.00    +0.112 C 
BRANCH  37  38
ATOM     38  N   UNL     1       2.443  -7.045  22.600  0.00  0.00    -0.328 NA
ATOM     39  H   UNL     1       2.738  -6.864  21.641  0.00  0.00    +0.118 HD
ATOM     40  H   UNL     1       3.103  -7.738  22.968  0.00  0.00    +0.118 HD
ENDBRANCH  37  38
ENDBRANCH  29  37
ENDBRANCH  24  25
ENDBRANCH   4  24
BRANCH   2  41
ATOM     41  O   UNL     1       6.310   0.289  23.349  0.00  0.00    -0.341 OA
BRANCH  41  42
ATOM     42  C   UNL     1       6.519   1.064  24.538  0.00  0.00    +0.281 C 
ATOM     43  C   UNL     1       5.267   1.354  25.397  0.00  0.00    +0.189 C 
ATOM     44  C   UNL     1       4.361   2.422  24.764  0.00  0.00    +0.116 C 
ATOM     45  C   UNL     1       5.183   3.642  24.286  0.00  0.00    +0.165 C 
ATOM     46  C   UNL     1       6.371   3.171  23.441  0.00  0.00    +0.177 C 
ATOM     47  O   UNL     1       7.192   2.292  24.234  0.00  0.00    -0.341 OA
BRANCH  44  48
ATOM     48  N   UNL     1       3.298   2.847  25.705  0.00  0.00    -0.323 NA
ATOM     49  H   UNL     1       2.640   3.485  25.234  0.00  0.00    +0.119 HD
ATOM     50  H   UNL     1       2.741   2.025  25.957  0.00  0.00    +0.119 HD
ENDBRANCH  44  48
BRANCH  45  51
ATOM     51  O   UNL     1       4.343   4.545  23.566  0.00  0.00    -0.388 OA
ATOM     52  H   UNL     1       4.289   4.245  22.640  0.00  0.00    +0.210 HD
ENDBRANCH  45  51
BRANCH  43  53
ATOM     53  O   UNL     1       4.574   0.149  25.731  0.00  0.00    -0.385 OA
ATOM     54  H   UNL     1       3.876   0.374  26.372  0.00  0.00    +0.210 HD
ENDBRANCH  43  53
BRANCH  46  55
ATOM     55  C   UNL     1       7.257   4.327  22.969  0.00  0.00    +0.190 C 
BRANCH  55  56
ATOM     56  O   UNL     1       6.712   4.907  21.780  0.00  0.00    -0.392 OA
ATOM     57  H   UNL     1       6.886   5.864  21.810  0.00  0.00    +0.210 HD
ENDBRANCH  55  56
ENDBRANCH  46  55
ENDBRANCH  41  42
ENDBRANCH   2  41
TORSDOF 22
ENDMDL
MODEL 2
REMARK VINA RESULT:      -6.5      2.610      4.987
REMARK  Name = 
REMARK  22 active torsions:
REMARK  status: ('A' for Active; 'I' for Inactive)
REMARK    1  A    between atoms: N_1  and  C_2
REMARK    2  A    between atoms: C_2  and  C_3
REMARK    3  A    between atoms: C_3  and  C_4
REMARK    4  A    between atoms: C_4  and  O_6
REMARK    5  A    between atoms: C_4  and  C_7
REMARK    6  A    between atoms: N_9  and  C_10
REMARK    7  A    between atoms: C_13  and  N_15
REMARK    8  A    between atoms: C_16  and  O_18
REMARK    9  A    between atoms: O_18  and  C_19
REMARK   10  A    between atoms: C_22  and  C_24
REMARK   11  A    between atoms: C_24  and  N_25
REMARK   12  A    between atoms: C_26  and  O_28
REMARK   13  A    between atoms: C_29  and  O_31
REMARK   14  A    between atoms: C_32  and  O_34
REMARK   15  A    between atoms: C_35  and  O_37
REMARK   16  A    between atoms: C_38  and  O_40
REMARK   17  A    between atoms: O_40  and  C_41
REMARK   18  A    between atoms: C_44  and  C_46
REMARK   19  A    between atoms: C_46  and  O_47
REMARK   20  A    between atoms: C_48  and  O_50
REMARK   21  A    between atoms: C_51  and  N_53
REMARK   22  A    between atoms: C_54  and  O_56
REMARK                            x       y       z     vdW  Elec       q    Type
REMARK                         _______ _______ _______ _____ _____    ______ ____
ROOT
ATOM      1  C   UNL     1       4.968   0.001  26.268  0.00  0.00    +0.106 C 
ATOM      2  C   UNL     1       6.218  -0.428  25.443  0.00  0.00    +0.173 C 
ATOM      3  C   UNL     1       6.006  -1.622  24.491  0.00  0.00    +0.175 C 
ATOM      4  C   UNL     1       5.225  -2.800  25.127  0.00  0.00    +0.169 C 
ATOM      5  C   UNL     1       3.892  -2.266  25.725  0.00  0.00    +0.084 C 
ATOM      6  C   UNL     1       4.144  -1.183  26.775  0.00  0.00    +0.046 C 
ENDROOT
BRANCH   1   8
ATOM      7  C   UNL     1       5.362   2.141  27.601  0.00  0.00    +0.242 C 
ATOM      8  N   UNL     1       5.418   0.781  27.448  0.00  0.00    -0.308 N 
ATOM      9  H   UNL     1       6.002   0.277  28.107  0.00  0.00    +0.149 HD
ATOM     10  O   UNL     1       4.777   2.871  26.802  0.00  0.00    -0.273 OA
BRANCH   7  11
ATOM     11  C   UNL     1       6.197   2.737  28.775  0.00  0.00    +0.201 C 
BRANCH  11  12
ATOM     12  O   UNL     1       7.585   2.767  28.442  0.00  0.00    -0.383 OA
ATOM     13  H   UNL     1       7.888   3.674  28.640  0.00  0.00    +0.210 HD
ENDBRANCH  11  12
BRANCH  11  14
ATOM     14  C   UNL     1       5.808   4.111  29.331  0.00  0.00    +0.056 C 
BRANCH  14  15
ATOM     15  C   UNL     1       6.647   5.290  28.839  0.00  0.00    +0.080 C 
BRANCH  15  16
ATOM     16  N   UNL     1       6.559   5.466  27.394  0.00  0.00    -0.330 NA
ATOM     17  H   UNL     1       6.828   4.598  26.926  0.00  0.00    +0.118 HD
ATOM     18  H   UNL     1       7.280   6.135  27.112  0.00  0.00    +0.118 HD
ENDBRANCH  15  16
ENDBRANCH  14  15
ENDBRANCH  11  14
ENDBRANCH   7  11
ENDBRANCH   1   8
BRANCH   5  19
ATOM     19  N   UNL     1       3.097  -3.340  26.352  0.00  0.00    -0.325 NA
ATOM     20  H   UNL     1       2.358  -3.642  25.716  0.00  0.00    +0.119 HD
ATOM     21  H   UNL     1       3.686  -4.161  26.505  0.00  0.00    +0.119 HD
ENDBRANCH   5  19
BRANCH   3  22
ATOM     22  O   UNL     1       7.331  -2.069  24.132  0.00  0.00    -0.387 OA
ATOM     23  H   UNL     1       7.319  -3.042  24.144  0.00  0.00    +0.210 HD
ENDBRANCH   3  22
BRANCH   4  24
ATOM     24  O   UNL     1       4.896  -3.841  24.168  0.00  0.00    -0.341 OA
BRANCH  24  25
ATOM     25  C   UNL     1       5.784  -4.969  24.162  0.00  0.00    +0.282 C 
ATOM     26  C   UNL     1       5.050  -6.230  23.646  0.00  0.00    +0.201 C 
ATOM     27  C   UNL     1       4.080  -6.771  24.702  0.00  0.00    +0.179 C 
ATOM     28  C   UNL     1       4.802  -6.942  26.046  0.00  0.00    +0.176 C 
ATOM     29  C   UNL     1       5.481  -5.625  26.445  0.00  0.00    +0.166 C 
ATOM     30  O   UNL     1       6.401  -5.209  25.424  0.00  0.00    -0.342 OA
BRANCH  27  31
ATOM     31  O   UNL     1       3.560  -8.047  24.292  0.00  0.00    -0.386 OA
ATOM     32  H   UNL     1       3.913  -8.207  23.398  0.00  0.00    +0.210 HD
ENDBRANCH  27  31
BRANCH  26  33
ATOM     33  O   UNL     1       4.377  -5.947  22.410  0.00  0.00    -0.384 OA
ATOM     34  H   UNL     1       3.524  -6.418  22.453  0.00  0.00    +0.210 HD
ENDBRANCH  26  33
BRANCH  28  35
ATOM     35  O   UNL     1       3.861  -7.402  27.026  0.00  0.00    -0.387 OA
ATOM     36  H   UNL     1       4.113  -7.034  27.893  0.00  0.00    +0.210 HD
ENDBRANCH  28  35
BRANCH  29  37
ATOM     37  C   UNL     1       6.270  -5.785  27.761  0.00  0.00    +0.112 C 
BRANCH  37  38
ATOM     38  N   UNL     1       7.715  -5.859  27.502  0.00  0.00    -0.328 NA
ATOM     39  H   UNL     1       8.220  -5.567  28.337  0.00  0.00    +0.118 HD
ATOM     40  H   UNL     1       7.952  -6.846  27.363  0.00  0.00    +0.118 HD
ENDBRANCH  37  38
ENDBRANCH  29  37
ENDBRANCH  24  25
ENDBRANCH   4  24
BRANCH   2  41
ATOM     41  O   UNL     1       6.809   0.665  24.655  0.00  0.00    -0.341 OA
BRANCH  41  42
ATOM     42  C   UNL     1       8.105   1.065  25.122  0.00  0.00    +0.281 C 
ATOM     43  C   UNL     1       8.472   2.554  24.933  0.00  0.00    +0.189 C 
ATOM     44  C   UNL     1       8.807   2.890  23.470  0.00  0.00    +0.116 C 
ATOM     45  C   UNL     1       9.771   1.846  22.862  0.00  0.00    +0.165 C 
ATOM     46  C   UNL     1       9.246   0.432  23.132  0.00  0.00    +0.177 C 
ATOM     47  O   UNL     1       9.128   0.238  24.554  0.00  0.00    -0.341 OA
BRANCH  44  48
ATOM     48  N   UNL     1       9.374   4.254  23.351  0.00  0.00    -0.323 NA
ATOM     49  H   UNL     1       8.872   4.786  22.626  0.00  0.00    +0.119 HD
ATOM     50  H   UNL     1       9.195   4.757  24.226  0.00  0.00    +0.119 HD
ENDBRANCH  44  48
BRANCH  45  51
ATOM     51  O   UNL     1       9.941   2.092  21.466  0.00  0.00    -0.388 OA
ATOM     52  H   UNL     1      10.426   1.342  21.076  0.00  0.00    +0.210 HD
ENDBRANCH  45  51
BRANCH  43  53
ATOM     53  O   UNL     1       7.478   3.412  25.497  0.00  0.00    -0.385 OA
ATOM     54  H   UNL     1       7.845   4.314  25.528  0.00  0.00    +0.210 HD
ENDBRANCH  43  53
BRANCH  46  55
ATOM     55  C   UNL     1      10.177  -0.659  22.594  0.00  0.00    +0.190 C 
BRANCH  55  56
ATOM     56  O   UNL     1       9.882  -0.919  21.219  0.00  0.00    -0.392 OA
ATOM     57  H   UNL     1       8.925  -1.076  21.145  0.00  0.00    +0.210 HD
ENDBRANCH  55  56
ENDBRANCH  46  55
ENDBRANCH  41  42
ENDBRANCH   2  41
TORSDOF 22
ENDMDL
MODEL 3
REMARK VINA RESULT:      -6.5      1.809      1.922
REMARK  Name = 
REMARK  22 active torsions:
REMARK  status: ('A' for Active; 'I' for Inactive)
REMARK    1  A    between atoms: N_1  and  C_2
REMARK    2  A    between atoms: C_2  and  C_3
REMARK    3  A    between atoms: C_3  and  C_4
REMARK    4  A    between atoms: C_4  and  O_6
REMARK    5  A    between atoms: C_4  and  C_7
REMARK    6  A    between atoms: N_9  and  C_10
REMARK    7  A    between atoms: C_13  and  N_15
REMARK    8  A    between atoms: C_16  and  O_18
REMARK    9  A    between atoms: O_18  and  C_19
REMARK   10  A    between atoms: C_22  and  C_24
REMARK   11  A    between atoms: C_24  and  N_25
REMARK   12  A    between atoms: C_26  and  O_28
REMARK   13  A    between atoms: C_29  and  O_31
REMARK   14  A    between atoms: C_32  and  O_34
REMARK   15  A    between atoms: C_35  and  O_37
REMARK   16  A    between atoms: C_38  and  O_40
REMARK   17  A    between atoms: O_40  and  C_41
REMARK   18  A    between atoms: C_44  and  C_46
REMARK   19  A    between atoms: C_46  and  O_47
REMARK   20  A    between atoms: C_48  and  O_50
REMARK   21  A    between atoms: C_51  and  N_53
REMARK   22  A    between atoms: C_54  and  O_56
REMARK                            x       y       z     vdW  Elec       q    Type
REMARK                         _______ _______ _______ _____ _____    ______ ____
ROOT
ATOM      1  C   UNL     1       8.683  -0.890  24.420  0.00  0.00    +0.106 C 
ATOM      2  C   UNL     1       7.134  -0.922  24.263  0.00  0.00    +0.173 C 
ATOM      3  C   UNL     1       6.430  -2.151  24.874  0.00  0.00    +0.175 C 
ATOM      4  C   UNL     1       7.132  -3.496  24.556  0.00  0.00    +0.169 C 
ATOM      5  C   UNL     1       8.630  -3.399  24.963  0.00  0.00    +0.084 C 
ATOM      6  C   UNL     1       9.337  -2.259  24.228  0.00  0.00    +0.046 C 
ENDROOT
BRANCH   1   8
ATOM      7  C   UNL     1      10.338   0.847  23.551  0.00  0.00    +0.242 C 
ATOM      8  N   UNL     1       9.248   0.031  23.402  0.00  0.00    -0.308 N 
ATOM      9  H   UNL     1       8.652   0.217  22.603  0.00  0.00    +0.149 HD
ATOM     10  O   UNL     1      11.075   0.791  24.535  0.00  0.00    -0.273 OA
BRANCH   7  11
ATOM     11  C   UNL     1      10.525   1.952  22.468  0.00  0.00    +0.201 C 
BRANCH  11  12
ATOM     12  O   UNL     1       9.371   2.040  21.633  0.00  0.00    -0.383 OA
ATOM     13  H   UNL     1       9.481   2.857  21.108  0.00  0.00    +0.210 HD
ENDBRANCH  11  12
BRANCH  11  14
ATOM     14  C   UNL     1      10.899   3.368  22.919  0.00  0.00    +0.056 C 
BRANCH  14  15
ATOM     15  C   UNL     1       9.876   4.077  23.805  0.00  0.00    +0.080 C 
BRANCH  15  16
ATOM     16  N   UNL     1       8.759   4.617  23.037  0.00  0.00    -0.330 NA
ATOM     17  H   UNL     1       8.373   5.430  23.520  0.00  0.00    +0.118 HD
ATOM     18  H   UNL     1       8.000   3.931  23.057  0.00  0.00    +0.118 HD
ENDBRANCH  15  16
ENDBRANCH  14  15
ENDBRANCH  11  14
ENDBRANCH   7  11
ENDBRANCH   1   8
BRANCH   5  19
ATOM     19  N   UNL     1       9.362  -4.651  24.683  0.00  0.00    -0.325 NA
ATOM     20  H   UNL     1       9.730  -5.038  25.553  0.00  0.00    +0.119 HD
ATOM     21  H   UNL     1       8.717  -5.353  24.315  0.00  0.00    +0.119 HD
ENDBRANCH   5  19
BRANCH   3  22
ATOM     22  O   UNL     1       5.105  -2.161  24.301  0.00  0.00    -0.387 OA
ATOM     23  H   UNL     1       4.714  -1.285  24.466  0.00  0.00    +0.210 HD
ENDBRANCH   3  22
BRANCH   4  24
ATOM     24  O   UNL     1       6.549  -4.619  25.272  0.00  0.00    -0.341 OA
BRANCH  24  25
ATOM     25  C   UNL     1       6.131  -4.335  26.616  0.00  0.00    +0.282 C 
ATOM     26  C   UNL     1       6.395  -5.554  27.531  0.00  0.00    +0.201 C 
ATOM     27  C   UNL     1       5.383  -6.672  27.261  0.00  0.00    +0.179 C 
ATOM     28  C   UNL     1       3.953  -6.116  27.312  0.00  0.00    +0.176 C 
ATOM     29  C   UNL     1       3.823  -4.919  26.361  0.00  0.00    +0.166 C 
ATOM     30  O   UNL     1       4.775  -3.903  26.706  0.00  0.00    -0.342 OA
BRANCH  27  31
ATOM     31  O   UNL     1       5.510  -7.709  28.249  0.00  0.00    -0.386 OA
ATOM     32  H   UNL     1       6.409  -8.073  28.143  0.00  0.00    +0.210 HD
ENDBRANCH  27  31
BRANCH  26  33
ATOM     33  O   UNL     1       7.744  -6.017  27.373  0.00  0.00    -0.384 OA
ATOM     34  H   UNL     1       8.070  -6.212  28.271  0.00  0.00    +0.210 HD
ENDBRANCH  26  33
BRANCH  28  35
ATOM     35  O   UNL     1       3.030  -7.172  27.008  0.00  0.00    -0.387 OA
ATOM     36  H   UNL     1       2.702  -7.547  27.845  0.00  0.00    +0.210 HD
ENDBRANCH  28  35
BRANCH  29  37
ATOM     37  C   UNL     1       2.413  -4.299  26.440  0.00  0.00    +0.112 C 
BRANCH  37  38
ATOM     38  N   UNL     1       2.356  -3.030  25.701  0.00  0.00    -0.328 NA
ATOM     39  H   UNL     1       2.783  -3.157  24.785  0.00  0.00    +0.118 HD
ATOM     40  H   UNL     1       1.368  -2.822  25.522  0.00  0.00    +0.118 HD
ENDBRANCH  37  38
ENDBRANCH  29  37
ENDBRANCH  24  25
ENDBRANCH   4  24
BRANCH   2  41
ATOM     41  O   UNL     1       6.463   0.277  24.790  0.00  0.00    -0.341 OA
BRANCH  41  42
ATOM     42  C   UNL     1       7.286   1.451  24.754  0.00  0.00    +0.281 C 
ATOM     43  C   UNL     1       7.290   2.326  26.028  0.00  0.00    +0.189 C 
ATOM     44  C   UNL     1       5.995   3.141  26.178  0.00  0.00    +0.116 C 
ATOM     45  C   UNL     1       5.613   3.835  24.851  0.00  0.00    +0.165 C 
ATOM     46  C   UNL     1       5.647   2.820  23.703  0.00  0.00    +0.177 C 
ATOM     47  O   UNL     1       6.970   2.258  23.613  0.00  0.00    -0.341 OA
BRANCH  44  48
ATOM     48  N   UNL     1       6.114   4.136  27.271  0.00  0.00    -0.323 NA
ATOM     49  H   UNL     1       5.236   4.665  27.367  0.00  0.00    +0.119 HD
ATOM     50  H   UNL     1       6.222   3.633  28.157  0.00  0.00    +0.119 HD
ENDBRANCH  44  48
BRANCH  45  51
ATOM     51  O   UNL     1       4.332   4.454  24.975  0.00  0.00    -0.388 OA
ATOM     52  H   UNL     1       4.276   4.877  25.851  0.00  0.00    +0.210 HD
ENDBRANCH  45  51
BRANCH  43  53
ATOM     53  O   UNL     1       7.612   1.556  27.188  0.00  0.00    -0.385 OA
ATOM     54  H   UNL     1       8.581   1.543  27.279  0.00  0.00    +0.210 HD
ENDBRANCH  43  53
BRANCH  46  55
ATOM     55  C   UNL     1       5.320   3.450  22.346  0.00  0.00    +0.190 C 
BRANCH  55  56
ATOM     56  O   UNL     1       5.738   4.818  22.328  0.00  0.00    -0.392 OA
ATOM     57  H   UNL     1       6.238   4.965  21.507  0.00  0.00    +0.210 HD
ENDBRANCH  55  56
ENDBRANCH  46  55
ENDBRANCH  41  42
ENDBRANCH   2  41
TORSDOF 22
ENDMDL
MODEL 4
REMARK VINA RESULT:      -6.4      2.761      4.033
REMARK  Name = 
REMARK  22 active torsions:
REMARK  status: ('A' for Active; 'I' for Inactive)
REMARK    1  A    between atoms: N_1  and  C_2
REMARK    2  A    between atoms: C_2  and  C_3
REMARK    3  A    between atoms: C_3  and  C_4
REMARK    4  A    between atoms: C_4  and  O_6
REMARK    5  A    between atoms: C_4  and  C_7
REMARK    6  A    between atoms: N_9  and  C_10
REMARK    7  A    between atoms: C_13  and  N_15
REMARK    8  A    between atoms: C_16  and  O_18
REMARK    9  A    between atoms: O_18  and  C_19
REMARK   10  A    between atoms: C_22  and  C_24
REMARK   11  A    between atoms: C_24  and  N_25
REMARK   12  A    between atoms: C_26  and  O_28
REMARK   13  A    between atoms: C_29  and  O_31
REMARK   14  A    between atoms: C_32  and  O_34
REMARK   15  A    between atoms: C_35  and  O_37
REMARK   16  A    between atoms: C_38  and  O_40
REMARK   17  A    between atoms: O_40  and  C_41
REMARK   18  A    between atoms: C_44  and  C_46
REMARK   19  A    between atoms: C_46  and  O_47
REMARK   20  A    between atoms: C_48  and  O_50
REMARK   21  A    between atoms: C_51  and  N_53
REMARK   22  A    between atoms: C_54  and  O_56
REMARK                            x       y       z     vdW  Elec       q    Type
REMARK                         _______ _______ _______ _____ _____    ______ ____
ROOT
ATOM      1  C   UNL     1       7.210  -2.074  23.372  0.00  0.00    +0.106 C 
ATOM      2  C   UNL     1       6.022  -1.671  24.296  0.00  0.00    +0.173 C 
ATOM      3  C   UNL     1       5.068  -2.818  24.688  0.00  0.00    +0.175 C 
ATOM      4  C   UNL     1       4.672  -3.735  23.503  0.00  0.00    +0.169 C 
ATOM      5  C   UNL     1       5.962  -4.243  22.797  0.00  0.00    +0.084 C 
ATOM      6  C   UNL     1       6.817  -3.081  22.290  0.00  0.00    +0.046 C 
ENDROOT
BRANCH   1   8
ATOM      7  C   UNL     1       8.884  -0.189  22.981  0.00  0.00    +0.242 C 
ATOM      8  N   UNL     1       7.723  -0.857  22.694  0.00  0.00    -0.308 N 
ATOM      9  H   UNL     1       7.054  -0.368  22.110  0.00  0.00    +0.149 HD
ATOM     10  O   UNL     1       9.723  -0.630  23.765  0.00  0.00    -0.273 OA
BRANCH   7  11
ATOM     11  C   UNL     1       9.029   1.236  22.363  0.00  0.00    +0.201 C 
BRANCH  11  12
ATOM     12  O   UNL     1       8.759   1.208  20.962  0.00  0.00    -0.383 OA
ATOM     13  H   UNL     1       7.866   0.821  20.869  0.00  0.00    +0.210 HD
ENDBRANCH  11  12
BRANCH  11  14
ATOM     14  C   UNL     1       8.234   2.390  22.983  0.00  0.00    +0.056 C 
BRANCH  14  15
ATOM     15  C   UNL     1       6.948   2.778  22.254  0.00  0.00    +0.080 C 
BRANCH  15  16
ATOM     16  N   UNL     1       5.928   1.738  22.341  0.00  0.00    -0.330 NA
ATOM     17  H   UNL     1       6.163   1.091  23.096  0.00  0.00    +0.118 HD
ATOM     18  H   UNL     1       5.987   1.166  21.494  0.00  0.00    +0.118 HD
ENDBRANCH  15  16
ENDBRANCH  14  15
ENDBRANCH  11  14
ENDBRANCH   7  11
ENDBRANCH   1   8
BRANCH   5  19
ATOM     19  N   UNL     1       5.656  -5.125  21.653  0.00  0.00    -0.325 NA
ATOM     20  H   UNL     1       4.816  -4.795  21.177  0.00  0.00    +0.119 HD
ATOM     21  H   UNL     1       6.408  -5.070  20.963  0.00  0.00    +0.119 HD
ENDBRANCH   5  19
BRANCH   3  22
ATOM     22  O   UNL     1       3.884  -2.174  25.206  0.00  0.00    -0.387 OA
ATOM     23  H   UNL     1       3.159  -2.819  25.150  0.00  0.00    +0.210 HD
ENDBRANCH   3  22
BRANCH   4  24
ATOM     24  O   UNL     1       3.908  -4.899  23.923  0.00  0.00    -0.341 OA
BRANCH  24  25
ATOM     25  C   UNL     1       4.402  -5.563  25.096  0.00  0.00    +0.282 C 
ATOM     26  C   UNL     1       4.252  -7.096  24.950  0.00  0.00    +0.201 C 
ATOM     27  C   UNL     1       2.789  -7.522  25.106  0.00  0.00    +0.179 C 
ATOM     28  C   UNL     1       2.199  -6.930  26.393  0.00  0.00    +0.176 C 
ATOM     29  C   UNL     1       2.408  -5.409  26.412  0.00  0.00    +0.166 C 
ATOM     30  O   UNL     1       3.804  -5.097  26.303  0.00  0.00    -0.342 OA
BRANCH  27  31
ATOM     31  O   UNL     1       2.691  -8.955  25.170  0.00  0.00    -0.386 OA
ATOM     32  H   UNL     1       3.552  -9.297  24.868  0.00  0.00    +0.210 HD
ENDBRANCH  27  31
BRANCH  26  33
ATOM     33  O   UNL     1       4.797  -7.536  23.697  0.00  0.00    -0.384 OA
ATOM     34  H   UNL     1       4.725  -8.508  23.697  0.00  0.00    +0.210 HD
ENDBRANCH  26  33
BRANCH  28  35
ATOM     35  O   UNL     1       0.817  -7.302  26.488  0.00  0.00    -0.387 OA
ATOM     36  H   UNL     1       0.587  -7.839  25.708  0.00  0.00    +0.210 HD
ENDBRANCH  28  35
BRANCH  29  37
ATOM     37  C   UNL     1       1.882  -4.794  27.725  0.00  0.00    +0.112 C 
BRANCH  37  38
ATOM     38  N   UNL     1       2.446  -3.454  27.940  0.00  0.00    -0.328 NA
ATOM     39  H   UNL     1       1.774  -2.887  28.455  0.00  0.00    +0.118 HD
ATOM     40  H   UNL     1       3.256  -3.558  28.560  0.00  0.00    +0.118 HD
ENDBRANCH  37  38
ENDBRANCH  29  37
ENDBRANCH  24  25
ENDBRANCH   4  24
BRANCH   2  41
ATOM     41  O   UNL     1       6.442  -1.003  25.538  0.00  0.00    -0.341 OA
BRANCH  41  42
ATOM     42  C   UNL     1       6.228   0.415  25.519  0.00  0.00    +0.281 C 
ATOM     43  C   UNL     1       7.166   1.262  26.409  0.00  0.00    +0.189 C 
ATOM     44  C   UNL     1       6.813   1.147  27.901  0.00  0.00    +0.116 C 
ATOM     45  C   UNL     1       5.293   1.307  28.131  0.00  0.00    +0.165 C 
ATOM     46  C   UNL     1       4.522   0.389  27.178  0.00  0.00    +0.177 C 
ATOM     47  O   UNL     1       4.863   0.728  25.821  0.00  0.00    -0.341 OA
BRANCH  44  48
ATOM     48  N   UNL     1       7.569   2.136  28.707  0.00  0.00    -0.323 NA
ATOM     49  H   UNL     1       8.582   2.004  28.572  0.00  0.00    +0.119 HD
ATOM     50  H   UNL     1       7.370   3.072  28.341  0.00  0.00    +0.119 HD
ENDBRANCH  44  48
BRANCH  45  51
ATOM     51  O   UNL     1       4.975   1.043  29.498  0.00  0.00    -0.388 OA
ATOM     52  H   UNL     1       5.506   0.282  29.797  0.00  0.00    +0.210 HD
ENDBRANCH  45  51
BRANCH  43  53
ATOM     53  O   UNL     1       8.540   0.985  26.130  0.00  0.00    -0.385 OA
ATOM     54  H   UNL     1       9.064   1.258  26.904  0.00  0.00    +0.210 HD
ENDBRANCH  43  53
BRANCH  46  55
ATOM     55  C   UNL     1       3.003   0.528  27.320  0.00  0.00    +0.190 C 
BRANCH  55  56
ATOM     56  O   UNL     1       2.356  -0.643  26.815  0.00  0.00    -0.392 OA
ATOM     57  H   UNL     1       1.449  -0.396  26.563  0.00  0.00    +0.210 HD
ENDBRANCH  55  56
ENDBRANCH  46  55
ENDBRANCH  41  42
ENDBRANCH   2  41
TORSDOF 22
ENDMDL
MODEL 5
REMARK VINA RESULT:      -6.4      2.860      4.352
REMARK  Name = 
REMARK  22 active torsions:
REMARK  status: ('A' for Active; 'I' for Inactive)
REMARK    1  A    between atoms: N_1  and  C_2
REMARK    2  A    between atoms: C_2  and  C_3
REMARK    3  A    between atoms: C_3  and  C_4
REMARK    4  A    between atoms: C_4  and  O_6
REMARK    5  A    between atoms: C_4  and  C_7
REMARK    6  A    between atoms: N_9  and  C_10
REMARK    7  A    between atoms: C_13  and  N_15
REMARK    8  A    between atoms: C_16  and  O_18
REMARK    9  A    between atoms: O_18  and  C_19
REMARK   10  A    between atoms: C_22  and  C_24
REMARK   11  A    between atoms: C_24  and  N_25
REMARK   12  A    between atoms: C_26  and  O_28
REMARK   13  A    between atoms: C_29  and  O_31
REMARK   14  A    between atoms: C_32  and  O_34
REMARK   15  A    between atoms: C_35  and  O_37
REMARK   16  A    between atoms: C_38  and  O_40
REMARK   17  A    between atoms: O_40  and  C_41
REMARK   18  A    between atoms: C_44  and  C_46
REMARK   19  A    between atoms: C_46  and  O_47
REMARK   20  A    between atoms: C_48  and  O_50
REMARK   21  A    between atoms: C_51  and  N_53
REMARK   22  A    between atoms: C_54  and  O_56
REMARK                            x       y       z     vdW  Elec       q    Type
REMARK                         _______ _______ _______ _____ _____    ______ ____
ROOT
ATOM      1  C   UNL     1       8.366   2.745  23.278  0.00  0.00    +0.106 C 
ATOM      2  C   UNL     1       7.020   2.131  23.765  0.00  0.00    +0.173 C 
ATOM      3  C   UNL     1       7.025   0.602  23.970  0.00  0.00    +0.175 C 
ATOM      4  C   UNL     1       7.706  -0.182  22.819  0.00  0.00    +0.169 C 
ATOM      5  C   UNL     1       9.130   0.395  22.580  0.00  0.00    +0.084 C 
ATOM      6  C   UNL     1       9.079   1.884  22.234  0.00  0.00    +0.046 C 
ENDROOT
BRANCH   1   8
ATOM      7  C   UNL     1       8.510   5.288  23.128  0.00  0.00    +0.242 C 
ATOM      8  N   UNL     1       8.093   4.069  22.664  0.00  0.00    -0.308 N 
ATOM      9  H   UNL     1       7.366   4.081  21.958  0.00  0.00    +0.149 HD
ATOM     10  O   UNL     1       9.307   5.403  24.059  0.00  0.00    -0.273 OA
BRANCH   7  11
ATOM     11  C   UNL     1       7.817   6.537  22.503  0.00  0.00    +0.201 C 
BRANCH  11  12
ATOM     12  O   UNL     1       7.504   6.307  21.131  0.00  0.00    -0.383 OA
ATOM     13  H   UNL     1       6.542   6.459  21.046  0.00  0.00    +0.210 HD
ENDBRANCH  11  12
BRANCH  11  14
ATOM     14  C   UNL     1       6.571   7.108  23.190  0.00  0.00    +0.056 C 
BRANCH  14  15
ATOM     15  C   UNL     1       5.509   6.087  23.595  0.00  0.00    +0.080 C 
BRANCH  15  16
ATOM     16  N   UNL     1       5.070   5.270  22.468  0.00  0.00    -0.330 NA
ATOM     17  H   UNL     1       5.186   5.795  21.599  0.00  0.00    +0.118 HD
ATOM     18  H   UNL     1       4.059   5.138  22.548  0.00  0.00    +0.118 HD
ENDBRANCH  15  16
ENDBRANCH  14  15
ENDBRANCH  11  14
ENDBRANCH   7  11
ENDBRANCH   1   8
BRANCH   5  19
ATOM     19  N   UNL     1       9.836  -0.307  21.490  0.00  0.00    -0.325 NA
ATOM     20  H   UNL     1       9.177  -0.886  20.967  0.00  0.00    +0.119 HD
ATOM     21  H   UNL     1      10.204   0.373  20.822  0.00  0.00    +0.119 HD
ENDBRANCH   5  19
BRANCH   3  22
ATOM     22  O   UNL     1       5.636   0.219  24.049  0.00  0.00    -0.387 OA
ATOM     23  H   UNL     1       5.238   0.401  23.180  0.00  0.00    +0.210 HD
ENDBRANCH   3  22
BRANCH   4  24
ATOM     24  O   UNL     1       7.844  -1.600  23.108  0.00  0.00    -0.341 OA
BRANCH  24  25
ATOM     25  C   UNL     1       8.209  -1.915  24.461  0.00  0.00    +0.282 C 
ATOM     26  C   UNL     1       9.140  -3.150  24.495  0.00  0.00    +0.201 C 
ATOM     27  C   UNL     1       8.355  -4.436  24.216  0.00  0.00    +0.179 C 
ATOM     28  C   UNL     1       7.130  -4.519  25.137  0.00  0.00    +0.176 C 
ATOM     29  C   UNL     1       6.291  -3.241  25.007  0.00  0.00    +0.166 C 
ATOM     30  O   UNL     1       7.086  -2.089  25.323  0.00  0.00    -0.342 OA
BRANCH  27  31
ATOM     31  O   UNL     1       9.186  -5.586  24.449  0.00  0.00    -0.386 OA
ATOM     32  H   UNL     1       9.412  -5.567  25.397  0.00  0.00    +0.210 HD
ENDBRANCH  27  31
BRANCH  26  33
ATOM     33  O   UNL     1      10.224  -2.985  23.569  0.00  0.00    -0.384 OA
ATOM     34  H   UNL     1      10.632  -2.125  23.781  0.00  0.00    +0.210 HD
ENDBRANCH  26  33
BRANCH  28  35
ATOM     35  O   UNL     1       6.389  -5.706  24.822  0.00  0.00    -0.387 OA
ATOM     36  H   UNL     1       7.019  -6.433  24.669  0.00  0.00    +0.210 HD
ENDBRANCH  28  35
BRANCH  29  37
ATOM     37  C   UNL     1       5.087  -3.268  25.970  0.00  0.00    +0.112 C 
BRANCH  37  38
ATOM     38  N   UNL     1       4.108  -2.231  25.615  0.00  0.00    -0.328 NA
ATOM     39  H   UNL     1       4.580  -1.486  25.105  0.00  0.00    +0.118 HD
ATOM     40  H   UNL     1       3.445  -2.646  24.953  0.00  0.00    +0.118 HD
ENDBRANCH  37  38
ENDBRANCH  29  37
ENDBRANCH  24  25
ENDBRANCH   4  24
BRANCH   2  41
ATOM     41  O   UNL     1       6.508   2.740  25.002  0.00  0.00    -0.341 OA
BRANCH  41  42
ATOM     42  C   UNL     1       7.400   2.598  26.117  0.00  0.00    +0.281 C 
ATOM     43  C   UNL     1       6.840   1.862  27.354  0.00  0.00    +0.189 C 
ATOM     44  C   UNL     1       5.853   2.730  28.151  0.00  0.00    +0.116 C 
ATOM     45  C   UNL     1       6.414   4.154  28.375  0.00  0.00    +0.165 C 
ATOM     46  C   UNL     1       6.909   4.734  27.046  0.00  0.00    +0.177 C 
ATOM     47  O   UNL     1       7.929   3.871  26.509  0.00  0.00    -0.341 OA
BRANCH  44  48
ATOM     48  N   UNL     1       5.509   2.096  29.447  0.00  0.00    -0.323 NA
ATOM     49  H   UNL     1       5.872   1.133  29.479  0.00  0.00    +0.119 HD
ATOM     50  H   UNL     1       6.004   2.595  30.193  0.00  0.00    +0.119 HD
ENDBRANCH  44  48
BRANCH  45  51
ATOM     51  O   UNL     1       5.419   4.981  28.979  0.00  0.00    -0.388 OA
ATOM     52  H   UNL     1       4.926   5.437  28.272  0.00  0.00    +0.210 HD
ENDBRANCH  45  51
BRANCH  43  53
ATOM     53  O   UNL     1       6.311   0.581  27.004  0.00  0.00    -0.385 OA
ATOM     54  H   UNL     1       6.597   0.378  26.095  0.00  0.00    +0.210 HD
ENDBRANCH  43  53
BRANCH  46  55
ATOM     55  C   UNL     1       7.521   6.129  27.200  0.00  0.00    +0.190 C 
BRANCH  55  56
ATOM     56  O   UNL     1       8.885   6.115  26.772  0.00  0.00    -0.392 OA
ATOM     57  H   UNL     1       8.932   6.573  25.914  0.00  0.00    +0.210 HD
ENDBRANCH  55  56
ENDBRANCH  46  55
ENDBRANCH  41  42
ENDBRANCH   2  41
TORSDOF 22
ENDMDL
MODEL 6
REMARK VINA RESULT:      -6.2      2.505      8.670
REMARK  Name = 
REMARK  22 active torsions:
REMARK  status: ('A' for Active; 'I' for Inactive)
REMARK    1  A    between atoms: N_1  and  C_2
REMARK    2  A    between atoms: C_2  and  C_3
REMARK    3  A    between atoms: C_3  and  C_4
REMARK    4  A    between atoms: C_4  and  O_6
REMARK    5  A    between atoms: C_4  and  C_7
REMARK    6  A    between atoms: N_9  and  C_10
REMARK    7  A    between atoms: C_13  and  N_15
REMARK    8  A    between atoms: C_16  and  O_18
REMARK    9  A    between atoms: O_18  and  C_19
REMARK   10  A    between atoms: C_22  and  C_24
REMARK   11  A    between atoms: C_24  and  N_25
REMARK   12  A    between atoms: C_26  and  O_28
REMARK   13  A    between atoms: C_29  and  O_31
REMARK   14  A    between atoms: C_32  and  O_34
REMARK   15  A    between atoms: C_35  and  O_37
REMARK   16  A    between atoms: C_38  and  O_40
REMARK   17  A    between atoms: O_40  and  C_41
REMARK   18  A    between atoms: C_44  and  C_46
REMARK   19  A    between atoms: C_46  and  O_47
REMARK   20  A    between atoms: C_48  and  O_50
REMARK   21  A    between atoms: C_51  and  N_53
REMARK   22  A    between atoms: C_54  and  O_56
REMARK                            x       y       z     vdW  Elec       q    Type
REMARK                         _______ _______ _______ _____ _____    ______ ____
ROOT
ATOM      1  C   UNL     1       7.893  -1.228  23.163  0.00  0.00    +0.106 C 
ATOM      2  C   UNL     1       8.465  -1.060  24.602  0.00  0.00    +0.173 C 
ATOM      3  C   UNL     1       8.819   0.385  25.010  0.00  0.00    +0.175 C 
ATOM      4  C   UNL     1       9.590   1.172  23.920  0.00  0.00    +0.169 C 
ATOM      5  C   UNL     1       8.797   1.104  22.584  0.00  0.00    +0.084 C 
ATOM      6  C   UNL     1       8.589  -0.342  22.130  0.00  0.00    +0.046 C 
ENDROOT
BRANCH   1   8
ATOM      7  C   UNL     1       7.137  -3.431  22.120  0.00  0.00    +0.242 C 
ATOM      8  N   UNL     1       8.068  -2.641  22.742  0.00  0.00    -0.308 N 
ATOM      9  H   UNL     1       8.874  -3.116  23.131  0.00  0.00    +0.149 HD
ATOM     10  O   UNL     1       6.067  -2.988  21.704  0.00  0.00    -0.273 OA
BRANCH   7  11
ATOM     11  C   UNL     1       7.443  -4.959  22.088  0.00  0.00    +0.201 C 
BRANCH  11  12
ATOM     12  O   UNL     1       8.089  -5.371  23.291  0.00  0.00    -0.383 OA
ATOM     13  H   UNL     1       7.552  -5.008  24.022  0.00  0.00    +0.210 HD
ENDBRANCH  11  12
BRANCH  11  14
ATOM     14  C   UNL     1       6.294  -5.934  21.803  0.00  0.00    +0.056 C 
BRANCH  14  15
ATOM     15  C   UNL     1       5.440  -6.324  23.009  0.00  0.00    +0.080 C 
BRANCH  15  16
ATOM     16  N   UNL     1       4.748  -5.180  23.591  0.00  0.00    -0.330 NA
ATOM     17  H   UNL     1       5.001  -5.092  24.577  0.00  0.00    +0.118 HD
ATOM     18  H   UNL     1       3.747  -5.390  23.608  0.00  0.00    +0.118 HD
ENDBRANCH  15  16
ENDBRANCH  14  15
ENDBRANCH  11  14
ENDBRANCH   7  11
ENDBRANCH   1   8
BRANCH   5  19
ATOM     19  N   UNL     1       9.479   1.835  21.497  0.00  0.00    -0.325 NA
ATOM     20  H   UNL     1      10.490   1.786  21.629  0.00  0.00    +0.119 HD
ATOM     21  H   UNL     1       9.291   1.378  20.602  0.00  0.00    +0.119 HD
ENDBRANCH   5  19
BRANCH   3  22
ATOM     22  O   UNL     1       9.651   0.261  26.184  0.00  0.00    -0.387 OA
ATOM     23  H   UNL     1       9.091   0.457  26.955  0.00  0.00    +0.210 HD
ENDBRANCH   3  22
BRANCH   4  24
ATOM     24  O   UNL     1       9.768   2.575  24.259  0.00  0.00    -0.341 OA
BRANCH  24  25
ATOM     25  C   UNL     1       8.708   3.445  23.836  0.00  0.00    +0.282 C 
ATOM     26  C   UNL     1       9.202   4.910  23.782  0.00  0.00    +0.201 C 
ATOM     27  C   UNL     1       9.358   5.489  25.192  0.00  0.00    +0.179 C 
ATOM     28  C   UNL     1       8.074   5.265  26.002  0.00  0.00    +0.176 C 
ATOM     29  C   UNL     1       7.696   3.778  25.981  0.00  0.00    +0.166 C 
ATOM     30  O   UNL     1       7.529   3.325  24.630  0.00  0.00    -0.342 OA
BRANCH  27  31
ATOM     31  O   UNL     1       9.620   6.901  25.124  0.00  0.00    -0.386 OA
ATOM     32  H   UNL     1      10.432   7.050  25.644  0.00  0.00    +0.210 HD
ENDBRANCH  27  31
BRANCH  26  33
ATOM     33  O   UNL     1      10.427   4.998  23.039  0.00  0.00    -0.384 OA
ATOM     34  H   UNL     1      11.141   5.046  23.701  0.00  0.00    +0.210 HD
ENDBRANCH  26  33
BRANCH  28  35
ATOM     35  O   UNL     1       8.265   5.771  27.330  0.00  0.00    -0.387 OA
ATOM     36  H   UNL     1       8.088   6.729  27.325  0.00  0.00    +0.210 HD
ENDBRANCH  28  35
BRANCH  29  37
ATOM     37  C   UNL     1       6.372   3.532  26.734  0.00  0.00    +0.112 C 
BRANCH  37  38
ATOM     38  N   UNL     1       5.796   2.229  26.371  0.00  0.00    -0.328 NA
ATOM     39  H   UNL     1       5.252   2.331  25.515  0.00  0.00    +0.118 HD
ATOM     40  H   UNL     1       6.573   1.604  26.134  0.00  0.00    +0.118 HD
ENDBRANCH  37  38
ENDBRANCH  29  37
ENDBRANCH  24  25
ENDBRANCH   4  24
BRANCH   2  41
ATOM     41  O   UNL     1       7.595  -1.614  25.651  0.00  0.00    -0.341 OA
BRANCH  41  42
ATOM     42  C   UNL     1       6.436  -2.282  25.134  0.00  0.00    +0.281 C 
ATOM     43  C   UNL     1       5.073  -1.834  25.708  0.00  0.00    +0.189 C 
ATOM     44  C   UNL     1       4.840  -2.361  27.133  0.00  0.00    +0.116 C 
ATOM     45  C   UNL     1       5.186  -3.864  27.238  0.00  0.00    +0.165 C 
ATOM     46  C   UNL     1       6.571  -4.123  26.636  0.00  0.00    +0.177 C 
ATOM     47  O   UNL     1       6.570  -3.703  25.258  0.00  0.00    -0.341 OA
BRANCH  44  48
ATOM     48  N   UNL     1       3.445  -2.117  27.571  0.00  0.00    -0.323 NA
ATOM     49  H   UNL     1       3.246  -1.106  27.576  0.00  0.00    +0.119 HD
ATOM     50  H   UNL     1       2.810  -2.512  26.870  0.00  0.00    +0.119 HD
ENDBRANCH  44  48
BRANCH  45  51
ATOM     51  O   UNL     1       5.110  -4.289  28.599  0.00  0.00    -0.388 OA
ATOM     52  H   UNL     1       5.097  -3.499  29.170  0.00  0.00    +0.210 HD
ENDBRANCH  45  51
BRANCH  43  53
ATOM     53  O   UNL     1       4.898  -0.420  25.592  0.00  0.00    -0.385 OA
ATOM     54  H   UNL     1       5.034  -0.029  26.473  0.00  0.00    +0.210 HD
ENDBRANCH  43  53
BRANCH  46  55
ATOM     55  C   UNL     1       6.963  -5.604  26.666  0.00  0.00    +0.190 C 
BRANCH  55  56
ATOM     56  O   UNL     1       7.513  -5.937  27.944  0.00  0.00    -0.392 OA
ATOM     57  H   UNL     1       7.477  -5.140  28.500  0.00  0.00    +0.210 HD
ENDBRANCH  55  56
ENDBRANCH  46  55
ENDBRANCH  41  42
ENDBRANCH   2  41
TORSDOF 22
ENDMDL
MODEL 7
REMARK VINA RESULT:      -6.2      2.954      4.681
REMARK  Name = 
REMARK  22 active torsions:
REMARK  status: ('A' for Active; 'I' for Inactive)
REMARK    1  A    between atoms: N_1  and  C_2
REMARK    2  A    between atoms: C_2  and  C_3
REMARK    3  A    between atoms: C_3  and  C_4
REMARK    4  A    between atoms: C_4  and  O_6
REMARK    5  A    between atoms: C_4  and  C_7
REMARK    6  A    between atoms: N_9  and  C_10
REMARK    7  A    between atoms: C_13  and  N_15
REMARK    8  A    between atoms: C_16  and  O_18
REMARK    9  A    between atoms: O_18  and  C_19
REMARK   10  A    between atoms: C_22  and  C_24
REMARK   11  A    between atoms: C_24  and  N_25
REMARK   12  A    between atoms: C_26  and  O_28
REMARK   13  A    between atoms: C_29  and  O_31
REMARK   14  A    between atoms: C_32  and  O_34
REMARK   15  A    between atoms: C_35  and  O_37
REMARK   16  A    between atoms: C_38  and  O_40
REMARK   17  A    between atoms: O_40  and  C_41
REMARK   18  A    between atoms: C_44  and  C_46
REMARK   19  A    between atoms: C_46  and  O_47
REMARK   20  A    between atoms: C_48  and  O_50
REMARK   21  A    between atoms: C_51  and  N_53
REMARK   22  A    between atoms: C_54  and  O_56
REMARK                            x       y       z     vdW  Elec       q    Type
REMARK                         _______ _______ _______ _____ _____    ______ ____
ROOT
ATOM      1  C   UNL     1       8.803   2.513  23.502  0.00  0.00    +0.106 C 
ATOM      2  C   UNL     1       7.618   2.046  24.398  0.00  0.00    +0.173 C 
ATOM      3  C   UNL     1       7.550   0.529  24.671  0.00  0.00    +0.175 C 
ATOM      4  C   UNL     1       7.781  -0.344  23.412  0.00  0.00    +0.169 C 
ATOM      5  C   UNL     1       9.112   0.083  22.731  0.00  0.00    +0.084 C 
ATOM      6  C   UNL     1       9.091   1.562  22.339  0.00  0.00    +0.046 C 
ENDROOT
BRANCH   1   8
ATOM      7  C   UNL     1       8.882   5.061  23.406  0.00  0.00    +0.242 C 
ATOM      8  N   UNL     1       8.475   3.843  22.930  0.00  0.00    -0.308 N 
ATOM      9  H   UNL     1       7.721   3.853  22.252  0.00  0.00    +0.149 HD
ATOM     10  O   UNL     1       9.711   5.174  24.308  0.00  0.00    -0.273 OA
BRANCH   7  11
ATOM     11  C   UNL     1       8.136   6.307  22.837  0.00  0.00    +0.201 C 
BRANCH  11  12
ATOM     12  O   UNL     1       7.859   6.138  21.447  0.00  0.00    -0.383 OA
ATOM     13  H   UNL     1       7.952   5.182  21.270  0.00  0.00    +0.210 HD
ENDBRANCH  11  12
BRANCH  11  14
ATOM     14  C   UNL     1       6.851   6.774  23.529  0.00  0.00    +0.056 C 
BRANCH  14  15
ATOM     15  C   UNL     1       5.547   6.438  22.806  0.00  0.00    +0.080 C 
BRANCH  15  16
ATOM     16  N   UNL     1       5.440   5.018  22.490  0.00  0.00    -0.330 NA
ATOM     17  H   UNL     1       5.669   4.464  23.318  0.00  0.00    +0.118 HD
ATOM     18  H   UNL     1       6.180   4.786  21.821  0.00  0.00    +0.118 HD
ENDBRANCH  15  16
ENDBRANCH  14  15
ENDBRANCH  11  14
ENDBRANCH   7  11
ENDBRANCH   1   8
BRANCH   5  19
ATOM     19  N   UNL     1       9.393  -0.711  21.518  0.00  0.00    -0.325 NA
ATOM     20  H   UNL     1      10.389  -0.929  21.470  0.00  0.00    +0.119 HD
ATOM     21  H   UNL     1       8.913  -1.611  21.575  0.00  0.00    +0.119 HD
ENDBRANCH   5  19
BRANCH   3  22
ATOM     22  O   UNL     1       6.220   0.288  25.178  0.00  0.00    -0.387 OA
ATOM     23  H   UNL     1       6.312  -0.252  25.982  0.00  0.00    +0.210 HD
ENDBRANCH   3  22
BRANCH   4  24
ATOM     24  O   UNL     1       7.875  -1.762  23.719  0.00  0.00    -0.341 OA
BRANCH  24  25
ATOM     25  C   UNL     1       8.564  -2.078  24.938  0.00  0.00    +0.282 C 
ATOM     26  C   UNL     1       9.531  -3.266  24.719  0.00  0.00    +0.201 C 
ATOM     27  C   UNL     1       8.761  -4.585  24.600  0.00  0.00    +0.179 C 
ATOM     28  C   UNL     1       7.794  -4.743  25.782  0.00  0.00    +0.176 C 
ATOM     29  C   UNL     1       6.892  -3.506  25.887  0.00  0.00    +0.166 C 
ATOM     30  O   UNL     1       7.687  -2.320  26.036  0.00  0.00    -0.342 OA
BRANCH  27  31
ATOM     31  O   UNL     1       9.674  -5.696  24.600  0.00  0.00    -0.386 OA
ATOM     32  H   UNL     1      10.489  -5.374  24.173  0.00  0.00    +0.210 HD
ENDBRANCH  27  31
BRANCH  26  33
ATOM     33  O   UNL     1      10.355  -3.033  23.567  0.00  0.00    -0.384 OA
ATOM     34  H   UNL     1       9.744  -2.878  22.824  0.00  0.00    +0.210 HD
ENDBRANCH  26  33
BRANCH  28  35
ATOM     35  O   UNL     1       7.053  -5.960  25.621  0.00  0.00    -0.387 OA
ATOM     36  H   UNL     1       7.657  -6.647  25.285  0.00  0.00    +0.210 HD
ENDBRANCH  28  35
BRANCH  29  37
ATOM     37  C   UNL     1       5.953  -3.607  27.107  0.00  0.00    +0.112 C 
BRANCH  37  38
ATOM     38  N   UNL     1       6.397  -4.667  28.024  0.00  0.00    -0.328 NA
ATOM     39  H   UNL     1       7.376  -4.514  28.264  0.00  0.00    +0.118 HD
ATOM     40  H   UNL     1       5.876  -4.556  28.899  0.00  0.00    +0.118 HD
ENDBRANCH  37  38
ENDBRANCH  29  37
ENDBRANCH  24  25
ENDBRANCH   4  24
BRANCH   2  41
ATOM     41  O   UNL     1       7.556   2.731  25.698  0.00  0.00    -0.341 OA
BRANCH  41  42
ATOM     42  C   UNL     1       6.623   3.820  25.723  0.00  0.00    +0.281 C 
ATOM     43  C   UNL     1       6.849   4.892  26.813  0.00  0.00    +0.189 C 
ATOM     44  C   UNL     1       6.433   4.400  28.209  0.00  0.00    +0.116 C 
ATOM     45  C   UNL     1       5.047   3.717  28.172  0.00  0.00    +0.165 C 
ATOM     46  C   UNL     1       5.007   2.679  27.045  0.00  0.00    +0.177 C 
ATOM     47  O   UNL     1       5.277   3.336  25.792  0.00  0.00    -0.341 OA
BRANCH  44  48
ATOM     48  N   UNL     1       6.441   5.510  29.191  0.00  0.00    -0.323 NA
ATOM     49  H   UNL     1       6.705   6.392  28.730  0.00  0.00    +0.119 HD
ATOM     50  H   UNL     1       5.482   5.657  29.521  0.00  0.00    +0.119 HD
ENDBRANCH  44  48
BRANCH  45  51
ATOM     51  O   UNL     1       4.755   3.133  29.442  0.00  0.00    -0.388 OA
ATOM     52  H   UNL     1       5.089   2.218  29.446  0.00  0.00    +0.210 HD
ENDBRANCH  45  51
BRANCH  43  53
ATOM     53  O   UNL     1       8.181   5.409  26.769  0.00  0.00    -0.385 OA
ATOM     54  H   UNL     1       8.319   5.805  25.890  0.00  0.00    +0.210 HD
ENDBRANCH  43  53
BRANCH  46  55
ATOM     55  C   UNL     1       3.644   1.991  26.921  0.00  0.00    +0.190 C 
BRANCH  55  56
ATOM     56  O   UNL     1       3.808   0.673  26.389  0.00  0.00    -0.392 OA
ATOM     57  H   UNL     1       3.063   0.501  25.788  0.00  0.00    +0.210 HD
ENDBRANCH  55  56
ENDBRANCH  46  55
ENDBRANCH  41  42
ENDBRANCH   2  41
TORSDOF 22
ENDMDL
MODEL 8
REMARK VINA RESULT:      -6.1      2.363      8.716
REMARK  Name = 
REMARK  22 active torsions:
REMARK  status: ('A' for Active; 'I' for Inactive)
REMARK    1  A    between atoms: N_1  and  C_2
REMARK    2  A    between atoms: C_2  and  C_3
REMARK    3  A    between atoms: C_3  and  C_4
REMARK    4  A    between atoms: C_4  and  O_6
REMARK    5  A    between atoms: C_4  and  C_7
REMARK    6  A    between atoms: N_9  and  C_10
REMARK    7  A    between atoms: C_13  and  N_15
REMARK    8  A    between atoms: C_16  and  O_18
REMARK    9  A    between atoms: O_18  and  C_19
REMARK   10  A    between atoms: C_22  and  C_24
REMARK   11  A    between atoms: C_24  and  N_25
REMARK   12  A    between atoms: C_26  and  O_28
REMARK   13  A    between atoms: C_29  and  O_31
REMARK   14  A    between atoms: C_32  and  O_34
REMARK   15  A    between atoms: C_35  and  O_37
REMARK   16  A    between atoms: C_38  and  O_40
REMARK   17  A    between atoms: O_40  and  C_41
REMARK   18  A    between atoms: C_44  and  C_46
REMARK   19  A    between atoms: C_46  and  O_47
REMARK   20  A    between atoms: C_48  and  O_50
REMARK   21  A    between atoms: C_51  and  N_53
REMARK   22  A    between atoms: C_54  and  O_56
REMARK                            x       y       z     vdW  Elec       q    Type
REMARK                         _______ _______ _______ _____ _____    ______ ____
ROOT
ATOM      1  C   UNL     1       8.150  -2.128  23.537  0.00  0.00    +0.106 C 
ATOM      2  C   UNL     1       6.802  -1.613  24.121  0.00  0.00    +0.173 C 
ATOM      3  C   UNL     1       6.385  -0.196  23.677  0.00  0.00    +0.175 C 
ATOM      4  C   UNL     1       7.538   0.839  23.724  0.00  0.00    +0.169 C 
ATOM      5  C   UNL     1       8.750   0.290  22.917  0.00  0.00    +0.084 C 
ATOM      6  C   UNL     1       9.233  -1.050  23.475  0.00  0.00    +0.046 C 
ENDROOT
BRANCH   1   8
ATOM      7  C   UNL     1       8.502  -4.573  24.179  0.00  0.00    +0.242 C 
ATOM      8  N   UNL     1       8.654  -3.229  24.396  0.00  0.00    -0.308 N 
ATOM      9  H   UNL     1       8.958  -2.954  25.324  0.00  0.00    +0.149 HD
ATOM     10  O   UNL     1       8.037  -5.024  23.133  0.00  0.00    -0.273 OA
BRANCH   7  11
ATOM     11  C   UNL     1       8.823  -5.506  25.386  0.00  0.00    +0.201 C 
BRANCH  11  12
ATOM     12  O   UNL     1      10.206  -5.855  25.401  0.00  0.00    -0.383 OA
ATOM     13  H   UNL     1      10.549  -5.628  24.514  0.00  0.00    +0.210 HD
ENDBRANCH  11  12
BRANCH  11  14
ATOM     14  C   UNL     1       8.428  -5.049  26.795  0.00  0.00    +0.056 C 
BRANCH  14  15
ATOM     15  C   UNL     1       7.046  -5.488  27.274  0.00  0.00    +0.080 C 
BRANCH  15  16
ATOM     16  N   UNL     1       7.119  -6.435  28.381  0.00  0.00    -0.330 NA
ATOM     17  H   UNL     1       6.349  -7.103  28.312  0.00  0.00    +0.118 HD
ATOM     18  H   UNL     1       6.931  -5.925  29.248  0.00  0.00    +0.118 HD
ENDBRANCH  15  16
ENDBRANCH  14  15
ENDBRANCH  11  14
ENDBRANCH   7  11
ENDBRANCH   1   8
BRANCH   5  19
ATOM     19  N   UNL     1       9.889   1.229  22.923  0.00  0.00    -0.325 NA
ATOM     20  H   UNL     1      10.746   0.736  22.670  0.00  0.00    +0.119 HD
ATOM     21  H   UNL     1       9.754   1.941  22.201  0.00  0.00    +0.119 HD
ENDBRANCH   5  19
BRANCH   3  22
ATOM     22  O   UNL     1       5.348   0.207  24.597  0.00  0.00    -0.387 OA
ATOM     23  H   UNL     1       4.592   0.508  24.065  0.00  0.00    +0.210 HD
ENDBRANCH   3  22
BRANCH   4  24
ATOM     24  O   UNL     1       7.167   2.122  23.149  0.00  0.00    -0.341 OA
BRANCH  24  25
ATOM     25  C   UNL     1       6.834   3.144  24.100  0.00  0.00    +0.282 C 
ATOM     26  C   UNL     1       5.714   4.055  23.543  0.00  0.00    +0.201 C 
ATOM     27  C   UNL     1       6.258   4.990  22.458  0.00  0.00    +0.179 C 
ATOM     28  C   UNL     1       7.503   5.728  22.969  0.00  0.00    +0.176 C 
ATOM     29  C   UNL     1       8.533   4.715  23.488  0.00  0.00    +0.166 C 
ATOM     30  O   UNL     1       7.959   3.908  24.526  0.00  0.00    -0.342 OA
BRANCH  27  31
ATOM     31  O   UNL     1       5.263   5.962  22.094  0.00  0.00    -0.386 OA
ATOM     32  H   UNL     1       5.200   6.578  22.847  0.00  0.00    +0.210 HD
ENDBRANCH  27  31
BRANCH  26  33
ATOM     33  O   UNL     1       4.621   3.263  23.055  0.00  0.00    -0.384 OA
ATOM     34  H   UNL     1       4.096   3.016  23.838  0.00  0.00    +0.210 HD
ENDBRANCH  26  33
BRANCH  28  35
ATOM     35  O   UNL     1       8.018   6.558  21.919  0.00  0.00    -0.387 OA
ATOM     36  H   UNL     1       8.763   7.077  22.272  0.00  0.00    +0.210 HD
ENDBRANCH  28  35
BRANCH  29  37
ATOM     37  C   UNL     1       9.770   5.432  24.068  0.00  0.00    +0.112 C 
BRANCH  37  38
ATOM     38  N   UNL     1      10.697   5.828  22.999  0.00  0.00    -0.328 NA
ATOM     39  H   UNL     1      11.226   6.645  23.301  0.00  0.00    +0.118 HD
ATOM     40  H   UNL     1      11.384   5.075  22.893  0.00  0.00    +0.118 HD
ENDBRANCH  37  38
ENDBRANCH  29  37
ENDBRANCH  24  25
ENDBRANCH   4  24
BRANCH   2  41
ATOM     41  O   UNL     1       5.665  -2.509  23.859  0.00  0.00    -0.341 OA
BRANCH  41  42
ATOM     42  C   UNL     1       5.465  -3.488  24.887  0.00  0.00    +0.281 C 
ATOM     43  C   UNL     1       4.621  -4.725  24.503  0.00  0.00    +0.189 C 
ATOM     44  C   UNL     1       3.121  -4.400  24.409  0.00  0.00    +0.116 C 
ATOM     45  C   UNL     1       2.648  -3.579  25.631  0.00  0.00    +0.165 C 
ATOM     46  C   UNL     1       3.588  -2.390  25.856  0.00  0.00    +0.177 C 
ATOM     47  O   UNL     1       4.925  -2.883  26.069  0.00  0.00    -0.341 OA
BRANCH  44  48
ATOM     48  N   UNL     1       2.314  -5.635  24.268  0.00  0.00    -0.323 NA
ATOM     49  H   UNL     1       1.850  -5.861  25.159  0.00  0.00    +0.119 HD
ATOM     50  H   UNL     1       1.552  -5.451  23.608  0.00  0.00    +0.119 HD
ENDBRANCH  44  48
BRANCH  45  51
ATOM     51  O   UNL     1       1.296  -3.160  25.445  0.00  0.00    -0.388 OA
ATOM     52  H   UNL     1       0.721  -3.946  25.474  0.00  0.00    +0.210 HD
ENDBRANCH  45  51
BRANCH  43  53
ATOM     53  O   UNL     1       5.136  -5.363  23.332  0.00  0.00    -0.385 OA
ATOM     54  H   UNL     1       4.605  -5.067  22.572  0.00  0.00    +0.210 HD
ENDBRANCH  43  53
BRANCH  46  55
ATOM     55  C   UNL     1       3.205  -1.555  27.082  0.00  0.00    +0.190 C 
BRANCH  55  56
ATOM     56  O   UNL     1       2.175  -0.625  26.736  0.00  0.00    -0.392 OA
ATOM     57  H   UNL     1       2.155   0.064  27.422  0.00  0.00    +0.210 HD
ENDBRANCH  55  56
ENDBRANCH  46  55
ENDBRANCH  41  42
ENDBRANCH   2  41
TORSDOF 22
ENDMDL
MODEL 9
REMARK VINA RESULT:      -6.1      2.819      9.045
REMARK  Name = 
REMARK  22 active torsions:
REMARK  status: ('A' for Active; 'I' for Inactive)
REMARK    1  A    between atoms: N_1  and  C_2
REMARK    2  A    between atoms: C_2  and  C_3
REMARK    3  A    between atoms: C_3  and  C_4
REMARK    4  A    between atoms: C_4  and  O_6
REMARK    5  A    between atoms: C_4  and  C_7
REMARK    6  A    between atoms: N_9  and  C_10
REMARK    7  A    between atoms: C_13  and  N_15
REMARK    8  A    between atoms: C_16  and  O_18
REMARK    9  A    between atoms: O_18  and  C_19
REMARK   10  A    between atoms: C_22  and  C_24
REMARK   11  A    between atoms: C_24  and  N_25
REMARK   12  A    between atoms: C_26  and  O_28
REMARK   13  A    between atoms: C_29  and  O_31
REMARK   14  A    between atoms: C_32  and  O_34
REMARK   15  A    between atoms: C_35  and  O_37
REMARK   16  A    between atoms: C_38  and  O_40
REMARK   17  A    between atoms: O_40  and  C_41
REMARK   18  A    between atoms: C_44  and  C_46
REMARK   19  A    between atoms: C_46  and  O_47
REMARK   20  A    between atoms: C_48  and  O_50
REMARK   21  A    between atoms: C_51  and  N_53
REMARK   22  A    between atoms: C_54  and  O_56
REMARK                            x       y       z     vdW  Elec       q    Type
REMARK                         _______ _______ _______ _____ _____    ______ ____
ROOT
ATOM      1  C   UNL     1       4.406  -0.277  27.302  0.00  0.00    +0.106 C 
ATOM      2  C   UNL     1       5.208  -1.110  26.259  0.00  0.00    +0.173 C 
ATOM      3  C   UNL     1       6.221  -0.313  25.412  0.00  0.00    +0.175 C 
ATOM      4  C   UNL     1       5.665   1.027  24.868  0.00  0.00    +0.169 C 
ATOM      5  C   UNL     1       5.087   1.858  26.049  0.00  0.00    +0.084 C 
ATOM      6  C   UNL     1       3.980   1.096  26.780  0.00  0.00    +0.046 C 
ENDROOT
BRANCH   1   8
ATOM      7  C   UNL     1       2.980  -1.774  28.798  0.00  0.00    +0.242 C 
ATOM      8  N   UNL     1       3.176  -1.025  27.668  0.00  0.00    -0.308 N 
ATOM      9  H   UNL     1       2.505  -1.154  26.919  0.00  0.00    +0.149 HD
ATOM     10  O   UNL     1       3.783  -1.787  29.730  0.00  0.00    -0.273 OA
BRANCH   7  11
ATOM     11  C   UNL     1       1.743  -2.724  28.787  0.00  0.00    +0.201 C 
BRANCH  11  12
ATOM     12  O   UNL     1       0.537  -1.981  28.615  0.00  0.00    -0.383 OA
ATOM     13  H   UNL     1       0.770  -1.048  28.789  0.00  0.00    +0.210 HD
ENDBRANCH  11  12
BRANCH  11  14
ATOM     14  C   UNL     1       1.727  -3.900  27.804  0.00  0.00    +0.056 C 
BRANCH  14  15
ATOM     15  C   UNL     1       0.912  -3.689  26.529  0.00  0.00    +0.080 C 
BRANCH  15  16
ATOM     16  N   UNL     1       1.484  -2.655  25.672  0.00  0.00    -0.330 NA
ATOM     17  H   UNL     1       2.340  -3.005  25.239  0.00  0.00    +0.118 HD
ATOM     18  H   UNL     1       1.801  -1.888  26.271  0.00  0.00    +0.118 HD
ENDBRANCH  15  16
ENDBRANCH  14  15
ENDBRANCH  11  14
ENDBRANCH   7  11
ENDBRANCH   1   8
BRANCH   5  19
ATOM     19  N   UNL     1       4.535   3.151  25.598  0.00  0.00    -0.325 NA
ATOM     20  H   UNL     1       3.568   3.030  25.298  0.00  0.00    +0.119 HD
ATOM     21  H   UNL     1       4.505   3.806  26.382  0.00  0.00    +0.119 HD
ENDBRANCH   5  19
BRANCH   3  22
ATOM     22  O   UNL     1       6.557  -1.173  24.303  0.00  0.00    -0.387 OA
ATOM     23  H   UNL     1       7.111  -1.892  24.653  0.00  0.00    +0.210 HD
ENDBRANCH   3  22
BRANCH   4  24
ATOM     24  O   UNL     1       6.682   1.835  24.213  0.00  0.00    -0.341 OA
BRANCH  24  25
ATOM     25  C   UNL     1       7.944   1.898  24.895  0.00  0.00    +0.282 C 
ATOM     26  C   UNL     1       8.587   3.293  24.710  0.00  0.00    +0.201 C 
ATOM     27  C   UNL     1       9.141   3.457  23.291  0.00  0.00    +0.179 C 
ATOM     28  C   UNL     1      10.047   2.270  22.935  0.00  0.00    +0.176 C 
ATOM     29  C   UNL     1       9.292   0.952  23.157  0.00  0.00    +0.166 C 
ATOM     30  O   UNL     1       8.843   0.858  24.517  0.00  0.00    -0.342 OA
BRANCH  27  31
ATOM     31  O   UNL     1       9.909   4.669  23.193  0.00  0.00    -0.386 OA
ATOM     32  H   UNL     1       9.848   4.952  22.262  0.00  0.00    +0.210 HD
ENDBRANCH  27  31
BRANCH  26  33
ATOM     33  O   UNL     1       7.643   4.326  25.028  0.00  0.00    -0.384 OA
ATOM     34  H   UNL     1       8.109   4.945  25.620  0.00  0.00    +0.210 HD
ENDBRANCH  26  33
BRANCH  28  35
ATOM     35  O   UNL     1      10.512   2.424  21.587  0.00  0.00    -0.387 OA
ATOM     36  H   UNL     1      10.047   3.180  21.185  0.00  0.00    +0.210 HD
ENDBRANCH  28  35
BRANCH  29  37
ATOM     37  C   UNL     1      10.200  -0.261  22.870  0.00  0.00    +0.112 C 
BRANCH  37  38
ATOM     38  N   UNL     1       9.881  -0.857  21.564  0.00  0.00    -0.328 NA
ATOM     39  H   UNL     1       8.895  -1.115  21.546  0.00  0.00    +0.118 HD
ATOM     40  H   UNL     1       9.991  -0.124  20.857  0.00  0.00    +0.118 HD
ENDBRANCH  37  38
ENDBRANCH  29  37
ENDBRANCH  24  25
ENDBRANCH   4  24
BRANCH   2  41
ATOM     41  O   UNL     1       5.925  -2.254  26.844  0.00  0.00    -0.341 OA
BRANCH  41  42
ATOM     42  C   UNL     1       5.364  -3.522  26.479  0.00  0.00    +0.281 C 
ATOM     43  C   UNL     1       5.531  -4.667  27.504  0.00  0.00    +0.189 C 
ATOM     44  C   UNL     1       6.966  -5.219  27.530  0.00  0.00    +0.116 C 
ATOM     45  C   UNL     1       7.495  -5.474  26.100  0.00  0.00    +0.165 C 
ATOM     46  C   UNL     1       7.259  -4.236  25.229  0.00  0.00    +0.177 C 
ATOM     47  O   UNL     1       5.849  -3.944  25.199  0.00  0.00    -0.341 OA
BRANCH  44  48
ATOM     48  N   UNL     1       7.048  -6.456  28.344  0.00  0.00    -0.323 NA
ATOM     49  H   UNL     1       6.104  -6.764  28.619  0.00  0.00    +0.119 HD
ATOM     50  H   UNL     1       7.414  -7.209  27.753  0.00  0.00    +0.119 HD
ENDBRANCH  44  48
BRANCH  45  51
ATOM     51  O   UNL     1       8.875  -5.837  26.147  0.00  0.00    -0.388 OA
ATOM     52  H   UNL     1       8.939  -6.785  26.361  0.00  0.00    +0.210 HD
ENDBRANCH  45  51
BRANCH  43  53
ATOM     53  O   UNL     1       5.048  -4.286  28.794  0.00  0.00    -0.385 OA
ATOM     54  H   UNL     1       5.694  -3.674  29.187  0.00  0.00    +0.210 HD
ENDBRANCH  43  53
BRANCH  46  55
ATOM     55  C   UNL     1       7.720  -4.433  23.782  0.00  0.00    +0.190 C 
BRANCH  55  56
ATOM     56  O   UNL     1       8.334  -3.236  23.297  0.00  0.00    -0.392 OA
ATOM     57  H   UNL     1       8.007  -2.495  23.837  0.00  0.00    +0.210 HD
ENDBRANCH  55  56
ENDBRANCH  46  55
ENDBRANCH  41  42
ENDBRANCH   2  41
TORSDOF 22
ENDMDL
