MODEL 1
REMARK VINA RESULT:      -7.1      0.000      0.000
REMARK  Name = 
REMARK  6 active torsions:
REMARK  status: ('A' for Active; 'I' for Inactive)
REMARK    1  A    between atoms: O_1  and  C_2
REMARK    2  A    between atoms: C_2  and  C_4
REMARK    3  A    between atoms: N_10  and  C_11
REMARK    4  A    between atoms: C_11  and  C_12
REMARK    5  A    between atoms: C_20  and  C_28
REMARK    6  A    between atoms: C_21  and  C_22
REMARK                            x       y       z     vdW  Elec       q    Type
REMARK                         _______ _______ _______ _____ _____    ______ ____
ROOT
ATOM      1  C   UNL     1       6.625   0.316  28.082  0.00  0.00    +0.061 A 
ATOM      2  C   UNL     1       7.355  -0.297  27.053  0.00  0.00    +0.041 A 
ATOM      3  C   UNL     1       6.778  -1.390  26.351  0.00  0.00    +0.051 A 
ATOM      4  N   UNL     1       7.284  -2.189  25.330  0.00  0.00    -0.331 N 
ATOM      5  C   UNL     1       6.340  -3.149  24.922  0.00  0.00    +0.054 A 
ATOM      6  C   UNL     1       5.292  -3.087  25.880  0.00  0.00    -0.011 A 
ATOM      7  C   UNL     1       5.510  -1.873  26.656  0.00  0.00    +0.004 A 
ATOM      8  C   UNL     1       4.771  -1.157  27.633  0.00  0.00    +0.011 A 
ATOM      9  C   UNL     1       5.336  -0.103  28.362  0.00  0.00    +0.016 A 
ENDROOT
BRANCH   5  10
ATOM     10  C   UNL     1       6.506  -4.021  23.706  0.00  0.00    -0.001 A 
ATOM     11  C   UNL     1       5.763  -3.816  22.535  0.00  0.00    +0.010 A 
ATOM     12  C   UNL     1       5.893  -4.667  21.417  0.00  0.00    +0.001 A 
ATOM     13  C   UNL     1       6.826  -5.702  21.410  0.00  0.00    +0.000 A 
ATOM     14  C   UNL     1       7.596  -5.908  22.536  0.00  0.00    +0.001 A 
ATOM     15  C   UNL     1       7.394  -5.104  23.663  0.00  0.00    +0.010 A 
ENDBRANCH   5  10
BRANCH   6  16
ATOM     16  C   UNL     1       4.093  -4.053  26.087  0.00  0.00    +0.022 C 
ATOM     17  C   UNL     1       3.612  -4.217  27.558  0.00  0.00    +0.008 C 
ATOM     18  C   UNL     1       4.662  -4.882  28.451  0.00  0.00    +0.001 C 
ATOM     19  C   UNL     1       5.021  -6.267  27.921  0.00  0.00    +0.000 C 
ATOM     20  C   UNL     1       5.378  -6.234  26.440  0.00  0.00    +0.001 C 
ATOM     21  C   UNL     1       4.314  -5.506  25.617  0.00  0.00    +0.008 C 
ENDBRANCH   6  16
BRANCH   1  22
ATOM     22  C   UNL     1       7.218   1.377  28.935  0.00  0.00    +0.337 C 
ATOM     23  O   UNL     1       6.753   2.496  29.012  0.00  0.00    -0.245 OA
BRANCH  22  24
ATOM     24  O   UNL     1       8.327   0.982  29.588  0.00  0.00    -0.477 OA
ATOM     25  H   UNL     1       8.744   1.673  30.133  0.00  0.00    +0.295 HD
ENDBRANCH  22  24
ENDBRANCH   1  22
BRANCH   4  26
ATOM     26  C   UNL     1       8.584  -1.892  24.716  0.00  0.00    +0.218 C 
BRANCH  26  27
ATOM     27  C   UNL     1       8.631  -0.885  23.572  0.00  0.00    +0.235 C 
ATOM     28  N   UNL     1       9.829  -0.305  23.189  0.00  0.00    -0.296 N 
ATOM     29  C   UNL     1      10.681   0.416  24.129  0.00  0.00    +0.136 C 
ATOM     30  C   UNL     1      10.343   1.910  24.071  0.00  0.00    +0.179 C 
ATOM     31  O   UNL     1      10.462   2.427  22.735  0.00  0.00    -0.377 OA
ATOM     32  C   UNL     1       9.598   1.725  21.824  0.00  0.00    +0.179 C 
ATOM     33  C   UNL     1       9.932   0.239  21.828  0.00  0.00    +0.136 C 
ATOM     34  O   UNL     1       7.591  -0.673  22.930  0.00  0.00    -0.274 OA
ENDBRANCH  26  27
ENDBRANCH   4  26
TORSDOF 6
ENDMDL
MODEL 2
REMARK VINA RESULT:      -6.9      2.130      5.823
REMARK  Name = 
REMARK  6 active torsions:
REMARK  status: ('A' for Active; 'I' for Inactive)
REMARK    1  A    between atoms: O_1  and  C_2
REMARK    2  A    between atoms: C_2  and  C_4
REMARK    3  A    between atoms: N_10  and  C_11
REMARK    4  A    between atoms: C_11  and  C_12
REMARK    5  A    between atoms: C_20  and  C_28
REMARK    6  A    between atoms: C_21  and  C_22
REMARK                            x       y       z     vdW  Elec       q    Type
REMARK                         _______ _______ _______ _____ _____    ______ ____
ROOT
ATOM      1  C   UNL     1       6.714   0.258  27.954  0.00  0.00    +0.061 A 
ATOM      2  C   UNL     1       5.990  -0.581  27.094  0.00  0.00    +0.041 A 
ATOM      3  C   UNL     1       6.675  -1.259  26.050  0.00  0.00    +0.051 A 
ATOM      4  N   UNL     1       6.206  -2.107  25.051  0.00  0.00    -0.331 N 
ATOM      5  C   UNL     1       7.260  -2.566  24.240  0.00  0.00    +0.054 A 
ATOM      6  C   UNL     1       8.394  -1.794  24.612  0.00  0.00    -0.011 A 
ATOM      7  C   UNL     1       8.044  -1.113  25.850  0.00  0.00    +0.004 A 
ATOM      8  C   UNL     1       8.749  -0.335  26.806  0.00  0.00    +0.011 A 
ATOM      9  C   UNL     1       8.087   0.371  27.818  0.00  0.00    +0.016 A 
ENDROOT
BRANCH   5  10
ATOM     10  C   UNL     1       7.110  -3.653  23.209  0.00  0.00    -0.001 A 
ATOM     11  C   UNL     1       6.417  -3.449  22.007  0.00  0.00    +0.010 A 
ATOM     12  C   UNL     1       6.242  -4.488  21.069  0.00  0.00    +0.001 A 
ATOM     13  C   UNL     1       6.821  -5.739  21.269  0.00  0.00    +0.000 A 
ATOM     14  C   UNL     1       7.538  -5.960  22.427  0.00  0.00    +0.001 A 
ATOM     15  C   UNL     1       7.631  -4.942  23.382  0.00  0.00    +0.010 A 
ENDBRANCH   5  10
BRANCH   6  16
ATOM     16  C   UNL     1       9.780  -1.688  23.918  0.00  0.00    +0.022 C 
ATOM     17  C   UNL     1      10.522  -0.334  24.110  0.00  0.00    +0.008 C 
ATOM     18  C   UNL     1       9.791   0.839  23.453  0.00  0.00    +0.001 C 
ATOM     19  C   UNL     1       9.633   0.603  21.954  0.00  0.00    +0.000 C 
ATOM     20  C   UNL     1       9.035  -0.766  21.653  0.00  0.00    +0.001 C 
ATOM     21  C   UNL     1       9.779  -1.883  22.387  0.00  0.00    +0.008 C 
ENDBRANCH   6  16
BRANCH   1  22
ATOM     22  C   UNL     1       6.041   1.090  28.984  0.00  0.00    +0.337 C 
ATOM     23  O   UNL     1       5.020   0.744  29.545  0.00  0.00    -0.245 OA
BRANCH  22  24
ATOM     24  O   UNL     1       6.658   2.264  29.212  0.00  0.00    -0.477 OA
ATOM     25  H   UNL     1       7.515   2.366  28.761  0.00  0.00    +0.295 HD
ENDBRANCH  22  24
ENDBRANCH   1  22
BRANCH   4  26
ATOM     26  C   UNL     1       4.802  -2.535  25.025  0.00  0.00    +0.218 C 
BRANCH  26  27
ATOM     27  C   UNL     1       4.481  -3.989  25.359  0.00  0.00    +0.235 C 
ATOM     28  N   UNL     1       4.519  -4.439  26.667  0.00  0.00    -0.296 N 
ATOM     29  C   UNL     1       5.704  -4.294  27.507  0.00  0.00    +0.136 C 
ATOM     30  C   UNL     1       6.545  -5.572  27.413  0.00  0.00    +0.179 C 
ATOM     31  O   UNL     1       5.779  -6.736  27.763  0.00  0.00    -0.377 OA
ATOM     32  C   UNL     1       4.629  -6.881  26.912  0.00  0.00    +0.179 C 
ATOM     33  C   UNL     1       3.749  -5.642  27.009  0.00  0.00    +0.136 C 
ATOM     34  O   UNL     1       4.091  -4.731  24.445  0.00  0.00    -0.274 OA
ENDBRANCH  26  27
ENDBRANCH   4  26
TORSDOF 6
ENDMDL
MODEL 3
REMARK VINA RESULT:      -6.8      1.870      5.471
REMARK  Name = 
REMARK  6 active torsions:
REMARK  status: ('A' for Active; 'I' for Inactive)
REMARK    1  A    between atoms: O_1  and  C_2
REMARK    2  A    between atoms: C_2  and  C_4
REMARK    3  A    between atoms: N_10  and  C_11
REMARK    4  A    between atoms: C_11  and  C_12
REMARK    5  A    between atoms: C_20  and  C_28
REMARK    6  A    between atoms: C_21  and  C_22
REMARK                            x       y       z     vdW  Elec       q    Type
REMARK                         _______ _______ _______ _____ _____    ______ ____
ROOT
ATOM      1  C   UNL     1       9.924   0.503  23.230  0.00  0.00    +0.061 A 
ATOM      2  C   UNL     1       9.303   0.226  24.457  0.00  0.00    +0.041 A 
ATOM      3  C   UNL     1       8.732  -1.058  24.670  0.00  0.00    +0.051 A 
ATOM      4  N   UNL     1       8.039  -1.579  25.758  0.00  0.00    -0.331 N 
ATOM      5  C   UNL     1       7.672  -2.919  25.531  0.00  0.00    +0.054 A 
ATOM      6  C   UNL     1       7.953  -3.165  24.160  0.00  0.00    -0.011 A 
ATOM      7  C   UNL     1       8.765  -2.049  23.695  0.00  0.00    +0.004 A 
ATOM      8  C   UNL     1       9.491  -1.756  22.510  0.00  0.00    +0.011 A 
ATOM      9  C   UNL     1      10.027  -0.486  22.267  0.00  0.00    +0.016 A 
ENDROOT
BRANCH   5  10
ATOM     10  C   UNL     1       7.099  -3.820  26.592  0.00  0.00    -0.001 A 
ATOM     11  C   UNL     1       7.724  -5.017  26.970  0.00  0.00    +0.010 A 
ATOM     12  C   UNL     1       7.155  -5.877  27.933  0.00  0.00    +0.001 A 
ATOM     13  C   UNL     1       5.982  -5.528  28.600  0.00  0.00    +0.000 A 
ATOM     14  C   UNL     1       5.362  -4.341  28.273  0.00  0.00    +0.001 A 
ATOM     15  C   UNL     1       5.899  -3.541  27.259  0.00  0.00    +0.010 A 
ENDBRANCH   5  10
BRANCH   6  16
ATOM     16  C   UNL     1       7.553  -4.381  23.279  0.00  0.00    +0.022 C 
ATOM     17  C   UNL     1       6.991  -4.031  21.871  0.00  0.00    +0.008 C 
ATOM     18  C   UNL     1       5.657  -3.285  21.936  0.00  0.00    +0.001 C 
ATOM     19  C   UNL     1       4.607  -4.120  22.663  0.00  0.00    +0.000 C 
ATOM     20  C   UNL     1       5.115  -4.630  24.006  0.00  0.00    +0.001 C 
ATOM     21  C   UNL     1       6.477  -5.314  23.874  0.00  0.00    +0.008 C 
ENDBRANCH   6  16
BRANCH   1  22
ATOM     22  C   UNL     1      10.427   1.860  22.898  0.00  0.00    +0.337 C 
ATOM     23  O   UNL     1      10.964   2.581  23.716  0.00  0.00    -0.245 OA
BRANCH  22  24
ATOM     24  O   UNL     1      10.209   2.215  21.618  0.00  0.00    -0.477 OA
ATOM     25  H   UNL     1       9.273   2.204  21.349  0.00  0.00    +0.295 HD
ENDBRANCH  22  24
ENDBRANCH   1  22
BRANCH   4  26
ATOM     26  C   UNL     1       7.896  -0.808  26.999  0.00  0.00    +0.218 C 
BRANCH  26  27
ATOM     27  C   UNL     1       6.654   0.059  27.174  0.00  0.00    +0.235 C 
ATOM     28  N   UNL     1       5.584  -0.053  26.303  0.00  0.00    -0.296 N 
ATOM     29  C   UNL     1       5.736   0.099  24.859  0.00  0.00    +0.136 C 
ATOM     30  C   UNL     1       5.445   1.553  24.473  0.00  0.00    +0.179 C 
ATOM     31  O   UNL     1       4.145   1.969  24.922  0.00  0.00    -0.377 OA
ATOM     32  C   UNL     1       4.018   1.839  26.349  0.00  0.00    +0.179 C 
ATOM     33  C   UNL     1       4.263   0.395  26.764  0.00  0.00    +0.136 C 
ATOM     34  O   UNL     1       6.584   0.795  28.171  0.00  0.00    -0.274 OA
ENDBRANCH  26  27
ENDBRANCH   4  26
TORSDOF 6
ENDMDL
MODEL 4
REMARK VINA RESULT:      -6.8      2.403      6.050
REMARK  Name = 
REMARK  6 active torsions:
REMARK  status: ('A' for Active; 'I' for Inactive)
REMARK    1  A    between atoms: O_1  and  C_2
REMARK    2  A    between atoms: C_2  and  C_4
REMARK    3  A    between atoms: N_10  and  C_11
REMARK    4  A    between atoms: C_11  and  C_12
REMARK    5  A    between atoms: C_20  and  C_28
REMARK    6  A    between atoms: C_21  and  C_22
REMARK                            x       y       z     vdW  Elec       q    Type
REMARK                         _______ _______ _______ _____ _____    ______ ____
ROOT
ATOM      1  C   UNL     1       6.190   0.186  27.958  0.00  0.00    +0.061 A 
ATOM      2  C   UNL     1       5.560  -0.692  27.065  0.00  0.00    +0.041 A 
ATOM      3  C   UNL     1       6.340  -1.351  26.075  0.00  0.00    +0.051 A 
ATOM      4  N   UNL     1       5.974  -2.229  25.060  0.00  0.00    -0.331 N 
ATOM      5  C   UNL     1       7.097  -2.649  24.324  0.00  0.00    +0.054 A 
ATOM      6  C   UNL     1       8.170  -1.825  24.758  0.00  0.00    -0.011 A 
ATOM      7  C   UNL     1       7.711  -1.146  25.962  0.00  0.00    +0.004 A 
ATOM      8  C   UNL     1       8.318  -0.328  26.951  0.00  0.00    +0.011 A 
ATOM      9  C   UNL     1       7.563   0.358  27.909  0.00  0.00    +0.016 A 
ENDROOT
BRANCH   5  10
ATOM     10  C   UNL     1       7.061  -3.753  23.300  0.00  0.00    -0.001 A 
ATOM     11  C   UNL     1       6.435  -3.594  22.056  0.00  0.00    +0.010 A 
ATOM     12  C   UNL     1       6.366  -4.649  21.122  0.00  0.00    +0.001 A 
ATOM     13  C   UNL     1       6.989  -5.870  21.374  0.00  0.00    +0.000 A 
ATOM     14  C   UNL     1       7.642  -6.045  22.576  0.00  0.00    +0.001 A 
ATOM     15  C   UNL     1       7.629  -5.014  23.522  0.00  0.00    +0.010 A 
ENDBRANCH   5  10
BRANCH   6  16
ATOM     16  C   UNL     1       9.592  -1.664  24.153  0.00  0.00    +0.022 C 
ATOM     17  C   UNL     1      10.250  -0.269  24.353  0.00  0.00    +0.008 C 
ATOM     18  C   UNL     1       9.507   0.846  23.614  0.00  0.00    +0.001 C 
ATOM     19  C   UNL     1       9.461   0.563  22.116  0.00  0.00    +0.000 C 
ATOM     20  C   UNL     1       8.954  -0.843  21.818  0.00  0.00    +0.001 C 
ATOM     21  C   UNL     1       9.703  -1.900  22.631  0.00  0.00    +0.008 C 
ENDBRANCH   6  16
BRANCH   1  22
ATOM     22  C   UNL     1       5.416   0.998  28.931  0.00  0.00    +0.337 C 
ATOM     23  O   UNL     1       4.323   1.463  28.678  0.00  0.00    -0.245 OA
BRANCH  22  24
ATOM     24  O   UNL     1       6.055   1.185  30.101  0.00  0.00    -0.477 OA
ATOM     25  H   UNL     1       5.724   0.638  30.835  0.00  0.00    +0.295 HD
ENDBRANCH  22  24
ENDBRANCH   1  22
BRANCH   4  26
ATOM     26  C   UNL     1       4.594  -2.719  24.950  0.00  0.00    +0.218 C 
BRANCH  26  27
ATOM     27  C   UNL     1       4.279  -4.119  25.465  0.00  0.00    +0.235 C 
ATOM     28  N   UNL     1       4.274  -5.205  24.605  0.00  0.00    -0.296 N 
ATOM     29  C   UNL     1       3.448  -5.241  23.402  0.00  0.00    +0.136 C 
ATOM     30  C   UNL     1       2.120  -5.935  23.724  0.00  0.00    +0.179 C 
ATOM     31  O   UNL     1       2.328  -7.247  24.271  0.00  0.00    -0.377 OA
ATOM     32  C   UNL     1       3.120  -7.194  25.470  0.00  0.00    +0.179 C 
ATOM     33  C   UNL     1       4.466  -6.544  25.178  0.00  0.00    +0.136 C 
ATOM     34  O   UNL     1       4.126  -4.278  26.686  0.00  0.00    -0.274 OA
ENDBRANCH  26  27
ENDBRANCH   4  26
TORSDOF 6
ENDMDL
MODEL 5
REMARK VINA RESULT:      -6.8      2.999      7.804
REMARK  Name = 
REMARK  6 active torsions:
REMARK  status: ('A' for Active; 'I' for Inactive)
REMARK    1  A    between atoms: O_1  and  C_2
REMARK    2  A    between atoms: C_2  and  C_4
REMARK    3  A    between atoms: N_10  and  C_11
REMARK    4  A    between atoms: C_11  and  C_12
REMARK    5  A    between atoms: C_20  and  C_28
REMARK    6  A    between atoms: C_21  and  C_22
REMARK                            x       y       z     vdW  Elec       q    Type
REMARK                         _______ _______ _______ _____ _____    ______ ____
ROOT
ATOM      1  C   UNL     1       8.838  -3.754  25.369  0.00  0.00    +0.061 A 
ATOM      2  C   UNL     1       7.936  -2.932  26.061  0.00  0.00    +0.041 A 
ATOM      3  C   UNL     1       7.945  -1.532  25.815  0.00  0.00    +0.051 A 
ATOM      4  N   UNL     1       7.198  -0.502  26.377  0.00  0.00    -0.331 N 
ATOM      5  C   UNL     1       7.536   0.739  25.806  0.00  0.00    +0.054 A 
ATOM      6  C   UNL     1       8.695   0.496  25.021  0.00  0.00    -0.011 A 
ATOM      7  C   UNL     1       8.826  -0.950  24.910  0.00  0.00    +0.004 A 
ATOM      8  C   UNL     1       9.648  -1.832  24.161  0.00  0.00    +0.011 A 
ATOM      9  C   UNL     1       9.680  -3.208  24.416  0.00  0.00    +0.016 A 
ENDROOT
BRANCH   5  10
ATOM     10  C   UNL     1       6.765   2.009  26.049  0.00  0.00    -0.001 A 
ATOM     11  C   UNL     1       5.590   2.313  25.347  0.00  0.00    +0.010 A 
ATOM     12  C   UNL     1       4.900   3.528  25.550  0.00  0.00    +0.001 A 
ATOM     13  C   UNL     1       5.323   4.438  26.516  0.00  0.00    +0.000 A 
ATOM     14  C   UNL     1       6.456   4.151  27.247  0.00  0.00    +0.001 A 
ATOM     15  C   UNL     1       7.172   2.980  26.974  0.00  0.00    +0.010 A 
ENDBRANCH   5  10
BRANCH   6  16
ATOM     16  C   UNL     1       9.652   1.515  24.341  0.00  0.00    +0.022 C 
ATOM     17  C   UNL     1       8.983   2.828  23.840  0.00  0.00    +0.008 C 
ATOM     18  C   UNL     1       7.984   2.586  22.707  0.00  0.00    +0.001 C 
ATOM     19  C   UNL     1       8.670   1.928  21.514  0.00  0.00    +0.000 C 
ATOM     20  C   UNL     1       9.471   0.699  21.926  0.00  0.00    +0.001 C 
ATOM     21  C   UNL     1      10.407   0.999  23.098  0.00  0.00    +0.008 C 
ENDBRANCH   6  16
BRANCH   1  22
ATOM     22  C   UNL     1       8.965  -5.202  25.670  0.00  0.00    +0.337 C 
ATOM     23  O   UNL     1       8.101  -5.832  26.247  0.00  0.00    -0.245 OA
BRANCH  22  24
ATOM     24  O   UNL     1      10.133  -5.734  25.265  0.00  0.00    -0.477 OA
ATOM     25  H   UNL     1      10.483  -5.360  24.437  0.00  0.00    +0.295 HD
ENDBRANCH  22  24
ENDBRANCH   1  22
BRANCH   4  26
ATOM     26  C   UNL     1       6.111  -0.789  27.321  0.00  0.00    +0.218 C 
BRANCH  26  27
ATOM     27  C   UNL     1       4.831  -1.420  26.782  0.00  0.00    +0.235 C 
ATOM     28  N   UNL     1       4.171  -2.402  27.500  0.00  0.00    -0.296 N 
ATOM     29  C   UNL     1       4.834  -3.628  27.935  0.00  0.00    +0.136 C 
ATOM     30  C   UNL     1       4.598  -4.725  26.891  0.00  0.00    +0.179 C 
ATOM     31  O   UNL     1       3.197  -4.931  26.647  0.00  0.00    -0.377 OA
ATOM     32  C   UNL     1       2.562  -3.723  26.195  0.00  0.00    +0.179 C 
ATOM     33  C   UNL     1       2.744  -2.619  27.228  0.00  0.00    +0.136 C 
ATOM     34  O   UNL     1       4.343  -0.963  25.737  0.00  0.00    -0.274 OA
ENDBRANCH  26  27
ENDBRANCH   4  26
TORSDOF 6
ENDMDL
MODEL 6
REMARK VINA RESULT:      -6.7      2.910      6.142
REMARK  Name = 
REMARK  6 active torsions:
REMARK  status: ('A' for Active; 'I' for Inactive)
REMARK    1  A    between atoms: O_1  and  C_2
REMARK    2  A    between atoms: C_2  and  C_4
REMARK    3  A    between atoms: N_10  and  C_11
REMARK    4  A    between atoms: C_11  and  C_12
REMARK    5  A    between atoms: C_20  and  C_28
REMARK    6  A    between atoms: C_21  and  C_22
REMARK                            x       y       z     vdW  Elec       q    Type
REMARK                         _______ _______ _______ _____ _____    ______ ____
ROOT
ATOM      1  C   UNL     1       5.666  -4.019  27.524  0.00  0.00    +0.061 A 
ATOM      2  C   UNL     1       6.626  -3.833  26.519  0.00  0.00    +0.041 A 
ATOM      3  C   UNL     1       6.783  -2.544  25.940  0.00  0.00    +0.051 A 
ATOM      4  N   UNL     1       7.618  -2.096  24.922  0.00  0.00    -0.331 N 
ATOM      5  C   UNL     1       7.443  -0.719  24.691  0.00  0.00    +0.054 A 
ATOM      6  C   UNL     1       6.295  -0.348  25.442  0.00  0.00    -0.011 A 
ATOM      7  C   UNL     1       6.008  -1.460  26.338  0.00  0.00    +0.004 A 
ATOM      8  C   UNL     1       5.122  -1.673  27.427  0.00  0.00    +0.011 A 
ATOM      9  C   UNL     1       4.927  -2.943  27.983  0.00  0.00    +0.016 A 
ENDROOT
BRANCH   5  10
ATOM     10  C   UNL     1       8.342   0.101  23.804  0.00  0.00    -0.001 A 
ATOM     11  C   UNL     1       9.562   0.623  24.257  0.00  0.00    +0.010 A 
ATOM     12  C   UNL     1      10.374   1.429  23.431  0.00  0.00    +0.001 A 
ATOM     13  C   UNL     1      10.027   1.672  22.104  0.00  0.00    +0.000 A 
ATOM     14  C   UNL     1       8.849   1.144  21.619  0.00  0.00    +0.001 A 
ATOM     15  C   UNL     1       8.018   0.416  22.478  0.00  0.00    +0.010 A 
ENDBRANCH   5  10
BRANCH   6  16
ATOM     16  C   UNL     1       5.486   0.978  25.407  0.00  0.00    +0.022 C 
ATOM     17  C   UNL     1       6.305   2.252  25.054  0.00  0.00    +0.008 C 
ATOM     18  C   UNL     1       7.352   2.594  26.116  0.00  0.00    +0.001 C 
ATOM     19  C   UNL     1       6.691   2.827  27.471  0.00  0.00    +0.000 C 
ATOM     20  C   UNL     1       5.753   1.687  27.849  0.00  0.00    +0.001 C 
ATOM     21  C   UNL     1       4.772   1.362  26.721  0.00  0.00    +0.008 C 
ENDBRANCH   6  16
BRANCH   1  22
ATOM     22  C   UNL     1       5.366  -5.363  28.079  0.00  0.00    +0.337 C 
ATOM     23  O   UNL     1       4.651  -5.531  29.046  0.00  0.00    -0.245 OA
BRANCH  22  24
ATOM     24  O   UNL     1       5.982  -6.364  27.422  0.00  0.00    -0.477 OA
ATOM     25  H   UNL     1       5.536  -6.647  26.605  0.00  0.00    +0.295 HD
ENDBRANCH  22  24
ENDBRANCH   1  22
BRANCH   4  26
ATOM     26  C   UNL     1       8.630  -2.983  24.333  0.00  0.00    +0.218 C 
BRANCH  26  27
ATOM     27  C   UNL     1       8.162  -4.269  23.660  0.00  0.00    +0.235 C 
ATOM     28  N   UNL     1       7.321  -4.226  22.561  0.00  0.00    -0.296 N 
ATOM     29  C   UNL     1       6.037  -3.533  22.589  0.00  0.00    +0.136 C 
ATOM     30  C   UNL     1       4.934  -4.533  22.954  0.00  0.00    +0.179 C 
ATOM     31  O   UNL     1       4.918  -5.654  22.056  0.00  0.00    -0.377 OA
ATOM     32  C   UNL     1       6.180  -6.343  22.058  0.00  0.00    +0.179 C 
ATOM     33  C   UNL     1       7.297  -5.387  21.661  0.00  0.00    +0.136 C 
ATOM     34  O   UNL     1       8.630  -5.346  24.058  0.00  0.00    -0.274 OA
ENDBRANCH  26  27
ENDBRANCH   4  26
TORSDOF 6
ENDMDL
MODEL 7
REMARK VINA RESULT:      -6.6      1.975      5.539
REMARK  Name = 
REMARK  6 active torsions:
REMARK  status: ('A' for Active; 'I' for Inactive)
REMARK    1  A    between atoms: O_1  and  C_2
REMARK    2  A    between atoms: C_2  and  C_4
REMARK    3  A    between atoms: N_10  and  C_11
REMARK    4  A    between atoms: C_11  and  C_12
REMARK    5  A    between atoms: C_20  and  C_28
REMARK    6  A    between atoms: C_21  and  C_22
REMARK                            x       y       z     vdW  Elec       q    Type
REMARK                         _______ _______ _______ _____ _____    ______ ____
ROOT
ATOM      1  C   UNL     1       8.949  -0.009  22.653  0.00  0.00    +0.061 A 
ATOM      2  C   UNL     1       7.779   0.114  23.417  0.00  0.00    +0.041 A 
ATOM      3  C   UNL     1       7.236  -1.041  24.043  0.00  0.00    +0.051 A 
ATOM      4  N   UNL     1       6.090  -1.207  24.814  0.00  0.00    -0.331 N 
ATOM      5  C   UNL     1       5.958  -2.540  25.246  0.00  0.00    +0.054 A 
ATOM      6  C   UNL     1       6.940  -3.274  24.527  0.00  0.00    -0.011 A 
ATOM      7  C   UNL     1       7.828  -2.294  23.917  0.00  0.00    +0.004 A 
ATOM      8  C   UNL     1       9.063  -2.349  23.219  0.00  0.00    +0.011 A 
ATOM      9  C   UNL     1       9.593  -1.231  22.564  0.00  0.00    +0.016 A 
ENDROOT
BRANCH   5  10
ATOM     10  C   UNL     1       4.943  -2.994  26.261  0.00  0.00    -0.001 A 
ATOM     11  C   UNL     1       5.312  -3.420  27.544  0.00  0.00    +0.010 A 
ATOM     12  C   UNL     1       4.357  -3.887  28.472  0.00  0.00    +0.001 A 
ATOM     13  C   UNL     1       2.997  -3.869  28.170  0.00  0.00    +0.000 A 
ATOM     14  C   UNL     1       2.600  -3.424  26.927  0.00  0.00    +0.001 A 
ATOM     15  C   UNL     1       3.569  -3.042  25.992  0.00  0.00    +0.010 A 
ENDBRANCH   5  10
BRANCH   6  16
ATOM     16  C   UNL     1       7.125  -4.812  24.410  0.00  0.00    +0.022 C 
ATOM     17  C   UNL     1       7.748  -5.311  23.074  0.00  0.00    +0.008 C 
ATOM     18  C   UNL     1       6.846  -5.047  21.867  0.00  0.00    +0.001 C 
ATOM     19  C   UNL     1       5.498  -5.740  22.039  0.00  0.00    +0.000 C 
ATOM     20  C   UNL     1       4.863  -5.421  23.388  0.00  0.00    +0.001 C 
ATOM     21  C   UNL     1       5.838  -5.654  24.543  0.00  0.00    +0.008 C 
ENDBRANCH   6  16
BRANCH   1  22
ATOM     22  C   UNL     1       9.495   1.129  21.873  0.00  0.00    +0.337 C 
ATOM     23  O   UNL     1      10.517   1.710  22.183  0.00  0.00    -0.245 OA
BRANCH  22  24
ATOM     24  O   UNL     1       8.739   1.465  20.811  0.00  0.00    -0.477 OA
ATOM     25  H   UNL     1       8.001   2.067  21.014  0.00  0.00    +0.295 HD
ENDBRANCH  22  24
ENDBRANCH   1  22
BRANCH   4  26
ATOM     26  C   UNL     1       5.272  -0.053  25.206  0.00  0.00    +0.218 C 
BRANCH  26  27
ATOM     27  C   UNL     1       5.693   0.751  26.432  0.00  0.00    +0.235 C 
ATOM     28  N   UNL     1       5.587   2.132  26.443  0.00  0.00    -0.296 N 
ATOM     29  C   UNL     1       6.215   2.969  25.425  0.00  0.00    +0.136 C 
ATOM     30  C   UNL     1       7.592   3.421  25.925  0.00  0.00    +0.179 C 
ATOM     31  O   UNL     1       7.499   4.094  27.191  0.00  0.00    -0.377 OA
ATOM     32  C   UNL     1       6.903   3.249  28.190  0.00  0.00    +0.179 C 
ATOM     33  C   UNL     1       5.515   2.811  27.743  0.00  0.00    +0.136 C 
ATOM     34  O   UNL     1       6.038   0.134  27.451  0.00  0.00    -0.274 OA
ENDBRANCH  26  27
ENDBRANCH   4  26
TORSDOF 6
ENDMDL
MODEL 8
REMARK VINA RESULT:      -6.5      2.159      5.583
REMARK  Name = 
REMARK  6 active torsions:
REMARK  status: ('A' for Active; 'I' for Inactive)
REMARK    1  A    between atoms: O_1  and  C_2
REMARK    2  A    between atoms: C_2  and  C_4
REMARK    3  A    between atoms: N_10  and  C_11
REMARK    4  A    between atoms: C_11  and  C_12
REMARK    5  A    between atoms: C_20  and  C_28
REMARK    6  A    between atoms: C_21  and  C_22
REMARK                            x       y       z     vdW  Elec       q    Type
REMARK                         _______ _______ _______ _____ _____    ______ ____
ROOT
ATOM      1  C   UNL     1       9.424   1.906  23.862  0.00  0.00    +0.061 A 
ATOM      2  C   UNL     1       9.268   0.512  23.853  0.00  0.00    +0.041 A 
ATOM      3  C   UNL     1       8.372  -0.090  24.778  0.00  0.00    +0.051 A 
ATOM      4  N   UNL     1       8.057  -1.426  25.007  0.00  0.00    -0.331 N 
ATOM      5  C   UNL     1       7.090  -1.553  26.021  0.00  0.00    +0.054 A 
ATOM      6  C   UNL     1       6.967  -0.260  26.597  0.00  0.00    -0.011 A 
ATOM      7  C   UNL     1       7.647   0.662  25.697  0.00  0.00    +0.004 A 
ATOM      8  C   UNL     1       7.763   2.074  25.600  0.00  0.00    +0.011 A 
ATOM      9  C   UNL     1       8.667   2.683  24.722  0.00  0.00    +0.016 A 
ENDROOT
BRANCH   5  10
ATOM     10  C   UNL     1       6.393  -2.845  26.354  0.00  0.00    -0.001 A 
ATOM     11  C   UNL     1       7.001  -3.840  27.133  0.00  0.00    +0.010 A 
ATOM     12  C   UNL     1       6.357  -5.067  27.401  0.00  0.00    +0.001 A 
ATOM     13  C   UNL     1       5.055  -5.302  26.963  0.00  0.00    +0.000 A 
ATOM     14  C   UNL     1       4.418  -4.328  26.224  0.00  0.00    +0.001 A 
ATOM     15  C   UNL     1       5.104  -3.153  25.900  0.00  0.00    +0.010 A 
ENDBRANCH   5  10
BRANCH   6  16
ATOM     16  C   UNL     1       6.229   0.171  27.894  0.00  0.00    +0.022 C 
ATOM     17  C   UNL     1       4.879  -0.553  28.167  0.00  0.00    +0.008 C 
ATOM     18  C   UNL     1       3.812  -0.229  27.120  0.00  0.00    +0.001 C 
ATOM     19  C   UNL     1       3.536   1.272  27.079  0.00  0.00    +0.000 C 
ATOM     20  C   UNL     1       4.820   2.083  26.950  0.00  0.00    +0.001 C 
ATOM     21  C   UNL     1       5.860   1.667  27.991  0.00  0.00    +0.008 C 
ENDBRANCH   6  16
BRANCH   1  22
ATOM     22  C   UNL     1      10.433   2.583  23.010  0.00  0.00    +0.337 C 
ATOM     23  O   UNL     1      11.245   3.372  23.452  0.00  0.00    -0.245 OA
BRANCH  22  24
ATOM     24  O   UNL     1      10.343   2.256  21.707  0.00  0.00    -0.477 OA
ATOM     25  H   UNL     1      11.069   2.594  21.153  0.00  0.00    +0.295 HD
ENDBRANCH  22  24
ENDBRANCH   1  22
BRANCH   4  26
ATOM     26  C   UNL     1       8.596  -2.484  24.144  0.00  0.00    +0.218 C 
BRANCH  26  27
ATOM     27  C   UNL     1       7.811  -2.872  22.895  0.00  0.00    +0.235 C 
ATOM     28  N   UNL     1       6.808  -3.825  22.958  0.00  0.00    -0.296 N 
ATOM     29  C   UNL     1       7.043  -5.170  23.476  0.00  0.00    +0.136 C 
ATOM     30  C   UNL     1       7.378  -6.106  22.309  0.00  0.00    +0.179 C 
ATOM     31  O   UNL     1       6.349  -6.090  21.307  0.00  0.00    -0.377 OA
ATOM     32  C   UNL     1       6.146  -4.765  20.787  0.00  0.00    +0.179 C 
ATOM     33  C   UNL     1       5.774  -3.813  21.916  0.00  0.00    +0.136 C 
ATOM     34  O   UNL     1       8.023  -2.244  21.847  0.00  0.00    -0.274 OA
ENDBRANCH  26  27
ENDBRANCH   4  26
TORSDOF 6
ENDMDL
MODEL 9
REMARK VINA RESULT:      -6.4      3.093      7.823
REMARK  Name = 
REMARK  6 active torsions:
REMARK  status: ('A' for Active; 'I' for Inactive)
REMARK    1  A    between atoms: O_1  and  C_2
REMARK    2  A    between atoms: C_2  and  C_4
REMARK    3  A    between atoms: N_10  and  C_11
REMARK    4  A    between atoms: C_11  and  C_12
REMARK    5  A    between atoms: C_20  and  C_28
REMARK    6  A    between atoms: C_21  and  C_22
REMARK                            x       y       z     vdW  Elec       q    Type
REMARK                         _______ _______ _______ _____ _____    ______ ____
ROOT
ATOM      1  C   UNL     1       6.283  -4.365  22.325  0.00  0.00    +0.061 A 
ATOM      2  C   UNL     1       5.702  -3.737  23.437  0.00  0.00    +0.041 A 
ATOM      3  C   UNL     1       6.352  -2.613  24.015  0.00  0.00    +0.051 A 
ATOM      4  N   UNL     1       6.022  -1.837  25.122  0.00  0.00    -0.331 N 
ATOM      5  C   UNL     1       6.957  -0.803  25.314  0.00  0.00    +0.054 A 
ATOM      6  C   UNL     1       8.029  -1.087  24.425  0.00  0.00    -0.011 A 
ATOM      7  C   UNL     1       7.551  -2.117  23.514  0.00  0.00    +0.004 A 
ATOM      8  C   UNL     1       8.046  -2.722  22.328  0.00  0.00    +0.011 A 
ATOM      9  C   UNL     1       7.441  -3.852  21.767  0.00  0.00    +0.016 A 
ENDROOT
BRANCH   5  10
ATOM     10  C   UNL     1       6.768   0.324  26.295  0.00  0.00    -0.001 A 
ATOM     11  C   UNL     1       6.069   1.492  25.961  0.00  0.00    +0.010 A 
ATOM     12  C   UNL     1       5.937   2.561  26.872  0.00  0.00    +0.001 A 
ATOM     13  C   UNL     1       6.435   2.461  28.170  0.00  0.00    +0.000 A 
ATOM     14  C   UNL     1       7.098   1.310  28.539  0.00  0.00    +0.001 A 
ATOM     15  C   UNL     1       7.289   0.295  27.595  0.00  0.00    +0.010 A 
ENDBRANCH   5  10
BRANCH   6  16
ATOM     16  C   UNL     1       9.437  -0.435  24.346  0.00  0.00    +0.022 C 
ATOM     17  C   UNL     1       9.488   1.088  24.661  0.00  0.00    +0.008 C 
ATOM     18  C   UNL     1       8.734   1.929  23.629  0.00  0.00    +0.001 C 
ATOM     19  C   UNL     1       9.318   1.722  22.235  0.00  0.00    +0.000 C 
ATOM     20  C   UNL     1       9.438   0.244  21.882  0.00  0.00    +0.001 C 
ATOM     21  C   UNL     1      10.151  -0.544  22.982  0.00  0.00    +0.008 C 
ENDBRANCH   6  16
BRANCH   1  22
ATOM     22  C   UNL     1       5.722  -5.615  21.753  0.00  0.00    +0.337 C 
ATOM     23  O   UNL     1       5.845  -5.916  20.582  0.00  0.00    -0.245 OA
BRANCH  22  24
ATOM     24  O   UNL     1       5.050  -6.361  22.650  0.00  0.00    -0.477 OA
ATOM     25  H   UNL     1       5.477  -6.428  23.522  0.00  0.00    +0.295 HD
ENDBRANCH  22  24
ENDBRANCH   1  22
BRANCH   4  26
ATOM     26  C   UNL     1       4.759  -2.049  25.840  0.00  0.00    +0.218 C 
BRANCH  26  27
ATOM     27  C   UNL     1       4.582  -3.341  26.631  0.00  0.00    +0.235 C 
ATOM     28  N   UNL     1       5.539  -3.745  27.547  0.00  0.00    -0.296 N 
ATOM     29  C   UNL     1       6.942  -3.920  27.183  0.00  0.00    +0.136 C 
ATOM     30  C   UNL     1       7.185  -5.386  26.809  0.00  0.00    +0.179 C 
ATOM     31  O   UNL     1       6.791  -6.274  27.869  0.00  0.00    -0.377 OA
ATOM     32  C   UNL     1       5.402  -6.109  28.200  0.00  0.00    +0.179 C 
ATOM     33  C   UNL     1       5.131  -4.669  28.613  0.00  0.00    +0.136 C 
ATOM     34  O   UNL     1       3.519  -3.967  26.508  0.00  0.00    -0.274 OA
ENDBRANCH  26  27
ENDBRANCH   4  26
TORSDOF 6
ENDMDL
