MODEL 1
REMARK VINA RESULT:      -6.4      0.000      0.000
REMARK  Name = 
REMARK  10 active torsions:
REMARK  status: ('A' for Active; 'I' for Inactive)
REMARK    1  A    between atoms: C_2  and  C_4
REMARK    2  A    between atoms: C_5  and  N_6
REMARK    3  A    between atoms: N_7  and  C_10
REMARK    4  A    between atoms: C_13  and  C_15
REMARK    5  A    between atoms: C_15  and  O_16
REMARK    6  A    between atoms: O_16  and  P_17
REMARK    7  A    between atoms: P_17  and  O_18
REMARK    8  A    between atoms: P_17  and  O_19
REMARK    9  A    between atoms: C_21  and  O_23
REMARK   10  A    between atoms: C_24  and  O_26
REMARK                            x       y       z     vdW  Elec       q    Type
REMARK                         _______ _______ _______ _____ _____    ______ ____
ROOT
ATOM      1  C   UNL     1       7.122  -2.579  22.953  0.00  0.00    +0.253 C 
ATOM      2  C   UNL     1       7.927  -3.889  22.908  0.00  0.00    +0.195 C 
ATOM      3  C   UNL     1       8.296  -4.182  24.364  0.00  0.00    +0.178 C 
ATOM      4  C   UNL     1       7.743  -2.989  25.139  0.00  0.00    +0.178 C 
ATOM      5  O   UNL     1       6.686  -2.445  24.328  0.00  0.00    -0.346 OA
ENDROOT
BRANCH   1   9
ATOM      6  C   UNL     1       8.781   0.577  22.248  0.00  0.00    +0.164 A 
ATOM      7  N   UNL     1       9.654  -0.343  21.681  0.00  0.00    -0.229 NA
ATOM      8  C   UNL     1       9.064  -1.507  21.815  0.00  0.00    +0.203 A 
ATOM      9  N   UNL     1       7.879  -1.408  22.507  0.00  0.00    -0.289 N 
ATOM     10  C   UNL     1       7.622  -0.066  22.678  0.00  0.00    +0.131 A 
BRANCH   6  14
ATOM     11  N   UNL     1      10.220   2.368  21.699  0.00  0.00    -0.324 N 
ATOM     12  H   UNL     1      10.759   1.660  21.217  0.00  0.00    +0.145 HD
ATOM     13  H   UNL     1      10.520   3.330  21.729  0.00  0.00    +0.145 HD
ATOM     14  C   UNL     1       9.072   2.001  22.344  0.00  0.00    +0.263 C 
ATOM     15  O   UNL     1       8.383   2.821  22.944  0.00  0.00    -0.269 OA
ENDBRANCH   6  14
BRANCH  10  16
ATOM     16  N   UNL     1       6.475   0.416  23.191  0.00  0.00    -0.343 N 
ATOM     17  H   UNL     1       5.566   0.183  22.792  0.00  0.00    +0.144 HD
ATOM     18  H   UNL     1       6.501   1.282  23.731  0.00  0.00    +0.144 HD
ENDBRANCH  10  16
ENDBRANCH   1   9
BRANCH   2  19
ATOM     19  O   UNL     1       7.118  -4.955  22.372  0.00  0.00    -0.385 OA
ATOM     20  H   UNL     1       7.593  -5.356  21.624  0.00  0.00    +0.210 HD
ENDBRANCH   2  19
BRANCH   3  21
ATOM     21  O   UNL     1       9.709  -4.308  24.508  0.00  0.00    -0.386 OA
ATOM     22  H   UNL     1      10.070  -4.651  23.668  0.00  0.00    +0.210 HD
ENDBRANCH   3  21
BRANCH   4  23
ATOM     23  C   UNL     1       7.197  -3.350  26.518  0.00  0.00    +0.206 C 
BRANCH  23  24
ATOM     24  O   UNL     1       6.369  -4.503  26.439  0.00  0.00    -0.284 OA
BRANCH  24  25
ATOM     25  P   UNL     1       6.510  -5.563  27.799  0.00  0.00    +0.472 P 
ATOM     26  O   UNL     1       6.636  -6.510  29.017  0.00  0.00    -0.228 OA
BRANCH  25  27
ATOM     27  O   UNL     1       8.059  -5.791  27.334  0.00  0.00    -0.303 OA
ATOM     28  H   UNL     1       8.631  -5.384  28.011  0.00  0.00    +0.222 HD
ENDBRANCH  25  27
BRANCH  25  29
ATOM     29  O   UNL     1       5.795  -6.681  26.844  0.00  0.00    -0.303 OA
ATOM     30  H   UNL     1       4.960  -6.353  26.467  0.00  0.00    +0.222 HD
ENDBRANCH  25  29
ENDBRANCH  24  25
ENDBRANCH  23  24
ENDBRANCH   4  23
TORSDOF 10
ENDMDL
MODEL 2
REMARK VINA RESULT:      -6.3      1.833      2.143
REMARK  Name = 
REMARK  10 active torsions:
REMARK  status: ('A' for Active; 'I' for Inactive)
REMARK    1  A    between atoms: C_2  and  C_4
REMARK    2  A    between atoms: C_5  and  N_6
REMARK    3  A    between atoms: N_7  and  C_10
REMARK    4  A    between atoms: C_13  and  C_15
REMARK    5  A    between atoms: C_15  and  O_16
REMARK    6  A    between atoms: O_16  and  P_17
REMARK    7  A    between atoms: P_17  and  O_18
REMARK    8  A    between atoms: P_17  and  O_19
REMARK    9  A    between atoms: C_21  and  O_23
REMARK   10  A    between atoms: C_24  and  O_26
REMARK                            x       y       z     vdW  Elec       q    Type
REMARK                         _______ _______ _______ _____ _____    ______ ____
ROOT
ATOM      1  C   UNL     1       6.149  -2.720  22.614  0.00  0.00    +0.253 C 
ATOM      2  C   UNL     1       6.661  -3.935  21.819  0.00  0.00    +0.195 C 
ATOM      3  C   UNL     1       6.757  -5.069  22.842  0.00  0.00    +0.178 C 
ATOM      4  C   UNL     1       6.366  -4.417  24.165  0.00  0.00    +0.178 C 
ATOM      5  O   UNL     1       5.567  -3.270  23.821  0.00  0.00    -0.346 OA
ENDROOT
BRANCH   1   9
ATOM      6  C   UNL     1       8.459  -0.173  23.791  0.00  0.00    +0.164 A 
ATOM      7  N   UNL     1       9.276  -0.953  22.981  0.00  0.00    -0.229 NA
ATOM      8  C   UNL     1       8.477  -1.843  22.442  0.00  0.00    +0.203 A 
ATOM      9  N   UNL     1       7.189  -1.734  22.912  0.00  0.00    -0.289 N 
ATOM     10  C   UNL     1       7.135  -0.589  23.678  0.00  0.00    +0.131 A 
BRANCH   6  14
ATOM     11  N   UNL     1      10.133   0.633  25.251  0.00  0.00    -0.324 N 
ATOM     12  H   UNL     1      10.556  -0.276  25.112  0.00  0.00    +0.145 HD
ATOM     13  H   UNL     1      10.546   1.319  25.863  0.00  0.00    +0.145 HD
ATOM     14  C   UNL     1       8.959   0.922  24.612  0.00  0.00    +0.263 C 
ATOM     15  O   UNL     1       8.406   2.009  24.749  0.00  0.00    -0.269 OA
ENDBRANCH   6  14
BRANCH  10  16
ATOM     16  N   UNL     1       5.996  -0.085  24.187  0.00  0.00    -0.343 N 
ATOM     17  H   UNL     1       5.395   0.540  23.649  0.00  0.00    +0.144 HD
ATOM     18  H   UNL     1       5.897  -0.012  25.200  0.00  0.00    +0.144 HD
ENDBRANCH  10  16
ENDBRANCH   1   9
BRANCH   2  19
ATOM     19  O   UNL     1       5.727  -4.279  20.776  0.00  0.00    -0.385 OA
ATOM     20  H   UNL     1       5.230  -5.067  21.056  0.00  0.00    +0.210 HD
ENDBRANCH   2  19
BRANCH   3  21
ATOM     21  O   UNL     1       8.079  -5.602  22.876  0.00  0.00    -0.386 OA
ATOM     22  H   UNL     1       8.698  -4.898  22.605  0.00  0.00    +0.210 HD
ENDBRANCH   3  21
BRANCH   4  23
ATOM     23  C   UNL     1       5.574  -5.333  25.093  0.00  0.00    +0.206 C 
BRANCH  23  24
ATOM     24  O   UNL     1       6.451  -6.039  25.962  0.00  0.00    -0.284 OA
BRANCH  24  25
ATOM     25  P   UNL     1       7.776  -5.090  26.543  0.00  0.00    +0.472 P 
ATOM     26  O   UNL     1       8.962  -4.240  27.062  0.00  0.00    -0.228 OA
BRANCH  25  27
ATOM     27  O   UNL     1       8.746  -6.161  25.783  0.00  0.00    -0.303 OA
ATOM     28  H   UNL     1       9.667  -5.862  25.907  0.00  0.00    +0.222 HD
ENDBRANCH  25  27
BRANCH  25  29
ATOM     29  O   UNL     1       7.572  -5.894  27.952  0.00  0.00    -0.303 OA
ATOM     30  H   UNL     1       7.987  -5.426  28.698  0.00  0.00    +0.222 HD
ENDBRANCH  25  29
ENDBRANCH  24  25
ENDBRANCH  23  24
ENDBRANCH   4  23
TORSDOF 10
ENDMDL
MODEL 3
REMARK VINA RESULT:      -6.3      2.273      3.530
REMARK  Name = 
REMARK  10 active torsions:
REMARK  status: ('A' for Active; 'I' for Inactive)
REMARK    1  A    between atoms: C_2  and  C_4
REMARK    2  A    between atoms: C_5  and  N_6
REMARK    3  A    between atoms: N_7  and  C_10
REMARK    4  A    between atoms: C_13  and  C_15
REMARK    5  A    between atoms: C_15  and  O_16
REMARK    6  A    between atoms: O_16  and  P_17
REMARK    7  A    between atoms: P_17  and  O_18
REMARK    8  A    between atoms: P_17  and  O_19
REMARK    9  A    between atoms: C_21  and  O_23
REMARK   10  A    between atoms: C_24  and  O_26
REMARK                            x       y       z     vdW  Elec       q    Type
REMARK                         _______ _______ _______ _____ _____    ______ ____
ROOT
ATOM      1  C   UNL     1       9.377  -2.901  24.374  0.00  0.00    +0.253 C 
ATOM      2  C   UNL     1       8.624  -3.207  25.681  0.00  0.00    +0.195 C 
ATOM      3  C   UNL     1       7.305  -3.848  25.240  0.00  0.00    +0.178 C 
ATOM      4  C   UNL     1       7.355  -3.802  23.715  0.00  0.00    +0.178 C 
ATOM      5  O   UNL     1       8.750  -3.731  23.366  0.00  0.00    -0.346 OA
ENDROOT
BRANCH   1   9
ATOM      6  C   UNL     1       9.156   0.449  22.984  0.00  0.00    +0.164 A 
ATOM      7  N   UNL     1       9.009   0.690  24.344  0.00  0.00    -0.229 NA
ATOM      8  C   UNL     1       9.177  -0.476  24.921  0.00  0.00    +0.203 A 
ATOM      9  N   UNL     1       9.355  -1.485  24.003  0.00  0.00    -0.289 N 
ATOM     10  C   UNL     1       9.472  -0.889  22.766  0.00  0.00    +0.131 A 
BRANCH   6  14
ATOM     11  N   UNL     1      10.157   2.176  21.718  0.00  0.00    -0.324 N 
ATOM     12  H   UNL     1      10.997   1.930  22.227  0.00  0.00    +0.145 HD
ATOM     13  H   UNL     1      10.148   2.928  21.048  0.00  0.00    +0.145 HD
ATOM     14  C   UNL     1       9.005   1.484  21.968  0.00  0.00    +0.263 C 
ATOM     15  O   UNL     1       7.960   1.744  21.379  0.00  0.00    -0.269 OA
ENDBRANCH   6  14
BRANCH  10  16
ATOM     16  N   UNL     1       9.796  -1.556  21.643  0.00  0.00    -0.343 N 
ATOM     17  H   UNL     1       9.312  -2.410  21.364  0.00  0.00    +0.144 HD
ATOM     18  H   UNL     1      10.732  -1.445  21.254  0.00  0.00    +0.144 HD
ENDBRANCH  10  16
ENDBRANCH   1   9
BRANCH   2  19
ATOM     19  O   UNL     1       9.381  -4.129  26.490  0.00  0.00    -0.385 OA
ATOM     20  H   UNL     1      10.292  -4.159  26.152  0.00  0.00    +0.210 HD
ENDBRANCH   2  19
BRANCH   3  21
ATOM     21  O   UNL     1       6.196  -3.121  25.764  0.00  0.00    -0.386 OA
ATOM     22  H   UNL     1       5.378  -3.518  25.409  0.00  0.00    +0.210 HD
ENDBRANCH   3  21
BRANCH   4  23
ATOM     23  C   UNL     1       6.719  -5.013  23.041  0.00  0.00    +0.206 C 
BRANCH  23  24
ATOM     24  O   UNL     1       5.814  -5.658  23.929  0.00  0.00    -0.284 OA
BRANCH  24  25
ATOM     25  P   UNL     1       4.217  -5.845  23.290  0.00  0.00    +0.472 P 
ATOM     26  O   UNL     1       2.787  -6.012  22.719  0.00  0.00    -0.228 OA
BRANCH  25  27
ATOM     27  O   UNL     1       4.294  -7.388  23.819  0.00  0.00    -0.303 OA
ATOM     28  H   UNL     1       4.944  -7.857  23.263  0.00  0.00    +0.222 HD
ENDBRANCH  25  27
BRANCH  25  29
ATOM     29  O   UNL     1       4.953  -6.040  21.843  0.00  0.00    -0.303 OA
ATOM     30  H   UNL     1       4.936  -6.969  21.552  0.00  0.00    +0.222 HD
ENDBRANCH  25  29
ENDBRANCH  24  25
ENDBRANCH  23  24
ENDBRANCH   4  23
TORSDOF 10
ENDMDL
MODEL 4
REMARK VINA RESULT:      -6.3      3.558      6.970
REMARK  Name = 
REMARK  10 active torsions:
REMARK  status: ('A' for Active; 'I' for Inactive)
REMARK    1  A    between atoms: C_2  and  C_4
REMARK    2  A    between atoms: C_5  and  N_6
REMARK    3  A    between atoms: N_7  and  C_10
REMARK    4  A    between atoms: C_13  and  C_15
REMARK    5  A    between atoms: C_15  and  O_16
REMARK    6  A    between atoms: O_16  and  P_17
REMARK    7  A    between atoms: P_17  and  O_18
REMARK    8  A    between atoms: P_17  and  O_19
REMARK    9  A    between atoms: C_21  and  O_23
REMARK   10  A    between atoms: C_24  and  O_26
REMARK                            x       y       z     vdW  Elec       q    Type
REMARK                         _______ _______ _______ _____ _____    ______ ____
ROOT
ATOM      1  C   UNL     1       9.289  -2.541  23.647  0.00  0.00    +0.253 C 
ATOM      2  C   UNL     1       8.658  -1.943  22.377  0.00  0.00    +0.195 C 
ATOM      3  C   UNL     1       8.094  -0.588  22.811  0.00  0.00    +0.178 C 
ATOM      4  C   UNL     1       8.372  -0.528  24.310  0.00  0.00    +0.178 C 
ATOM      5  O   UNL     1       9.477  -1.421  24.545  0.00  0.00    -0.346 OA
ENDROOT
BRANCH   1   9
ATOM      6  C   UNL     1       7.314  -4.881  25.604  0.00  0.00    +0.164 A 
ATOM      7  N   UNL     1       6.881  -5.148  24.311  0.00  0.00    -0.229 NA
ATOM      8  C   UNL     1       7.629  -4.399  23.536  0.00  0.00    +0.203 A 
ATOM      9  N   UNL     1       8.484  -3.599  24.259  0.00  0.00    -0.289 N 
ATOM     10  C   UNL     1       8.384  -3.990  25.577  0.00  0.00    +0.131 A 
BRANCH   6  14
ATOM     11  N   UNL     1       5.763  -6.423  26.500  0.00  0.00    -0.324 N 
ATOM     12  H   UNL     1       5.556  -6.630  25.531  0.00  0.00    +0.145 HD
ATOM     13  H   UNL     1       5.272  -6.879  27.253  0.00  0.00    +0.145 HD
ATOM     14  C   UNL     1       6.713  -5.483  26.788  0.00  0.00    +0.263 C 
ATOM     15  O   UNL     1       7.001  -5.196  27.946  0.00  0.00    -0.269 OA
ENDBRANCH   6  14
BRANCH  10  16
ATOM     16  N   UNL     1       9.179  -3.523  26.557  0.00  0.00    -0.343 N 
ATOM     17  H   UNL     1       8.915  -2.720  27.129  0.00  0.00    +0.144 HD
ATOM     18  H   UNL     1      10.180  -3.710  26.513  0.00  0.00    +0.144 HD
ENDBRANCH  10  16
ENDBRANCH   1   9
BRANCH   2  19
ATOM     19  O   UNL     1       9.662  -1.764  21.357  0.00  0.00    -0.385 OA
ATOM     20  H   UNL     1      10.180  -0.970  21.572  0.00  0.00    +0.210 HD
ENDBRANCH   2  19
BRANCH   3  21
ATOM     21  O   UNL     1       6.701  -0.509  22.519  0.00  0.00    -0.386 OA
ATOM     22  H   UNL     1       6.354  -1.418  22.446  0.00  0.00    +0.210 HD
ENDBRANCH   3  21
BRANCH   4  23
ATOM     23  C   UNL     1       8.723   0.868  24.816  0.00  0.00    +0.206 C 
BRANCH  23  24
ATOM     24  O   UNL     1       8.649   1.813  23.757  0.00  0.00    -0.284 OA
BRANCH  24  25
ATOM     25  P   UNL     1      10.099   2.731  23.533  0.00  0.00    +0.472 P 
ATOM     26  O   UNL     1      11.396   3.553  23.333  0.00  0.00    -0.228 OA
BRANCH  25  27
ATOM     27  O   UNL     1       9.991   2.329  21.954  0.00  0.00    -0.303 OA
ATOM     28  H   UNL     1      10.356   3.071  21.437  0.00  0.00    +0.222 HD
ENDBRANCH  25  27
BRANCH  25  29
ATOM     29  O   UNL     1      10.878   1.400  24.077  0.00  0.00    -0.303 OA
ATOM     30  H   UNL     1      11.831   1.560  24.188  0.00  0.00    +0.222 HD
ENDBRANCH  25  29
ENDBRANCH  24  25
ENDBRANCH  23  24
ENDBRANCH   4  23
TORSDOF 10
ENDMDL
MODEL 5
REMARK VINA RESULT:      -6.3      2.480      3.673
REMARK  Name = 
REMARK  10 active torsions:
REMARK  status: ('A' for Active; 'I' for Inactive)
REMARK    1  A    between atoms: C_2  and  C_4
REMARK    2  A    between atoms: C_5  and  N_6
REMARK    3  A    between atoms: N_7  and  C_10
REMARK    4  A    between atoms: C_13  and  C_15
REMARK    5  A    between atoms: C_15  and  O_16
REMARK    6  A    between atoms: O_16  and  P_17
REMARK    7  A    between atoms: P_17  and  O_18
REMARK    8  A    between atoms: P_17  and  O_19
REMARK    9  A    between atoms: C_21  and  O_23
REMARK   10  A    between atoms: C_24  and  O_26
REMARK                            x       y       z     vdW  Elec       q    Type
REMARK                         _______ _______ _______ _____ _____    ______ ____
ROOT
ATOM      1  C   UNL     1       9.359  -2.619  23.528  0.00  0.00    +0.253 C 
ATOM      2  C   UNL     1       9.262  -3.319  24.895  0.00  0.00    +0.195 C 
ATOM      3  C   UNL     1       7.763  -3.432  25.181  0.00  0.00    +0.178 C 
ATOM      4  C   UNL     1       7.101  -2.728  23.999  0.00  0.00    +0.178 C 
ATOM      5  O   UNL     1       8.054  -2.780  22.921  0.00  0.00    -0.346 OA
ENDROOT
BRANCH   1   9
ATOM      6  C   UNL     1      10.048   0.943  23.307  0.00  0.00    +0.164 A 
ATOM      7  N   UNL     1      10.171   0.708  24.671  0.00  0.00    -0.229 NA
ATOM      8  C   UNL     1      10.029  -0.589  24.812  0.00  0.00    +0.203 A 
ATOM      9  N   UNL     1       9.746  -1.210  23.618  0.00  0.00    -0.289 N 
ATOM     10  C   UNL     1       9.882  -0.261  22.627  0.00  0.00    +0.131 A 
BRANCH   6  14
ATOM     11  N   UNL     1       9.117   2.507  21.801  0.00  0.00    -0.324 N 
ATOM     12  H   UNL     1       8.444   1.776  21.609  0.00  0.00    +0.145 HD
ATOM     13  H   UNL     1       9.086   3.392  21.319  0.00  0.00    +0.145 HD
ATOM     14  C   UNL     1      10.104   2.274  22.717  0.00  0.00    +0.263 C 
ATOM     15  O   UNL     1      10.945   3.127  22.985  0.00  0.00    -0.269 OA
ENDBRANCH   6  14
BRANCH  10  16
ATOM     16  N   UNL     1       9.818  -0.540  21.312  0.00  0.00    -0.343 N 
ATOM     17  H   UNL     1       9.756  -1.498  20.966  0.00  0.00    +0.144 HD
ATOM     18  H   UNL     1      10.189   0.137  20.645  0.00  0.00    +0.144 HD
ENDBRANCH  10  16
ENDBRANCH   1   9
BRANCH   2  19
ATOM     19  O   UNL     1       9.858  -4.630  24.828  0.00  0.00    -0.385 OA
ATOM     20  H   UNL     1      10.816  -4.540  24.971  0.00  0.00    +0.210 HD
ENDBRANCH   2  19
BRANCH   3  21
ATOM     21  O   UNL     1       7.442  -2.813  26.424  0.00  0.00    -0.386 OA
ATOM     22  H   UNL     1       8.199  -2.258  26.691  0.00  0.00    +0.210 HD
ENDBRANCH   3  21
BRANCH   4  23
ATOM     23  C   UNL     1       5.789  -3.368  23.556  0.00  0.00    +0.206 C 
BRANCH  23  24
ATOM     24  O   UNL     1       5.917  -4.784  23.513  0.00  0.00    -0.284 OA
BRANCH  24  25
ATOM     25  P   UNL     1       5.849  -5.446  21.916  0.00  0.00    +0.472 P 
ATOM     26  O   UNL     1       5.787  -6.041  20.487  0.00  0.00    -0.228 OA
BRANCH  25  27
ATOM     27  O   UNL     1       7.481  -5.466  21.961  0.00  0.00    -0.303 OA
ATOM     28  H   UNL     1       7.765  -6.396  21.892  0.00  0.00    +0.222 HD
ENDBRANCH  25  27
BRANCH  25  29
ATOM     29  O   UNL     1       5.631  -3.904  21.419  0.00  0.00    -0.303 OA
ATOM     30  H   UNL     1       6.325  -3.624  20.798  0.00  0.00    +0.222 HD
ENDBRANCH  25  29
ENDBRANCH  24  25
ENDBRANCH  23  24
ENDBRANCH   4  23
TORSDOF 10
ENDMDL
MODEL 6
REMARK VINA RESULT:      -6.3      3.977      6.932
REMARK  Name = 
REMARK  10 active torsions:
REMARK  status: ('A' for Active; 'I' for Inactive)
REMARK    1  A    between atoms: C_2  and  C_4
REMARK    2  A    between atoms: C_5  and  N_6
REMARK    3  A    between atoms: N_7  and  C_10
REMARK    4  A    between atoms: C_13  and  C_15
REMARK    5  A    between atoms: C_15  and  O_16
REMARK    6  A    between atoms: O_16  and  P_17
REMARK    7  A    between atoms: P_17  and  O_18
REMARK    8  A    between atoms: P_17  and  O_19
REMARK    9  A    between atoms: C_21  and  O_23
REMARK   10  A    between atoms: C_24  and  O_26
REMARK                            x       y       z     vdW  Elec       q    Type
REMARK                         _______ _______ _______ _____ _____    ______ ____
ROOT
ATOM      1  C   UNL     1       7.616  -5.271  23.806  0.00  0.00    +0.253 C 
ATOM      2  C   UNL     1       6.901  -4.737  22.552  0.00  0.00    +0.195 C 
ATOM      3  C   UNL     1       7.417  -3.306  22.377  0.00  0.00    +0.178 C 
ATOM      4  C   UNL     1       8.335  -3.089  23.577  0.00  0.00    +0.178 C 
ATOM      5  O   UNL     1       8.757  -4.399  23.997  0.00  0.00    -0.346 OA
ENDROOT
BRANCH   1   9
ATOM      6  C   UNL     1       5.913  -5.205  27.015  0.00  0.00    +0.164 A 
ATOM      7  N   UNL     1       4.855  -5.082  26.123  0.00  0.00    -0.229 NA
ATOM      8  C   UNL     1       5.393  -5.197  24.932  0.00  0.00    +0.203 A 
ATOM      9  N   UNL     1       6.762  -5.316  24.994  0.00  0.00    -0.289 N 
ATOM     10  C   UNL     1       7.096  -5.453  26.323  0.00  0.00    +0.131 A 
BRANCH   6  14
ATOM     11  N   UNL     1       4.768  -4.232  28.839  0.00  0.00    -0.324 N 
ATOM     12  H   UNL     1       4.235  -3.753  28.124  0.00  0.00    +0.145 HD
ATOM     13  H   UNL     1       4.599  -4.071  29.820  0.00  0.00    +0.145 HD
ATOM     14  C   UNL     1       5.756  -5.098  28.460  0.00  0.00    +0.263 C 
ATOM     15  O   UNL     1       6.432  -5.702  29.288  0.00  0.00    -0.269 OA
ENDBRANCH   6  14
BRANCH  10  16
ATOM     16  N   UNL     1       8.339  -5.733  26.757  0.00  0.00    -0.343 N 
ATOM     17  H   UNL     1       8.793  -6.623  26.551  0.00  0.00    +0.144 HD
ATOM     18  H   UNL     1       8.698  -5.243  27.576  0.00  0.00    +0.144 HD
ENDBRANCH  10  16
ENDBRANCH   1   9
BRANCH   2  19
ATOM     19  O   UNL     1       7.243  -5.536  21.402  0.00  0.00    -0.385 OA
ATOM     20  H   UNL     1       8.171  -5.815  21.486  0.00  0.00    +0.210 HD
ENDBRANCH   2  19
BRANCH   3  21
ATOM     21  O   UNL     1       6.332  -2.381  22.355  0.00  0.00    -0.386 OA
ATOM     22  H   UNL     1       6.460  -1.747  23.086  0.00  0.00    +0.210 HD
ENDBRANCH   3  21
BRANCH   4  23
ATOM     23  C   UNL     1       9.559  -2.231  23.269  0.00  0.00    +0.206 C 
BRANCH  23  24
ATOM     24  O   UNL     1       9.463  -1.679  21.962  0.00  0.00    -0.284 OA
BRANCH  24  25
ATOM     25  P   UNL     1       9.699   0.034  21.904  0.00  0.00    +0.472 P 
ATOM     26  O   UNL     1       9.911   1.567  21.851  0.00  0.00    -0.228 OA
BRANCH  25  27
ATOM     27  O   UNL     1      10.436  -0.119  23.353  0.00  0.00    -0.303 OA
ATOM     28  H   UNL     1       9.740  -0.239  24.025  0.00  0.00    +0.222 HD
ENDBRANCH  25  27
BRANCH  25  29
ATOM     29  O   UNL     1       8.151   0.140  22.422  0.00  0.00    -0.303 OA
ATOM     30  H   UNL     1       7.867   1.065  22.522  0.00  0.00    +0.222 HD
ENDBRANCH  25  29
ENDBRANCH  24  25
ENDBRANCH  23  24
ENDBRANCH   4  23
TORSDOF 10
ENDMDL
MODEL 7
REMARK VINA RESULT:      -6.1      1.863      2.610
REMARK  Name = 
REMARK  10 active torsions:
REMARK  status: ('A' for Active; 'I' for Inactive)
REMARK    1  A    between atoms: C_2  and  C_4
REMARK    2  A    between atoms: C_5  and  N_6
REMARK    3  A    between atoms: N_7  and  C_10
REMARK    4  A    between atoms: C_13  and  C_15
REMARK    5  A    between atoms: C_15  and  O_16
REMARK    6  A    between atoms: O_16  and  P_17
REMARK    7  A    between atoms: P_17  and  O_18
REMARK    8  A    between atoms: P_17  and  O_19
REMARK    9  A    between atoms: C_21  and  O_23
REMARK   10  A    between atoms: C_24  and  O_26
REMARK                            x       y       z     vdW  Elec       q    Type
REMARK                         _______ _______ _______ _____ _____    ______ ____
ROOT
ATOM      1  C   UNL     1       8.210  -4.373  23.697  0.00  0.00    +0.253 C 
ATOM      2  C   UNL     1       9.055  -4.828  24.900  0.00  0.00    +0.195 C 
ATOM      3  C   UNL     1       8.040  -5.165  25.996  0.00  0.00    +0.178 C 
ATOM      4  C   UNL     1       6.689  -4.814  25.378  0.00  0.00    +0.178 C 
ATOM      5  O   UNL     1       6.877  -4.878  23.952  0.00  0.00    -0.346 OA
ENDROOT
BRANCH   1   9
ATOM      6  C   UNL     1       7.697  -0.803  23.246  0.00  0.00    +0.164 A 
ATOM      7  N   UNL     1       9.002  -0.851  23.719  0.00  0.00    -0.229 NA
ATOM      8  C   UNL     1       9.289  -2.127  23.812  0.00  0.00    +0.203 A 
ATOM      9  N   UNL     1       8.213  -2.923  23.494  0.00  0.00    -0.289 N 
ATOM     10  C   UNL     1       7.227  -2.092  23.006  0.00  0.00    +0.131 A 
BRANCH   6  14
ATOM     11  N   UNL     1       5.915   0.609  23.889  0.00  0.00    -0.324 N 
ATOM     12  H   UNL     1       5.726  -0.105  24.581  0.00  0.00    +0.145 HD
ATOM     13  H   UNL     1       5.334   1.429  23.805  0.00  0.00    +0.145 HD
ATOM     14  C   UNL     1       6.968   0.441  23.034  0.00  0.00    +0.263 C 
ATOM     15  O   UNL     1       7.238   1.277  22.177  0.00  0.00    -0.269 OA
ENDBRANCH   6  14
BRANCH  10  16
ATOM     16  N   UNL     1       6.078  -2.535  22.463  0.00  0.00    -0.343 N 
ATOM     17  H   UNL     1       5.947  -3.512  22.200  0.00  0.00    +0.144 HD
ATOM     18  H   UNL     1       5.474  -1.872  21.977  0.00  0.00    +0.144 HD
ENDBRANCH  10  16
ENDBRANCH   1   9
BRANCH   2  19
ATOM     19  O   UNL     1       9.826  -5.996  24.556  0.00  0.00    -0.385 OA
ATOM     20  H   UNL     1      10.770  -5.766  24.600  0.00  0.00    +0.210 HD
ENDBRANCH   2  19
BRANCH   3  21
ATOM     21  O   UNL     1       8.305  -4.408  27.174  0.00  0.00    -0.386 OA
ATOM     22  H   UNL     1       8.503  -5.032  27.898  0.00  0.00    +0.210 HD
ENDBRANCH   3  21
BRANCH   4  23
ATOM     23  C   UNL     1       5.561  -5.755  25.789  0.00  0.00    +0.206 C 
BRANCH  23  24
ATOM     24  O   UNL     1       5.918  -6.478  26.960  0.00  0.00    -0.284 OA
BRANCH  24  25
ATOM     25  P   UNL     1       5.022  -6.020  28.368  0.00  0.00    +0.472 P 
ATOM     26  O   UNL     1       4.220  -5.609  29.627  0.00  0.00    -0.228 OA
BRANCH  25  27
ATOM     27  O   UNL     1       6.466  -5.690  29.057  0.00  0.00    -0.303 OA
ATOM     28  H   UNL     1       6.339  -5.707  30.024  0.00  0.00    +0.222 HD
ENDBRANCH  25  27
BRANCH  25  29
ATOM     29  O   UNL     1       4.951  -7.621  28.691  0.00  0.00    -0.303 OA
ATOM     30  H   UNL     1       4.077  -7.882  29.029  0.00  0.00    +0.222 HD
ENDBRANCH  25  29
ENDBRANCH  24  25
ENDBRANCH  23  24
ENDBRANCH   4  23
TORSDOF 10
ENDMDL
MODEL 8
REMARK VINA RESULT:      -5.9      2.704      3.905
REMARK  Name = 
REMARK  10 active torsions:
REMARK  status: ('A' for Active; 'I' for Inactive)
REMARK    1  A    between atoms: C_2  and  C_4
REMARK    2  A    between atoms: C_5  and  N_6
REMARK    3  A    between atoms: N_7  and  C_10
REMARK    4  A    between atoms: C_13  and  C_15
REMARK    5  A    between atoms: C_15  and  O_16
REMARK    6  A    between atoms: O_16  and  P_17
REMARK    7  A    between atoms: P_17  and  O_18
REMARK    8  A    between atoms: P_17  and  O_19
REMARK    9  A    between atoms: C_21  and  O_23
REMARK   10  A    between atoms: C_24  and  O_26
REMARK                            x       y       z     vdW  Elec       q    Type
REMARK                         _______ _______ _______ _____ _____    ______ ____
ROOT
ATOM      1  C   UNL     1       7.674  -4.975  24.866  0.00  0.00    +0.253 C 
ATOM      2  C   UNL     1       7.604  -4.855  26.399  0.00  0.00    +0.195 C 
ATOM      3  C   UNL     1       6.154  -4.470  26.703  0.00  0.00    +0.178 C 
ATOM      4  C   UNL     1       5.507  -4.325  25.328  0.00  0.00    +0.178 C 
ATOM      5  O   UNL     1       6.301  -5.122  24.429  0.00  0.00    -0.346 OA
ENDROOT
BRANCH   1   9
ATOM      6  C   UNL     1       8.835  -2.040  23.064  0.00  0.00    +0.164 A 
ATOM      7  N   UNL     1       9.770  -2.141  24.086  0.00  0.00    -0.229 NA
ATOM      8  C   UNL     1       9.465  -3.245  24.725  0.00  0.00    +0.203 A 
ATOM      9  N   UNL     1       8.332  -3.838  24.218  0.00  0.00    -0.289 N 
ATOM     10  C   UNL     1       7.992  -3.148  23.075  0.00  0.00    +0.131 A 
BRANCH   6  14
ATOM     11  N   UNL     1       9.673  -1.042  21.093  0.00  0.00    -0.324 N 
ATOM     12  H   UNL     1      10.266  -1.861  21.046  0.00  0.00    +0.145 HD
ATOM     13  H   UNL     1       9.734  -0.307  20.406  0.00  0.00    +0.145 HD
ATOM     14  C   UNL     1       8.790  -0.922  22.129  0.00  0.00    +0.263 C 
ATOM     15  O   UNL     1       8.050   0.052  22.233  0.00  0.00    -0.269 OA
ENDBRANCH   6  14
BRANCH  10  16
ATOM     16  N   UNL     1       7.014  -3.532  22.234  0.00  0.00    -0.343 N 
ATOM     17  H   UNL     1       7.047  -4.425  21.740  0.00  0.00    +0.144 HD
ATOM     18  H   UNL     1       6.429  -2.819  21.798  0.00  0.00    +0.144 HD
ENDBRANCH  10  16
ENDBRANCH   1   9
BRANCH   2  19
ATOM     19  O   UNL     1       7.926  -6.117  27.015  0.00  0.00    -0.385 OA
ATOM     20  H   UNL     1       8.889  -6.246  26.968  0.00  0.00    +0.210 HD
ENDBRANCH   2  19
BRANCH   3  21
ATOM     21  O   UNL     1       6.103  -3.258  27.452  0.00  0.00    -0.386 OA
ATOM     22  H   UNL     1       6.442  -3.441  28.348  0.00  0.00    +0.210 HD
ENDBRANCH   3  21
BRANCH   4  23
ATOM     23  C   UNL     1       4.055  -4.789  25.277  0.00  0.00    +0.206 C 
BRANCH  23  24
ATOM     24  O   UNL     1       3.780  -5.426  24.036  0.00  0.00    -0.284 OA
BRANCH  24  25
ATOM     25  P   UNL     1       3.143  -7.028  24.196  0.00  0.00    +0.472 P 
ATOM     26  O   UNL     1       2.574  -8.460  24.339  0.00  0.00    -0.228 OA
BRANCH  25  27
ATOM     27  O   UNL     1       4.672  -7.551  23.961  0.00  0.00    -0.303 OA
ATOM     28  H   UNL     1       4.792  -8.356  24.500  0.00  0.00    +0.222 HD
ENDBRANCH  25  27
BRANCH  25  29
ATOM     29  O   UNL     1       2.691  -6.869  22.632  0.00  0.00    -0.303 OA
ATOM     30  H   UNL     1       2.842  -5.966  22.303  0.00  0.00    +0.222 HD
ENDBRANCH  25  29
ENDBRANCH  24  25
ENDBRANCH  23  24
ENDBRANCH   4  23
TORSDOF 10
ENDMDL
MODEL 9
REMARK VINA RESULT:      -5.9      2.753      4.065
REMARK  Name = 
REMARK  10 active torsions:
REMARK  status: ('A' for Active; 'I' for Inactive)
REMARK    1  A    between atoms: C_2  and  C_4
REMARK    2  A    between atoms: C_5  and  N_6
REMARK    3  A    between atoms: N_7  and  C_10
REMARK    4  A    between atoms: C_13  and  C_15
REMARK    5  A    between atoms: C_15  and  O_16
REMARK    6  A    between atoms: O_16  and  P_17
REMARK    7  A    between atoms: P_17  and  O_18
REMARK    8  A    between atoms: P_17  and  O_19
REMARK    9  A    between atoms: C_21  and  O_23
REMARK   10  A    between atoms: C_24  and  O_26
REMARK                            x       y       z     vdW  Elec       q    Type
REMARK                         _______ _______ _______ _____ _____    ______ ____
ROOT
ATOM      1  C   UNL     1       7.902  -1.036  25.696  0.00  0.00    +0.253 C 
ATOM      2  C   UNL     1       6.394  -1.332  25.775  0.00  0.00    +0.195 C 
ATOM      3  C   UNL     1       6.156  -2.460  24.768  0.00  0.00    +0.178 C 
ATOM      4  C   UNL     1       7.523  -2.688  24.128  0.00  0.00    +0.178 C 
ATOM      5  O   UNL     1       8.491  -2.206  25.078  0.00  0.00    -0.346 OA
ENDROOT
BRANCH   1   9
ATOM      6  C   UNL     1       9.160   1.776  23.768  0.00  0.00    +0.164 A 
ATOM      7  N   UNL     1       7.785   1.913  23.618  0.00  0.00    -0.229 NA
ATOM      8  C   UNL     1       7.261   0.979  24.374  0.00  0.00    +0.203 A 
ATOM      9  N   UNL     1       8.222   0.187  24.959  0.00  0.00    -0.289 N 
ATOM     10  C   UNL     1       9.442   0.765  24.683  0.00  0.00    +0.131 A 
BRANCH   6  14
ATOM     11  N   UNL     1      10.209   2.327  21.724  0.00  0.00    -0.324 N 
ATOM     12  H   UNL     1       9.616   1.604  21.336  0.00  0.00    +0.145 HD
ATOM     13  H   UNL     1      10.869   2.831  21.152  0.00  0.00    +0.145 HD
ATOM     14  C   UNL     1      10.128   2.604  23.060  0.00  0.00    +0.263 C 
ATOM     15  O   UNL     1      10.825   3.470  23.579  0.00  0.00    -0.269 OA
ENDBRANCH   6  14
BRANCH  10  16
ATOM     16  N   UNL     1      10.606   0.343  25.212  0.00  0.00    -0.343 N 
ATOM     17  H   UNL     1      11.442   0.214  24.642  0.00  0.00    +0.144 HD
ATOM     18  H   UNL     1      10.588  -0.192  26.080  0.00  0.00    +0.144 HD
ENDBRANCH  10  16
ENDBRANCH   1   9
BRANCH   2  19
ATOM     19  O   UNL     1       6.037  -1.764  27.103  0.00  0.00    -0.385 OA
ATOM     20  H   UNL     1       5.828  -2.713  27.073  0.00  0.00    +0.210 HD
ENDBRANCH   2  19
BRANCH   3  21
ATOM     21  O   UNL     1       5.171  -2.078  23.811  0.00  0.00    -0.386 OA
ATOM     22  H   UNL     1       5.614  -1.960  22.949  0.00  0.00    +0.210 HD
ENDBRANCH   3  21
BRANCH   4  23
ATOM     23  C   UNL     1       7.812  -4.149  23.797  0.00  0.00    +0.206 C 
BRANCH  23  24
ATOM     24  O   UNL     1       6.599  -4.861  23.589  0.00  0.00    -0.284 OA
BRANCH  24  25
ATOM     25  P   UNL     1       6.272  -5.221  21.929  0.00  0.00    +0.472 P 
ATOM     26  O   UNL     1       5.980  -5.542  20.442  0.00  0.00    -0.228 OA
BRANCH  25  27
ATOM     27  O   UNL     1       4.847  -4.454  22.147  0.00  0.00    -0.303 OA
ATOM     28  H   UNL     1       5.024  -3.649  22.668  0.00  0.00    +0.222 HD
ENDBRANCH  25  27
BRANCH  25  29
ATOM     29  O   UNL     1       5.842  -6.705  22.464  0.00  0.00    -0.303 OA
ATOM     30  H   UNL     1       4.940  -6.941  22.185  0.00  0.00    +0.222 HD
ENDBRANCH  25  29
ENDBRANCH  24  25
ENDBRANCH  23  24
ENDBRANCH   4  23
TORSDOF 10
ENDMDL
