MODEL 1
REMARK VINA RESULT:      -6.2      0.000      0.000
REMARK  Name = 
REMARK  7 active torsions:
REMARK  status: ('A' for Active; 'I' for Inactive)
REMARK    1  A    between atoms: C_1  and  C_2
REMARK    2  A    between atoms: N_4  and  C_5
REMARK    3  A    between atoms: C_8  and  C_16
REMARK    4  A    between atoms: C_10  and  N_11
REMARK    5  A    between atoms: C_12  and  C_14
REMARK    6  A    between atoms: C_14  and  O_15
REMARK    7  A    between atoms: C_16  and  O_17
REMARK                            x       y       z     vdW  Elec       q    Type
REMARK                         _______ _______ _______ _____ _____    ______ ____
ROOT
ATOM      1  C   UNL     1       8.504  -2.318  22.612  0.00  0.00    +0.055 A 
ATOM      2  C   UNL     1       8.803  -1.788  23.893  0.00  0.00    +0.056 A 
ATOM      3  C   UNL     1       9.421  -0.529  23.981  0.00  0.00    +0.040 A 
ATOM      4  C   UNL     1       9.689   0.236  22.845  0.00  0.00    +0.061 A 
ATOM      5  C   UNL     1       9.399  -0.281  21.589  0.00  0.00    +0.017 A 
ATOM      6  C   UNL     1       8.814  -1.544  21.478  0.00  0.00    +0.026 A 
ENDROOT
BRANCH   1   9
ATOM      7  C   UNL     1       6.059  -5.200  22.362  0.00  0.00    +0.109 C 
ATOM      8  C   UNL     1       6.479  -3.753  22.291  0.00  0.00    +0.214 C 
ATOM      9  N   UNL     1       7.846  -3.571  22.470  0.00  0.00    -0.284 N 
ATOM     10  H   UNL     1       8.421  -4.401  22.481  0.00  0.00    +0.155 HD
ATOM     11  O   UNL     1       5.646  -2.880  22.067  0.00  0.00    -0.276 OA
ENDBRANCH   1   9
BRANCH   2  12
ATOM     12  N   UNL     1       8.569  -2.528  25.083  0.00  0.00    -0.282 N 
ATOM     13  H   UNL     1       7.967  -2.136  25.799  0.00  0.00    +0.155 HD
ATOM     14  C   UNL     1       9.080  -3.792  25.370  0.00  0.00    +0.243 C 
ATOM     15  O   UNL     1       9.945  -4.390  24.737  0.00  0.00    -0.273 OA
BRANCH  14  16
ATOM     16  C   UNL     1       8.430  -4.428  26.597  0.00  0.00    +0.251 C 
BRANCH  16  17
ATOM     17  O   UNL     1       8.492  -5.847  26.551  0.00  0.00    -0.386 OA
ATOM     18  H   UNL     1       9.407  -6.084  26.793  0.00  0.00    +0.210 HD
ENDBRANCH  16  17
ENDBRANCH  14  16
ENDBRANCH   2  12
BRANCH   4  19
ATOM     19  C   UNL     1      10.322   1.573  22.948  0.00  0.00    +0.337 C 
ATOM     20  O   UNL     1      10.859   1.967  23.968  0.00  0.00    -0.245 OA
BRANCH  19  21
ATOM     21  O   UNL     1      10.292   2.285  21.803  0.00  0.00    -0.477 OA
ATOM     22  H   UNL     1       9.429   2.328  21.348  0.00  0.00    +0.295 HD
ENDBRANCH  19  21
ENDBRANCH   4  19
TORSDOF 6
ENDMDL
MODEL 2
REMARK VINA RESULT:      -6.1      1.843      1.954
REMARK  Name = 
REMARK  7 active torsions:
REMARK  status: ('A' for Active; 'I' for Inactive)
REMARK    1  A    between atoms: C_1  and  C_2
REMARK    2  A    between atoms: N_4  and  C_5
REMARK    3  A    between atoms: C_8  and  C_16
REMARK    4  A    between atoms: C_10  and  N_11
REMARK    5  A    between atoms: C_12  and  C_14
REMARK    6  A    between atoms: C_14  and  O_15
REMARK    7  A    between atoms: C_16  and  O_17
REMARK                            x       y       z     vdW  Elec       q    Type
REMARK                         _______ _______ _______ _____ _____    ______ ____
ROOT
ATOM      1  C   UNL     1       8.023  -2.834  23.251  0.00  0.00    +0.055 A 
ATOM      2  C   UNL     1       8.013  -2.510  24.631  0.00  0.00    +0.056 A 
ATOM      3  C   UNL     1       8.763  -1.407  25.075  0.00  0.00    +0.040 A 
ATOM      4  C   UNL     1       9.464  -0.592  24.186  0.00  0.00    +0.061 A 
ATOM      5  C   UNL     1       9.477  -0.909  22.834  0.00  0.00    +0.017 A 
ATOM      6  C   UNL     1       8.764  -2.019  22.376  0.00  0.00    +0.026 A 
ENDROOT
BRANCH   1   9
ATOM      7  C   UNL     1       6.661  -6.161  22.056  0.00  0.00    +0.109 C 
ATOM      8  C   UNL     1       7.576  -5.265  22.853  0.00  0.00    +0.214 C 
ATOM      9  N   UNL     1       7.251  -3.917  22.746  0.00  0.00    -0.284 N 
ATOM     10  H   UNL     1       6.381  -3.692  22.286  0.00  0.00    +0.155 HD
ATOM     11  O   UNL     1       8.480  -5.749  23.527  0.00  0.00    -0.276 OA
ENDBRANCH   1   9
BRANCH   2  12
ATOM     12  N   UNL     1       7.333  -3.313  25.585  0.00  0.00    -0.282 N 
ATOM     13  H   UNL     1       6.322  -3.260  25.645  0.00  0.00    +0.155 HD
ATOM     14  C   UNL     1       7.928  -4.215  26.464  0.00  0.00    +0.243 C 
ATOM     15  O   UNL     1       9.130  -4.333  26.684  0.00  0.00    -0.273 OA
BRANCH  14  16
ATOM     16  C   UNL     1       6.914  -5.114  27.166  0.00  0.00    +0.251 C 
BRANCH  16  17
ATOM     17  O   UNL     1       7.548  -6.150  27.904  0.00  0.00    -0.386 OA
ATOM     18  H   UNL     1       8.398  -6.318  27.456  0.00  0.00    +0.210 HD
ENDBRANCH  16  17
ENDBRANCH  14  16
ENDBRANCH   2  12
BRANCH   4  19
ATOM     19  C   UNL     1      10.236   0.581  24.661  0.00  0.00    +0.337 C 
ATOM     20  O   UNL     1      11.450   0.638  24.594  0.00  0.00    -0.245 OA
BRANCH  19  21
ATOM     21  O   UNL     1       9.471   1.591  25.124  0.00  0.00    -0.477 OA
ATOM     22  H   UNL     1       9.950   2.391  25.418  0.00  0.00    +0.295 HD
ENDBRANCH  19  21
ENDBRANCH   4  19
TORSDOF 6
ENDMDL
MODEL 3
REMARK VINA RESULT:      -5.9      1.177      3.331
REMARK  Name = 
REMARK  7 active torsions:
REMARK  status: ('A' for Active; 'I' for Inactive)
REMARK    1  A    between atoms: C_1  and  C_2
REMARK    2  A    between atoms: N_4  and  C_5
REMARK    3  A    between atoms: C_8  and  C_16
REMARK    4  A    between atoms: C_10  and  N_11
REMARK    5  A    between atoms: C_12  and  C_14
REMARK    6  A    between atoms: C_14  and  O_15
REMARK    7  A    between atoms: C_16  and  O_17
REMARK                            x       y       z     vdW  Elec       q    Type
REMARK                         _______ _______ _______ _____ _____    ______ ____
ROOT
ATOM      1  C   UNL     1       8.964  -1.498  24.847  0.00  0.00    +0.055 A 
ATOM      2  C   UNL     1       8.853  -1.494  23.433  0.00  0.00    +0.056 A 
ATOM      3  C   UNL     1       9.212  -0.333  22.727  0.00  0.00    +0.040 A 
ATOM      4  C   UNL     1       9.731   0.788  23.376  0.00  0.00    +0.061 A 
ATOM      5  C   UNL     1       9.838   0.787  24.761  0.00  0.00    +0.017 A 
ATOM      6  C   UNL     1       9.458  -0.344  25.484  0.00  0.00    +0.026 A 
ENDROOT
BRANCH   1   9
ATOM      7  C   UNL     1       8.465  -4.995  26.216  0.00  0.00    +0.109 C 
ATOM      8  C   UNL     1       9.124  -3.943  25.358  0.00  0.00    +0.214 C 
ATOM      9  N   UNL     1       8.649  -2.660  25.605  0.00  0.00    -0.284 N 
ATOM     10  H   UNL     1       8.044  -2.542  26.405  0.00  0.00    +0.155 HD
ATOM     11  O   UNL     1      10.003  -4.259  24.561  0.00  0.00    -0.276 OA
ENDBRANCH   1   9
BRANCH   2  12
ATOM     12  N   UNL     1       8.316  -2.599  22.721  0.00  0.00    -0.282 N 
ATOM     13  H   UNL     1       8.949  -3.263  22.289  0.00  0.00    +0.155 HD
ATOM     14  C   UNL     1       6.962  -2.888  22.566  0.00  0.00    +0.243 C 
ATOM     15  O   UNL     1       6.022  -2.155  22.858  0.00  0.00    -0.273 OA
BRANCH  14  16
ATOM     16  C   UNL     1       6.717  -4.279  21.985  0.00  0.00    +0.251 C 
BRANCH  16  17
ATOM     17  O   UNL     1       7.558  -5.256  22.584  0.00  0.00    -0.386 OA
ATOM     18  H   UNL     1       8.126  -4.773  23.212  0.00  0.00    +0.210 HD
ENDBRANCH  16  17
ENDBRANCH  14  16
ENDBRANCH   2  12
BRANCH   4  19
ATOM     19  C   UNL     1      10.126   2.001  22.621  0.00  0.00    +0.337 C 
ATOM     20  O   UNL     1      10.800   2.889  23.112  0.00  0.00    -0.245 OA
BRANCH  19  21
ATOM     21  O   UNL     1       9.715   2.007  21.336  0.00  0.00    -0.477 OA
ATOM     22  H   UNL     1      10.405   1.845  20.665  0.00  0.00    +0.295 HD
ENDBRANCH  19  21
ENDBRANCH   4  19
TORSDOF 6
ENDMDL
MODEL 4
REMARK VINA RESULT:      -5.8      2.140      3.931
REMARK  Name = 
REMARK  7 active torsions:
REMARK  status: ('A' for Active; 'I' for Inactive)
REMARK    1  A    between atoms: C_1  and  C_2
REMARK    2  A    between atoms: N_4  and  C_5
REMARK    3  A    between atoms: C_8  and  C_16
REMARK    4  A    between atoms: C_10  and  N_11
REMARK    5  A    between atoms: C_12  and  C_14
REMARK    6  A    between atoms: C_14  and  O_15
REMARK    7  A    between atoms: C_16  and  O_17
REMARK                            x       y       z     vdW  Elec       q    Type
REMARK                         _______ _______ _______ _____ _____    ______ ____
ROOT
ATOM      1  C   UNL     1       7.111  -3.200  25.484  0.00  0.00    +0.055 A 
ATOM      2  C   UNL     1       7.555  -3.102  24.141  0.00  0.00    +0.056 A 
ATOM      3  C   UNL     1       8.521  -2.135  23.814  0.00  0.00    +0.040 A 
ATOM      4  C   UNL     1       9.095  -1.315  24.786  0.00  0.00    +0.061 A 
ATOM      5  C   UNL     1       8.660  -1.407  26.101  0.00  0.00    +0.017 A 
ATOM      6  C   UNL     1       7.679  -2.340  26.442  0.00  0.00    +0.026 A 
ENDROOT
BRANCH   1   9
ATOM      7  C   UNL     1       5.248  -6.339  26.498  0.00  0.00    +0.109 C 
ATOM      8  C   UNL     1       6.464  -5.460  26.346  0.00  0.00    +0.214 C 
ATOM      9  N   UNL     1       6.163  -4.187  25.875  0.00  0.00    -0.284 N 
ATOM     10  H   UNL     1       5.186  -3.936  25.825  0.00  0.00    +0.155 HD
ATOM     11  O   UNL     1       7.575  -5.884  26.652  0.00  0.00    -0.276 OA
ENDBRANCH   1   9
BRANCH   2  12
ATOM     12  N   UNL     1       6.994  -3.899  23.107  0.00  0.00    -0.282 N 
ATOM     13  H   UNL     1       6.195  -3.547  22.591  0.00  0.00    +0.155 HD
ATOM     14  C   UNL     1       7.459  -5.147  22.697  0.00  0.00    +0.243 C 
ATOM     15  O   UNL     1       8.299  -5.836  23.268  0.00  0.00    -0.273 OA
BRANCH  14  16
ATOM     16  C   UNL     1       6.817  -5.618  21.394  0.00  0.00    +0.251 C 
BRANCH  16  17
ATOM     17  O   UNL     1       5.625  -6.356  21.630  0.00  0.00    -0.386 OA
ATOM     18  H   UNL     1       5.520  -6.949  20.863  0.00  0.00    +0.210 HD
ENDBRANCH  16  17
ENDBRANCH  14  16
ENDBRANCH   2  12
BRANCH   4  19
ATOM     19  C   UNL     1      10.128  -0.312  24.434  0.00  0.00    +0.337 C 
ATOM     20  O   UNL     1      10.601  -0.221  23.316  0.00  0.00    -0.245 OA
BRANCH  19  21
ATOM     21  O   UNL     1      10.457   0.517  25.447  0.00  0.00    -0.477 OA
ATOM     22  H   UNL     1      11.198   0.227  26.014  0.00  0.00    +0.295 HD
ENDBRANCH  19  21
ENDBRANCH   4  19
TORSDOF 6
ENDMDL
MODEL 5
REMARK VINA RESULT:      -5.7      2.961      7.005
REMARK  Name = 
REMARK  7 active torsions:
REMARK  status: ('A' for Active; 'I' for Inactive)
REMARK    1  A    between atoms: C_1  and  C_2
REMARK    2  A    between atoms: N_4  and  C_5
REMARK    3  A    between atoms: C_8  and  C_16
REMARK    4  A    between atoms: C_10  and  N_11
REMARK    5  A    between atoms: C_12  and  C_14
REMARK    6  A    between atoms: C_14  and  O_15
REMARK    7  A    between atoms: C_16  and  O_17
REMARK                            x       y       z     vdW  Elec       q    Type
REMARK                         _______ _______ _______ _____ _____    ______ ____
ROOT
ATOM      1  C   UNL     1       7.254  -4.183  25.416  0.00  0.00    +0.055 A 
ATOM      2  C   UNL     1       6.207  -4.935  24.825  0.00  0.00    +0.056 A 
ATOM      3  C   UNL     1       5.461  -5.811  25.632  0.00  0.00    +0.040 A 
ATOM      4  C   UNL     1       5.685  -5.912  27.005  0.00  0.00    +0.061 A 
ATOM      5  C   UNL     1       6.711  -5.178  27.586  0.00  0.00    +0.017 A 
ATOM      6  C   UNL     1       7.485  -4.325  26.797  0.00  0.00    +0.026 A 
ENDROOT
BRANCH   1   9
ATOM      7  C   UNL     1       9.929  -2.141  23.677  0.00  0.00    +0.109 C 
ATOM      8  C   UNL     1       9.362  -3.373  24.338  0.00  0.00    +0.214 C 
ATOM      9  N   UNL     1       8.013  -3.254  24.651  0.00  0.00    -0.284 N 
ATOM     10  H   UNL     1       7.528  -2.447  24.286  0.00  0.00    +0.155 HD
ATOM     11  O   UNL     1      10.075  -4.356  24.525  0.00  0.00    -0.276 OA
ENDBRANCH   1   9
BRANCH   2  12
ATOM     12  N   UNL     1       5.944  -4.886  23.430  0.00  0.00    -0.282 N 
ATOM     13  H   UNL     1       5.117  -4.401  23.099  0.00  0.00    +0.155 HD
ATOM     14  C   UNL     1       6.745  -5.436  22.431  0.00  0.00    +0.243 C 
ATOM     15  O   UNL     1       7.695  -6.195  22.593  0.00  0.00    -0.273 OA
BRANCH  14  16
ATOM     16  C   UNL     1       6.337  -4.983  21.031  0.00  0.00    +0.251 C 
BRANCH  16  17
ATOM     17  O   UNL     1       5.566  -3.790  21.066  0.00  0.00    -0.386 OA
ATOM     18  H   UNL     1       4.637  -4.067  20.961  0.00  0.00    +0.210 HD
ENDBRANCH  16  17
ENDBRANCH  14  16
ENDBRANCH   2  12
BRANCH   4  19
ATOM     19  C   UNL     1       4.880  -6.825  27.852  0.00  0.00    +0.337 C 
ATOM     20  O   UNL     1       3.662  -6.817  27.851  0.00  0.00    -0.245 OA
BRANCH  19  21
ATOM     21  O   UNL     1       5.615  -7.690  28.582  0.00  0.00    -0.477 OA
ATOM     22  H   UNL     1       6.492  -7.370  28.869  0.00  0.00    +0.295 HD
ENDBRANCH  19  21
ENDBRANCH   4  19
TORSDOF 6
ENDMDL
MODEL 6
REMARK VINA RESULT:      -5.6      4.421      7.690
REMARK  Name = 
REMARK  7 active torsions:
REMARK  status: ('A' for Active; 'I' for Inactive)
REMARK    1  A    between atoms: C_1  and  C_2
REMARK    2  A    between atoms: N_4  and  C_5
REMARK    3  A    between atoms: C_8  and  C_16
REMARK    4  A    between atoms: C_10  and  N_11
REMARK    5  A    between atoms: C_12  and  C_14
REMARK    6  A    between atoms: C_14  and  O_15
REMARK    7  A    between atoms: C_16  and  O_17
REMARK                            x       y       z     vdW  Elec       q    Type
REMARK                         _______ _______ _______ _____ _____    ______ ____
ROOT
ATOM      1  C   UNL     1       8.846   3.335  23.402  0.00  0.00    +0.055 A 
ATOM      2  C   UNL     1      10.160   2.817  23.526  0.00  0.00    +0.056 A 
ATOM      3  C   UNL     1      10.347   1.585  24.176  0.00  0.00    +0.040 A 
ATOM      4  C   UNL     1       9.269   0.834  24.646  0.00  0.00    +0.061 A 
ATOM      5  C   UNL     1       7.981   1.340  24.528  0.00  0.00    +0.017 A 
ATOM      6  C   UNL     1       7.776   2.576  23.913  0.00  0.00    +0.026 A 
ENDROOT
BRANCH   1   9
ATOM      7  C   UNL     1       7.679   6.743  22.230  0.00  0.00    +0.109 C 
ATOM      8  C   UNL     1       7.959   5.670  23.254  0.00  0.00    +0.214 C 
ATOM      9  N   UNL     1       8.599   4.558  22.719  0.00  0.00    -0.284 N 
ATOM     10  H   UNL     1       8.935   4.636  21.770  0.00  0.00    +0.155 HD
ATOM     11  O   UNL     1       7.647   5.843  24.429  0.00  0.00    -0.276 OA
ENDBRANCH   1   9
BRANCH   2  12
ATOM     12  N   UNL     1      11.297   3.545  23.082  0.00  0.00    -0.282 N 
ATOM     13  H   UNL     1      11.910   3.130  22.390  0.00  0.00    +0.155 HD
ATOM     14  C   UNL     1      11.658   4.825  23.498  0.00  0.00    +0.243 C 
ATOM     15  O   UNL     1      11.168   5.454  24.432  0.00  0.00    -0.273 OA
BRANCH  14  16
ATOM     16  C   UNL     1      12.767   5.434  22.643  0.00  0.00    +0.251 C 
BRANCH  16  17
ATOM     17  O   UNL     1      14.057   5.072  23.117  0.00  0.00    -0.386 OA
ATOM     18  H   UNL     1      13.930   4.766  24.034  0.00  0.00    +0.210 HD
ENDBRANCH  16  17
ENDBRANCH  14  16
ENDBRANCH   2  12
BRANCH   4  19
ATOM     19  C   UNL     1       9.474  -0.474  25.313  0.00  0.00    +0.337 C 
ATOM     20  O   UNL     1       9.252  -0.648  26.497  0.00  0.00    -0.245 OA
BRANCH  19  21
ATOM     21  O   UNL     1       9.880  -1.457  24.483  0.00  0.00    -0.477 OA
ATOM     22  H   UNL     1      10.424  -2.160  24.886  0.00  0.00    +0.295 HD
ENDBRANCH  19  21
ENDBRANCH   4  19
TORSDOF 6
ENDMDL
MODEL 7
REMARK VINA RESULT:      -5.6      2.693      5.920
REMARK  Name = 
REMARK  7 active torsions:
REMARK  status: ('A' for Active; 'I' for Inactive)
REMARK    1  A    between atoms: C_1  and  C_2
REMARK    2  A    between atoms: N_4  and  C_5
REMARK    3  A    between atoms: C_8  and  C_16
REMARK    4  A    between atoms: C_10  and  N_11
REMARK    5  A    between atoms: C_12  and  C_14
REMARK    6  A    between atoms: C_14  and  O_15
REMARK    7  A    between atoms: C_16  and  O_17
REMARK                            x       y       z     vdW  Elec       q    Type
REMARK                         _______ _______ _______ _____ _____    ______ ____
ROOT
ATOM      1  C   UNL     1       7.347  -3.445  23.115  0.00  0.00    +0.055 A 
ATOM      2  C   UNL     1       6.733  -3.289  24.384  0.00  0.00    +0.056 A 
ATOM      3  C   UNL     1       5.939  -4.334  24.887  0.00  0.00    +0.040 A 
ATOM      4  C   UNL     1       5.792  -5.539  24.199  0.00  0.00    +0.061 A 
ATOM      5  C   UNL     1       6.390  -5.693  22.956  0.00  0.00    +0.017 A 
ATOM      6  C   UNL     1       7.157  -4.655  22.423  0.00  0.00    +0.026 A 
ENDROOT
BRANCH   1   9
ATOM      7  C   UNL     1      10.078  -0.936  22.341  0.00  0.00    +0.109 C 
ATOM      8  C   UNL     1       9.508  -2.193  22.951  0.00  0.00    +0.214 C 
ATOM      9  N   UNL     1       8.191  -2.433  22.578  0.00  0.00    -0.284 N 
ATOM     10  H   UNL     1       7.808  -1.850  21.847  0.00  0.00    +0.155 HD
ATOM     11  O   UNL     1      10.206  -2.898  23.674  0.00  0.00    -0.276 OA
ENDBRANCH   1   9
BRANCH   2  12
ATOM     12  N   UNL     1       6.834  -2.079  25.121  0.00  0.00    -0.282 N 
ATOM     13  H   UNL     1       6.235  -1.299  24.875  0.00  0.00    +0.155 HD
ATOM     14  C   UNL     1       7.685  -1.852  26.200  0.00  0.00    +0.243 C 
ATOM     15  O   UNL     1       8.601  -2.579  26.574  0.00  0.00    -0.273 OA
BRANCH  14  16
ATOM     16  C   UNL     1       7.365  -0.556  26.943  0.00  0.00    +0.251 C 
BRANCH  16  17
ATOM     17  O   UNL     1       8.481  -0.085  27.686  0.00  0.00    -0.386 OA
ATOM     18  H   UNL     1       8.725   0.772  27.290  0.00  0.00    +0.210 HD
ENDBRANCH  16  17
ENDBRANCH  14  16
ENDBRANCH   2  12
BRANCH   4  19
ATOM     19  C   UNL     1       4.969  -6.643  24.748  0.00  0.00    +0.337 C 
ATOM     20  O   UNL     1       4.774  -6.786  25.941  0.00  0.00    -0.245 OA
BRANCH  19  21
ATOM     21  O   UNL     1       4.421  -7.440  23.807  0.00  0.00    -0.477 OA
ATOM     22  H   UNL     1       3.757  -8.083  24.124  0.00  0.00    +0.295 HD
ENDBRANCH  19  21
ENDBRANCH   4  19
TORSDOF 6
ENDMDL
MODEL 8
REMARK VINA RESULT:      -5.6      2.576      5.770
REMARK  Name = 
REMARK  7 active torsions:
REMARK  status: ('A' for Active; 'I' for Inactive)
REMARK    1  A    between atoms: C_1  and  C_2
REMARK    2  A    between atoms: N_4  and  C_5
REMARK    3  A    between atoms: C_8  and  C_16
REMARK    4  A    between atoms: C_10  and  N_11
REMARK    5  A    between atoms: C_12  and  C_14
REMARK    6  A    between atoms: C_14  and  O_15
REMARK    7  A    between atoms: C_16  and  O_17
REMARK                            x       y       z     vdW  Elec       q    Type
REMARK                         _______ _______ _______ _____ _____    ______ ____
ROOT
ATOM      1  C   UNL     1       9.423  -1.267  24.475  0.00  0.00    +0.055 A 
ATOM      2  C   UNL     1       8.733  -1.145  25.708  0.00  0.00    +0.056 A 
ATOM      3  C   UNL     1       8.337  -2.313  26.383  0.00  0.00    +0.040 A 
ATOM      4  C   UNL     1       8.660  -3.582  25.902  0.00  0.00    +0.061 A 
ATOM      5  C   UNL     1       9.334  -3.704  24.695  0.00  0.00    +0.017 A 
ATOM      6  C   UNL     1       9.709  -2.557  23.992  0.00  0.00    +0.026 A 
ENDROOT
BRANCH   1   9
ATOM      7  C   UNL     1      10.035   1.585  22.058  0.00  0.00    +0.109 C 
ATOM      8  C   UNL     1       9.215   0.507  22.722  0.00  0.00    +0.214 C 
ATOM      9  N   UNL     1       9.879  -0.117  23.772  0.00  0.00    -0.284 N 
ATOM     10  H   UNL     1      10.751   0.295  24.071  0.00  0.00    +0.155 HD
ATOM     11  O   UNL     1       8.071   0.277  22.338  0.00  0.00    -0.276 OA
ENDBRANCH   1   9
BRANCH   2  12
ATOM     12  N   UNL     1       8.362   0.120  26.237  0.00  0.00    -0.282 N 
ATOM     13  H   UNL     1       8.962   0.564  26.923  0.00  0.00    +0.155 HD
ATOM     14  C   UNL     1       7.230   0.851  25.882  0.00  0.00    +0.243 C 
ATOM     15  O   UNL     1       6.289   0.454  25.202  0.00  0.00    -0.273 OA
BRANCH  14  16
ATOM     16  C   UNL     1       7.257   2.280  26.421  0.00  0.00    +0.251 C 
BRANCH  16  17
ATOM     17  O   UNL     1       7.429   2.308  27.832  0.00  0.00    -0.386 OA
ATOM     18  H   UNL     1       7.143   1.433  28.155  0.00  0.00    +0.210 HD
ENDBRANCH  16  17
ENDBRANCH  14  16
ENDBRANCH   2  12
BRANCH   4  19
ATOM     19  C   UNL     1       8.256  -4.807  26.632  0.00  0.00    +0.337 C 
ATOM     20  O   UNL     1       7.397  -4.804  27.495  0.00  0.00    -0.245 OA
BRANCH  19  21
ATOM     21  O   UNL     1       8.888  -5.926  26.220  0.00  0.00    -0.477 OA
ATOM     22  H   UNL     1       8.319  -6.624  25.840  0.00  0.00    +0.295 HD
ENDBRANCH  19  21
ENDBRANCH   4  19
TORSDOF 6
ENDMDL
MODEL 9
REMARK VINA RESULT:      -5.5      2.390      6.080
REMARK  Name = 
REMARK  7 active torsions:
REMARK  status: ('A' for Active; 'I' for Inactive)
REMARK    1  A    between atoms: C_1  and  C_2
REMARK    2  A    between atoms: N_4  and  C_5
REMARK    3  A    between atoms: C_8  and  C_16
REMARK    4  A    between atoms: C_10  and  N_11
REMARK    5  A    between atoms: C_12  and  C_14
REMARK    6  A    between atoms: C_14  and  O_15
REMARK    7  A    between atoms: C_16  and  O_17
REMARK                            x       y       z     vdW  Elec       q    Type
REMARK                         _______ _______ _______ _____ _____    ______ ____
ROOT
ATOM      1  C   UNL     1       8.196  -2.984  24.163  0.00  0.00    +0.055 A 
ATOM      2  C   UNL     1       7.859  -2.490  22.877  0.00  0.00    +0.056 A 
ATOM      3  C   UNL     1       7.246  -3.357  21.956  0.00  0.00    +0.040 A 
ATOM      4  C   UNL     1       6.906  -4.666  22.296  0.00  0.00    +0.061 A 
ATOM      5  C   UNL     1       7.237  -5.153  23.554  0.00  0.00    +0.017 A 
ATOM      6  C   UNL     1       7.875  -4.318  24.474  0.00  0.00    +0.026 A 
ENDROOT
BRANCH   1   9
ATOM      7  C   UNL     1       8.969  -0.627  27.026  0.00  0.00    +0.109 C 
ATOM      8  C   UNL     1       8.147  -1.648  26.279  0.00  0.00    +0.214 C 
ATOM      9  N   UNL     1       8.784  -2.138  25.144  0.00  0.00    -0.284 N 
ATOM     10  H   UNL     1       9.754  -1.885  25.018  0.00  0.00    +0.155 HD
ATOM     11  O   UNL     1       7.046  -1.983  26.704  0.00  0.00    -0.276 OA
ENDBRANCH   1   9
BRANCH   2  12
ATOM     12  N   UNL     1       8.196  -1.172  22.469  0.00  0.00    -0.282 N 
ATOM     13  H   UNL     1       8.973  -1.035  21.832  0.00  0.00    +0.155 HD
ATOM     14  C   UNL     1       7.531  -0.007  22.848  0.00  0.00    +0.243 C 
ATOM     15  O   UNL     1       6.676   0.093  23.722  0.00  0.00    -0.273 OA
BRANCH  14  16
ATOM     16  C   UNL     1       7.961   1.210  22.033  0.00  0.00    +0.251 C 
BRANCH  16  17
ATOM     17  O   UNL     1       9.028   0.901  21.146  0.00  0.00    -0.386 OA
ATOM     18  H   UNL     1       9.842   1.204  21.589  0.00  0.00    +0.210 HD
ENDBRANCH  16  17
ENDBRANCH  14  16
ENDBRANCH   2  12
BRANCH   4  19
ATOM     19  C   UNL     1       6.240  -5.567  21.325  0.00  0.00    +0.337 C 
ATOM     20  O   UNL     1       5.979  -5.225  20.186  0.00  0.00    -0.245 OA
BRANCH  19  21
ATOM     21  O   UNL     1       5.998  -6.806  21.800  0.00  0.00    -0.477 OA
ATOM     22  H   UNL     1       5.854  -7.501  21.130  0.00  0.00    +0.295 HD
ENDBRANCH  19  21
ENDBRANCH   4  19
TORSDOF 6
ENDMDL
