MODEL 1
REMARK VINA RESULT:      -6.4      0.000      0.000
REMARK  Name = 
REMARK  15 active torsions:
REMARK  status: ('A' for Active; 'I' for Inactive)
REMARK    1  A    between atoms: C_2  and  O_3
REMARK    2  A    between atoms: C_2  and  C_4
REMARK    3  A    between atoms: C_2  and  C_26
REMARK    4  A    between atoms: C_4  and  C_5
REMARK    5  A    between atoms: N_7  and  CA_8
REMARK    6  A    between atoms: CA_8  and  C_10
REMARK    7  A    between atoms: CA_8  and  CB_21
REMARK    8  A    between atoms: CA_16  and  C_18
REMARK    9  A    between atoms: C_18  and  O_19
REMARK   10  A    between atoms: CB_21  and  CG2_23
REMARK   11  A    between atoms: CB_21  and  CG1_24
REMARK   12  A    between atoms: CG1_24  and  CD1_25
REMARK   13  A    between atoms: N_28  and  C_29
REMARK   14  A    between atoms: C_29  and  C_30
REMARK   15  A    between atoms: C_30  and  C_31
REMARK                            x       y       z     vdW  Elec       q    Type
REMARK                         _______ _______ _______ _____ _____    ______ ____
ROOT
ATOM      1  CA  ILE A   1       7.688  -2.577  23.481  0.00  0.00    +0.162 C 
ENDROOT
BRANCH   1   2
ATOM      2  C   ILE A   1       9.113  -2.026  23.765  0.00  0.00    +0.237 C 
ATOM      3  N   PRO A   2       9.316  -0.662  23.721  0.00  0.00    -0.286 N 
ATOM      4  CA  PRO A   2       8.530   0.363  23.038  0.00  0.00    +0.184 C 
ATOM      5  CB  PRO A   2       8.835   1.660  23.808  0.00  0.00    +0.035 C 
ATOM      6  CG  PRO A   2       9.859   1.286  24.881  0.00  0.00    +0.021 C 
ATOM      7  CD  PRO A   2      10.424  -0.052  24.439  0.00  0.00    +0.109 C 
ATOM      8  O   ILE A   1      10.065  -2.751  24.055  0.00  0.00    -0.274 OA
BRANCH   4   9
ATOM      9  C   PRO A   2       8.967   0.506  21.571  0.00  0.00    +0.325 C 
ATOM     10  OXT PRO A   2       9.431  -0.418  20.917  0.00  0.00    -0.249 OA
BRANCH   9  11
ATOM     11  O   PRO A   2       8.811   1.744  21.049  0.00  0.00    -0.479 OA
ATOM     12  H   PRO A   2       8.046   2.226  21.429  0.00  0.00    +0.295 HD
ENDBRANCH   9  11
ENDBRANCH   4   9
ENDBRANCH   1   2
BRANCH   1  14
ATOM     13  C   UNK A   0       7.698  -5.070  23.019  0.00  0.00    +0.217 C 
ATOM     14  N   ILE A   1       7.606  -3.758  22.609  0.00  0.00    -0.304 N 
ATOM     15  H   ILE A   1       7.222  -3.601  21.684  0.00  0.00    +0.149 HD
ATOM     16  O   UNK A   0       8.065  -5.415  24.135  0.00  0.00    -0.276 OA
BRANCH  13  17
ATOM     17  C   UNK A   0       7.316  -6.089  21.962  0.00  0.00    +0.136 C 
BRANCH  17  18
ATOM     18  C   UNK A   0       5.882  -5.903  21.471  0.00  0.00    +0.209 C 
BRANCH  18  19
ATOM     19  C   UNK A   0       4.917  -5.731  22.654  0.00  0.00    +0.242 C 
ATOM     20  N   UNK A   0       4.761  -6.833  23.457  0.00  0.00    -0.313 N 
ATOM     21  H   UNK A   0       5.151  -7.720  23.153  0.00  0.00    +0.149 HD
ATOM     22  O   UNK A   0       4.336  -4.662  22.843  0.00  0.00    -0.273 OA
BRANCH  20  23
ATOM     23  C   UNK A   0       3.876  -6.831  24.605  0.00  0.00    +0.104 C 
BRANCH  23  24
ATOM     24  C   UNK A   0       4.637  -6.739  25.923  0.00  0.00    +0.015 C 
ATOM     25  C   UNK A   0       4.767  -5.293  26.379  0.00  0.00    +0.005 C 
ENDBRANCH  23  24
ENDBRANCH  20  23
ENDBRANCH  18  19
BRANCH  18  26
ATOM     26  O   UNK A   0       5.828  -4.717  20.665  0.00  0.00    -0.382 OA
ATOM     27  H   UNK A   0       5.697  -3.966  21.281  0.00  0.00    +0.210 HD
ENDBRANCH  18  26
ENDBRANCH  17  18
ENDBRANCH  13  17
ENDBRANCH   1  14
BRANCH   1  28
ATOM     28  CB  ILE A   1       6.787  -2.614  24.759  0.00  0.00    +0.015 C 
ATOM     29  CG2 ILE A   1       7.518  -2.444  26.095  0.00  0.00    +0.010 C 
BRANCH  28  30
ATOM     30  CG1 ILE A   1       5.657  -1.556  24.618  0.00  0.00    +0.002 C 
ATOM     31  CD1 ILE A   1       5.842  -0.314  25.478  0.00  0.00    +0.004 C 
ENDBRANCH  28  30
ENDBRANCH   1  28
TORSDOF 12
ENDMDL
MODEL 2
REMARK VINA RESULT:      -6.3      2.326      6.515
REMARK  Name = 
REMARK  15 active torsions:
REMARK  status: ('A' for Active; 'I' for Inactive)
REMARK    1  A    between atoms: C_2  and  O_3
REMARK    2  A    between atoms: C_2  and  C_4
REMARK    3  A    between atoms: C_2  and  C_26
REMARK    4  A    between atoms: C_4  and  C_5
REMARK    5  A    between atoms: N_7  and  CA_8
REMARK    6  A    between atoms: CA_8  and  C_10
REMARK    7  A    between atoms: CA_8  and  CB_21
REMARK    8  A    between atoms: CA_16  and  C_18
REMARK    9  A    between atoms: C_18  and  O_19
REMARK   10  A    between atoms: CB_21  and  CG2_23
REMARK   11  A    between atoms: CB_21  and  CG1_24
REMARK   12  A    between atoms: CG1_24  and  CD1_25
REMARK   13  A    between atoms: N_28  and  C_29
REMARK   14  A    between atoms: C_29  and  C_30
REMARK   15  A    between atoms: C_30  and  C_31
REMARK                            x       y       z     vdW  Elec       q    Type
REMARK                         _______ _______ _______ _____ _____    ______ ____
ROOT
ATOM      1  CA  ILE A   1       7.087  -3.906  23.042  0.00  0.00    +0.162 C 
ENDROOT
BRANCH   1   2
ATOM      2  C   ILE A   1       7.796  -4.597  24.239  0.00  0.00    +0.237 C 
ATOM      3  N   PRO A   2       7.370  -4.307  25.519  0.00  0.00    -0.286 N 
ATOM      4  CA  PRO A   2       6.642  -3.135  26.001  0.00  0.00    +0.184 C 
ATOM      5  CB  PRO A   2       5.938  -3.618  27.282  0.00  0.00    +0.035 C 
ATOM      6  CG  PRO A   2       6.376  -5.070  27.484  0.00  0.00    +0.021 C 
ATOM      7  CD  PRO A   2       7.605  -5.238  26.610  0.00  0.00    +0.109 C 
ATOM      8  O   ILE A   1       8.704  -5.416  24.096  0.00  0.00    -0.274 OA
BRANCH   4   9
ATOM      9  C   PRO A   2       7.607  -1.985  26.333  0.00  0.00    +0.325 C 
ATOM     10  OXT PRO A   2       7.343  -1.098  27.133  0.00  0.00    -0.249 OA
BRANCH   9  11
ATOM     11  O   PRO A   2       8.781  -2.017  25.663  0.00  0.00    -0.479 OA
ATOM     12  H   PRO A   2       8.735  -1.575  24.788  0.00  0.00    +0.295 HD
ENDBRANCH   9  11
ENDBRANCH   4   9
ENDBRANCH   1   2
BRANCH   1  14
ATOM     13  C   UNK A   0       7.957  -1.609  22.413  0.00  0.00    +0.217 C 
ATOM     14  N   ILE A   1       7.903  -2.975  22.248  0.00  0.00    -0.304 N 
ATOM     15  H   ILE A   1       8.649  -3.393  21.704  0.00  0.00    +0.149 HD
ATOM     16  O   UNK A   0       7.174  -0.972  23.107  0.00  0.00    -0.276 OA
BRANCH  13  17
ATOM     17  C   UNK A   0       9.071  -0.924  21.645  0.00  0.00    +0.136 C 
BRANCH  17  18
ATOM     18  C   UNK A   0      10.382  -0.902  22.427  0.00  0.00    +0.209 C 
BRANCH  18  19
ATOM     19  C   UNK A   0      10.430   0.302  23.381  0.00  0.00    +0.242 C 
ATOM     20  N   UNK A   0      10.282   1.532  22.791  0.00  0.00    -0.313 N 
ATOM     21  H   UNK A   0      10.307   1.596  21.778  0.00  0.00    +0.149 HD
ATOM     22  O   UNK A   0      10.592   0.141  24.591  0.00  0.00    -0.273 OA
BRANCH  20  23
ATOM     23  C   UNK A   0      10.316   2.762  23.556  0.00  0.00    +0.104 C 
BRANCH  23  24
ATOM     24  C   UNK A   0       8.939   3.405  23.683  0.00  0.00    +0.015 C 
ATOM     25  C   UNK A   0       8.037   2.995  22.530  0.00  0.00    +0.005 C 
ENDBRANCH  23  24
ENDBRANCH  20  23
ENDBRANCH  18  19
BRANCH  18  26
ATOM     26  O   UNK A   0      10.466  -2.103  23.208  0.00  0.00    -0.382 OA
ATOM     27  H   UNK A   0      10.832  -2.795  22.618  0.00  0.00    +0.210 HD
ENDBRANCH  18  26
ENDBRANCH  17  18
ENDBRANCH  13  17
ENDBRANCH   1  14
BRANCH   1  28
ATOM     28  CB  ILE A   1       6.185  -4.886  22.222  0.00  0.00    +0.015 C 
ATOM     29  CG2 ILE A   1       6.928  -5.939  21.394  0.00  0.00    +0.010 C 
BRANCH  28  30
ATOM     30  CG1 ILE A   1       5.167  -5.566  23.180  0.00  0.00    +0.002 C 
ATOM     31  CD1 ILE A   1       4.061  -4.649  23.682  0.00  0.00    +0.004 C 
ENDBRANCH  28  30
ENDBRANCH   1  28
TORSDOF 12
ENDMDL
MODEL 3
REMARK VINA RESULT:      -6.3      2.435      7.212
REMARK  Name = 
REMARK  15 active torsions:
REMARK  status: ('A' for Active; 'I' for Inactive)
REMARK    1  A    between atoms: C_2  and  O_3
REMARK    2  A    between atoms: C_2  and  C_4
REMARK    3  A    between atoms: C_2  and  C_26
REMARK    4  A    between atoms: C_4  and  C_5
REMARK    5  A    between atoms: N_7  and  CA_8
REMARK    6  A    between atoms: CA_8  and  C_10
REMARK    7  A    between atoms: CA_8  and  CB_21
REMARK    8  A    between atoms: CA_16  and  C_18
REMARK    9  A    between atoms: C_18  and  O_19
REMARK   10  A    between atoms: CB_21  and  CG2_23
REMARK   11  A    between atoms: CB_21  and  CG1_24
REMARK   12  A    between atoms: CG1_24  and  CD1_25
REMARK   13  A    between atoms: N_28  and  C_29
REMARK   14  A    between atoms: C_29  and  C_30
REMARK   15  A    between atoms: C_30  and  C_31
REMARK                            x       y       z     vdW  Elec       q    Type
REMARK                         _______ _______ _______ _____ _____    ______ ____
ROOT
ATOM      1  CA  ILE A   1       7.564  -1.629  24.357  0.00  0.00    +0.162 C 
ENDROOT
BRANCH   1   2
ATOM      2  C   ILE A   1       7.034  -2.998  23.845  0.00  0.00    +0.237 C 
ATOM      3  N   PRO A   2       7.162  -4.104  24.659  0.00  0.00    -0.286 N 
ATOM      4  CA  PRO A   2       8.093  -4.330  25.762  0.00  0.00    +0.184 C 
ATOM      5  CB  PRO A   2       7.403  -5.390  26.639  0.00  0.00    +0.035 C 
ATOM      6  CG  PRO A   2       6.103  -5.755  25.918  0.00  0.00    +0.021 C 
ATOM      7  CD  PRO A   2       6.283  -5.251  24.498  0.00  0.00    +0.109 C 
ATOM      8  O   ILE A   1       6.478  -3.134  22.755  0.00  0.00    -0.274 OA
BRANCH   4   9
ATOM      9  C   PRO A   2       9.437  -4.868  25.247  0.00  0.00    +0.325 C 
ATOM     10  OXT PRO A   2      10.180  -4.227  24.516  0.00  0.00    -0.249 OA
BRANCH   9  11
ATOM     11  O   PRO A   2       9.743  -6.121  25.654  0.00  0.00    -0.479 OA
ATOM     12  H   PRO A   2      10.267  -6.622  24.993  0.00  0.00    +0.295 HD
ENDBRANCH   9  11
ENDBRANCH   4   9
ENDBRANCH   1   2
BRANCH   1  14
ATOM     13  C   UNK A   0       9.384  -0.735  22.833  0.00  0.00    +0.217 C 
ATOM     14  N   ILE A   1       8.102  -0.714  23.338  0.00  0.00    -0.304 N 
ATOM     15  H   ILE A   1       7.417  -0.191  22.806  0.00  0.00    +0.149 HD
ATOM     16  O   UNK A   0      10.300  -1.386  23.318  0.00  0.00    -0.276 OA
BRANCH  13  17
ATOM     17  C   UNK A   0       9.594   0.138  21.611  0.00  0.00    +0.136 C 
BRANCH  17  18
ATOM     18  C   UNK A   0       9.776   1.609  21.977  0.00  0.00    +0.209 C 
BRANCH  18  19
ATOM     19  C   UNK A   0       8.429   2.348  21.961  0.00  0.00    +0.242 C 
ATOM     20  N   UNK A   0       8.441   3.613  22.494  0.00  0.00    -0.313 N 
ATOM     21  H   UNK A   0       9.266   3.925  22.996  0.00  0.00    +0.149 HD
ATOM     22  O   UNK A   0       7.423   1.814  21.493  0.00  0.00    -0.273 OA
BRANCH  20  23
ATOM     23  C   UNK A   0       7.246   4.431  22.561  0.00  0.00    +0.104 C 
BRANCH  23  24
ATOM     24  C   UNK A   0       7.469   5.829  21.994  0.00  0.00    +0.015 C 
ATOM     25  C   UNK A   0       8.212   6.709  22.988  0.00  0.00    +0.005 C 
ENDBRANCH  23  24
ENDBRANCH  20  23
ENDBRANCH  18  19
BRANCH  18  26
ATOM     26  O   UNK A   0      10.319   1.684  23.304  0.00  0.00    -0.382 OA
ATOM     27  H   UNK A   0      11.258   1.946  23.207  0.00  0.00    +0.210 HD
ENDBRANCH  18  26
ENDBRANCH  17  18
ENDBRANCH  13  17
ENDBRANCH   1  14
BRANCH   1  28
ATOM     28  CB  ILE A   1       6.629  -0.978  25.427  0.00  0.00    +0.015 C 
ATOM     29  CG2 ILE A   1       5.208  -1.545  25.503  0.00  0.00    +0.010 C 
BRANCH  28  30
ATOM     30  CG1 ILE A   1       7.318  -1.048  26.819  0.00  0.00    +0.002 C 
ATOM     31  CD1 ILE A   1       8.826  -0.848  26.788  0.00  0.00    +0.004 C 
ENDBRANCH  28  30
ENDBRANCH   1  28
TORSDOF 12
ENDMDL
MODEL 4
REMARK VINA RESULT:      -6.2      2.714      7.770
REMARK  Name = 
REMARK  15 active torsions:
REMARK  status: ('A' for Active; 'I' for Inactive)
REMARK    1  A    between atoms: C_2  and  O_3
REMARK    2  A    between atoms: C_2  and  C_4
REMARK    3  A    between atoms: C_2  and  C_26
REMARK    4  A    between atoms: C_4  and  C_5
REMARK    5  A    between atoms: N_7  and  CA_8
REMARK    6  A    between atoms: CA_8  and  C_10
REMARK    7  A    between atoms: CA_8  and  CB_21
REMARK    8  A    between atoms: CA_16  and  C_18
REMARK    9  A    between atoms: C_18  and  O_19
REMARK   10  A    between atoms: CB_21  and  CG2_23
REMARK   11  A    between atoms: CB_21  and  CG1_24
REMARK   12  A    between atoms: CG1_24  and  CD1_25
REMARK   13  A    between atoms: N_28  and  C_29
REMARK   14  A    between atoms: C_29  and  C_30
REMARK   15  A    between atoms: C_30  and  C_31
REMARK                            x       y       z     vdW  Elec       q    Type
REMARK                         _______ _______ _______ _____ _____    ______ ____
ROOT
ATOM      1  CA  ILE A   1       7.218  -0.925  24.609  0.00  0.00    +0.162 C 
ENDROOT
BRANCH   1   2
ATOM      2  C   ILE A   1       6.883  -2.158  23.725  0.00  0.00    +0.237 C 
ATOM      3  N   PRO A   2       7.147  -3.419  24.219  0.00  0.00    -0.286 N 
ATOM      4  CA  PRO A   2       8.085  -3.818  25.266  0.00  0.00    +0.184 C 
ATOM      5  CB  PRO A   2       7.532  -5.154  25.792  0.00  0.00    +0.035 C 
ATOM      6  CG  PRO A   2       6.303  -5.470  24.937  0.00  0.00    +0.021 C 
ATOM      7  CD  PRO A   2       6.432  -4.580  23.714  0.00  0.00    +0.109 C 
ATOM      8  O   ILE A   1       6.364  -2.062  22.613  0.00  0.00    -0.274 OA
BRANCH   4   9
ATOM      9  C   PRO A   2       9.497  -4.022  24.692  0.00  0.00    +0.325 C 
ATOM     10  OXT PRO A   2      10.065  -3.191  23.996  0.00  0.00    -0.249 OA
BRANCH   9  11
ATOM     11  O   PRO A   2      10.072  -5.206  25.005  0.00  0.00    -0.479 OA
ATOM     12  H   PRO A   2       9.655  -5.641  25.778  0.00  0.00    +0.295 HD
ENDBRANCH   9  11
ENDBRANCH   4   9
ENDBRANCH   1   2
BRANCH   1  14
ATOM     13  C   UNK A   0       9.489   0.200  24.535  0.00  0.00    +0.217 C 
ATOM     14  N   ILE A   1       8.207   0.019  24.066  0.00  0.00    -0.304 N 
ATOM     15  H   ILE A   1       8.008   0.386  23.143  0.00  0.00    +0.149 HD
ATOM     16  O   UNK A   0       9.901  -0.254  25.595  0.00  0.00    -0.276 OA
BRANCH  13  17
ATOM     17  C   UNK A   0      10.378   1.036  23.634  0.00  0.00    +0.136 C 
BRANCH  17  18
ATOM     18  C   UNK A   0       9.598   2.127  22.905  0.00  0.00    +0.209 C 
BRANCH  18  19
ATOM     19  C   UNK A   0       9.690   3.463  23.659  0.00  0.00    +0.242 C 
ATOM     20  N   UNK A   0      10.623   4.349  23.183  0.00  0.00    -0.313 N 
ATOM     21  H   UNK A   0      11.289   4.031  22.485  0.00  0.00    +0.149 HD
ATOM     22  O   UNK A   0       8.961   3.693  24.624  0.00  0.00    -0.273 OA
BRANCH  20  23
ATOM     23  C   UNK A   0      10.837   5.645  23.795  0.00  0.00    +0.104 C 
BRANCH  23  24
ATOM     24  C   UNK A   0      12.316   5.957  23.992  0.00  0.00    +0.015 C 
ATOM     25  C   UNK A   0      13.165   5.267  22.934  0.00  0.00    +0.005 C 
ENDBRANCH  23  24
ENDBRANCH  20  23
ENDBRANCH  18  19
BRANCH  18  26
ATOM     26  O   UNK A   0      10.171   2.302  21.601  0.00  0.00    -0.382 OA
ATOM     27  H   UNK A   0      10.563   3.199  21.586  0.00  0.00    +0.210 HD
ENDBRANCH  18  26
ENDBRANCH  17  18
ENDBRANCH  13  17
ENDBRANCH   1  14
BRANCH   1  28
ATOM     28  CB  ILE A   1       5.949  -0.281  25.257  0.00  0.00    +0.015 C 
ATOM     29  CG2 ILE A   1       4.993  -1.251  25.958  0.00  0.00    +0.010 C 
BRANCH  28  30
ATOM     30  CG1 ILE A   1       6.390   0.848  26.231  0.00  0.00    +0.002 C 
ATOM     31  CD1 ILE A   1       6.992   0.356  27.539  0.00  0.00    +0.004 C 
ENDBRANCH  28  30
ENDBRANCH   1  28
TORSDOF 12
ENDMDL
MODEL 5
REMARK VINA RESULT:      -6.2      2.359      7.127
REMARK  Name = 
REMARK  15 active torsions:
REMARK  status: ('A' for Active; 'I' for Inactive)
REMARK    1  A    between atoms: C_2  and  O_3
REMARK    2  A    between atoms: C_2  and  C_4
REMARK    3  A    between atoms: C_2  and  C_26
REMARK    4  A    between atoms: C_4  and  C_5
REMARK    5  A    between atoms: N_7  and  CA_8
REMARK    6  A    between atoms: CA_8  and  C_10
REMARK    7  A    between atoms: CA_8  and  CB_21
REMARK    8  A    between atoms: CA_16  and  C_18
REMARK    9  A    between atoms: C_18  and  O_19
REMARK   10  A    between atoms: CB_21  and  CG2_23
REMARK   11  A    between atoms: CB_21  and  CG1_24
REMARK   12  A    between atoms: CG1_24  and  CD1_25
REMARK   13  A    between atoms: N_28  and  C_29
REMARK   14  A    between atoms: C_29  and  C_30
REMARK   15  A    between atoms: C_30  and  C_31
REMARK                            x       y       z     vdW  Elec       q    Type
REMARK                         _______ _______ _______ _____ _____    ______ ____
ROOT
ATOM      1  CA  ILE A   1       7.915  -2.448  24.135  0.00  0.00    +0.162 C 
ENDROOT
BRANCH   1   2
ATOM      2  C   ILE A   1       6.399  -2.724  24.335  0.00  0.00    +0.237 C 
ATOM      3  N   PRO A   2       5.886  -3.934  23.916  0.00  0.00    -0.286 N 
ATOM      4  CA  PRO A   2       6.418  -4.864  22.923  0.00  0.00    +0.184 C 
ATOM      5  CB  PRO A   2       5.815  -6.226  23.307  0.00  0.00    +0.035 C 
ATOM      6  CG  PRO A   2       4.897  -5.962  24.502  0.00  0.00    +0.021 C 
ATOM      7  CD  PRO A   2       4.661  -4.462  24.496  0.00  0.00    +0.109 C 
ATOM      8  O   ILE A   1       5.639  -1.921  24.876  0.00  0.00    -0.274 OA
BRANCH   4   9
ATOM      9  C   PRO A   2       5.971  -4.471  21.505  0.00  0.00    +0.325 C 
ATOM     10  OXT PRO A   2       5.595  -3.345  21.209  0.00  0.00    -0.249 OA
BRANCH   9  11
ATOM     11  O   PRO A   2       6.014  -5.473  20.597  0.00  0.00    -0.479 OA
ATOM     12  H   PRO A   2       5.137  -5.671  20.205  0.00  0.00    +0.295 HD
ENDBRANCH   9  11
ENDBRANCH   4   9
ENDBRANCH   1   2
BRANCH   1  14
ATOM     13  C   UNK A   0       9.412  -1.307  22.437  0.00  0.00    +0.217 C 
ATOM     14  N   ILE A   1       8.265  -1.371  23.196  0.00  0.00    -0.304 N 
ATOM     15  H   ILE A   1       7.505  -0.762  22.917  0.00  0.00    +0.149 HD
ATOM     16  O   UNK A   0      10.383  -2.034  22.600  0.00  0.00    -0.276 OA
BRANCH  13  17
ATOM     17  C   UNK A   0       9.399  -0.235  21.363  0.00  0.00    +0.136 C 
BRANCH  17  18
ATOM     18  C   UNK A   0       9.646   1.158  21.936  0.00  0.00    +0.209 C 
BRANCH  18  19
ATOM     19  C   UNK A   0       8.328   1.938  22.067  0.00  0.00    +0.242 C 
ATOM     20  N   UNK A   0       8.448   3.305  22.096  0.00  0.00    -0.313 N 
ATOM     21  H   UNK A   0       9.374   3.713  22.186  0.00  0.00    +0.149 HD
ATOM     22  O   UNK A   0       7.251   1.346  22.139  0.00  0.00    -0.273 OA
BRANCH  20  23
ATOM     23  C   UNK A   0       7.298   4.176  22.228  0.00  0.00    +0.104 C 
BRANCH  23  24
ATOM     24  C   UNK A   0       7.669   5.546  22.785  0.00  0.00    +0.015 C 
ATOM     25  C   UNK A   0       7.119   6.660  21.908  0.00  0.00    +0.005 C 
ENDBRANCH  23  24
ENDBRANCH  20  23
ENDBRANCH  18  19
BRANCH  18  26
ATOM     26  O   UNK A   0      10.222   1.018  23.243  0.00  0.00    -0.382 OA
ATOM     27  H   UNK A   0      11.186   0.904  23.112  0.00  0.00    +0.210 HD
ENDBRANCH  18  26
ENDBRANCH  17  18
ENDBRANCH  13  17
ENDBRANCH   1  14
BRANCH   1  28
ATOM     28  CB  ILE A   1       8.716  -2.463  25.478  0.00  0.00    +0.015 C 
ATOM     29  CG2 ILE A   1       8.655  -1.175  26.305  0.00  0.00    +0.010 C 
BRANCH  28  30
ATOM     30  CG1 ILE A   1       8.261  -3.680  26.331  0.00  0.00    +0.002 C 
ATOM     31  CD1 ILE A   1       8.841  -5.015  25.889  0.00  0.00    +0.004 C 
ENDBRANCH  28  30
ENDBRANCH   1  28
TORSDOF 12
ENDMDL
MODEL 6
REMARK VINA RESULT:      -6.1      2.348      7.462
REMARK  Name = 
REMARK  15 active torsions:
REMARK  status: ('A' for Active; 'I' for Inactive)
REMARK    1  A    between atoms: C_2  and  O_3
REMARK    2  A    between atoms: C_2  and  C_4
REMARK    3  A    between atoms: C_2  and  C_26
REMARK    4  A    between atoms: C_4  and  C_5
REMARK    5  A    between atoms: N_7  and  CA_8
REMARK    6  A    between atoms: CA_8  and  C_10
REMARK    7  A    between atoms: CA_8  and  CB_21
REMARK    8  A    between atoms: CA_16  and  C_18
REMARK    9  A    between atoms: C_18  and  O_19
REMARK   10  A    between atoms: CB_21  and  CG2_23
REMARK   11  A    between atoms: CB_21  and  CG1_24
REMARK   12  A    between atoms: CG1_24  and  CD1_25
REMARK   13  A    between atoms: N_28  and  C_29
REMARK   14  A    between atoms: C_29  and  C_30
REMARK   15  A    between atoms: C_30  and  C_31
REMARK                            x       y       z     vdW  Elec       q    Type
REMARK                         _______ _______ _______ _____ _____    ______ ____
ROOT
ATOM      1  CA  ILE A   1       7.822  -2.276  23.808  0.00  0.00    +0.162 C 
ENDROOT
BRANCH   1   2
ATOM      2  C   ILE A   1       6.297  -2.444  24.056  0.00  0.00    +0.237 C 
ATOM      3  N   PRO A   2       5.742  -3.702  23.939  0.00  0.00    -0.286 N 
ATOM      4  CA  PRO A   2       6.241  -4.861  23.204  0.00  0.00    +0.184 C 
ATOM      5  CB  PRO A   2       5.591  -6.070  23.901  0.00  0.00    +0.035 C 
ATOM      6  CG  PRO A   2       4.684  -5.493  24.989  0.00  0.00    +0.021 C 
ATOM      7  CD  PRO A   2       4.500  -4.033  24.620  0.00  0.00    +0.109 C 
ATOM      8  O   ILE A   1       5.566  -1.509  24.383  0.00  0.00    -0.274 OA
BRANCH   4   9
ATOM      9  C   PRO A   2       5.807  -4.808  21.730  0.00  0.00    +0.325 C 
ATOM     10  OXT PRO A   2       5.658  -3.762  21.112  0.00  0.00    -0.249 OA
BRANCH   9  11
ATOM     11  O   PRO A   2       5.588  -6.014  21.157  0.00  0.00    -0.479 OA
ATOM     12  H   PRO A   2       4.661  -6.134  20.860  0.00  0.00    +0.295 HD
ENDBRANCH   9  11
ENDBRANCH   4   9
ENDBRANCH   1   2
BRANCH   1  14
ATOM     13  C   UNK A   0       9.297  -0.961  22.219  0.00  0.00    +0.217 C 
ATOM     14  N   ILE A   1       8.237  -1.059  23.093  0.00  0.00    -0.304 N 
ATOM     15  H   ILE A   1       7.557  -0.309  23.062  0.00  0.00    +0.149 HD
ATOM     16  O   UNK A   0      10.155  -1.824  22.083  0.00  0.00    -0.276 OA
BRANCH  13  17
ATOM     17  C   UNK A   0       9.341   0.330  21.423  0.00  0.00    +0.136 C 
BRANCH  17  18
ATOM     18  C   UNK A   0      10.007   1.463  22.198  0.00  0.00    +0.209 C 
BRANCH  18  19
ATOM     19  C   UNK A   0       9.007   2.594  22.484  0.00  0.00    +0.242 C 
ATOM     20  N   UNK A   0       9.510   3.673  23.167  0.00  0.00    -0.313 N 
ATOM     21  H   UNK A   0      10.439   3.606  23.572  0.00  0.00    +0.149 HD
ATOM     22  O   UNK A   0       7.836   2.508  22.112  0.00  0.00    -0.273 OA
BRANCH  20  23
ATOM     23  C   UNK A   0       8.688   4.812  23.520  0.00  0.00    +0.104 C 
BRANCH  23  24
ATOM     24  C   UNK A   0       9.502   6.094  23.660  0.00  0.00    +0.015 C 
ATOM     25  C   UNK A   0      10.994   5.798  23.647  0.00  0.00    +0.005 C 
ENDBRANCH  23  24
ENDBRANCH  20  23
ENDBRANCH  18  19
BRANCH  18  26
ATOM     26  O   UNK A   0      10.475   0.944  23.451  0.00  0.00    -0.382 OA
ATOM     27  H   UNK A   0      11.405   0.669  23.310  0.00  0.00    +0.210 HD
ENDBRANCH  18  26
ENDBRANCH  17  18
ENDBRANCH  13  17
ENDBRANCH   1  14
BRANCH   1  28
ATOM     28  CB  ILE A   1       8.686  -2.658  25.054  0.00  0.00    +0.015 C 
ATOM     29  CG2 ILE A   1       7.963  -2.616  26.404  0.00  0.00    +0.010 C 
BRANCH  28  30
ATOM     30  CG1 ILE A   1       9.326  -4.056  24.823  0.00  0.00    +0.002 C 
ATOM     31  CD1 ILE A   1       8.869  -5.130  25.799  0.00  0.00    +0.004 C 
ENDBRANCH  28  30
ENDBRANCH   1  28
TORSDOF 12
ENDMDL
MODEL 7
REMARK VINA RESULT:      -6.1      2.759      7.434
REMARK  Name = 
REMARK  15 active torsions:
REMARK  status: ('A' for Active; 'I' for Inactive)
REMARK    1  A    between atoms: C_2  and  O_3
REMARK    2  A    between atoms: C_2  and  C_4
REMARK    3  A    between atoms: C_2  and  C_26
REMARK    4  A    between atoms: C_4  and  C_5
REMARK    5  A    between atoms: N_7  and  CA_8
REMARK    6  A    between atoms: CA_8  and  C_10
REMARK    7  A    between atoms: CA_8  and  CB_21
REMARK    8  A    between atoms: CA_16  and  C_18
REMARK    9  A    between atoms: C_18  and  O_19
REMARK   10  A    between atoms: CB_21  and  CG2_23
REMARK   11  A    between atoms: CB_21  and  CG1_24
REMARK   12  A    between atoms: CG1_24  and  CD1_25
REMARK   13  A    between atoms: N_28  and  C_29
REMARK   14  A    between atoms: C_29  and  C_30
REMARK   15  A    between atoms: C_30  and  C_31
REMARK                            x       y       z     vdW  Elec       q    Type
REMARK                         _______ _______ _______ _____ _____    ______ ____
ROOT
ATOM      1  CA  ILE A   1       8.029  -2.604  23.105  0.00  0.00    +0.162 C 
ENDROOT
BRANCH   1   2
ATOM      2  C   ILE A   1       8.867  -3.224  24.258  0.00  0.00    +0.237 C 
ATOM      3  N   PRO A   2       8.246  -3.483  25.462  0.00  0.00    -0.286 N 
ATOM      4  CA  PRO A   2       7.029  -2.892  26.015  0.00  0.00    +0.184 C 
ATOM      5  CB  PRO A   2       6.511  -3.940  27.015  0.00  0.00    +0.035 C 
ATOM      6  CG  PRO A   2       7.537  -5.075  27.010  0.00  0.00    +0.021 C 
ATOM      7  CD  PRO A   2       8.781  -4.481  26.375  0.00  0.00    +0.109 C 
ATOM      8  O   ILE A   1      10.055  -3.521  24.136  0.00  0.00    -0.274 OA
BRANCH   4   9
ATOM      9  C   PRO A   2       7.339  -1.576  26.746  0.00  0.00    +0.325 C 
ATOM     10  OXT PRO A   2       8.462  -1.093  26.812  0.00  0.00    -0.249 OA
BRANCH   9  11
ATOM     11  O   PRO A   2       6.272  -0.984  27.329  0.00  0.00    -0.479 OA
ATOM     12  H   PRO A   2       5.844  -0.315  26.753  0.00  0.00    +0.295 HD
ENDBRANCH   9  11
ENDBRANCH   4   9
ENDBRANCH   1   2
BRANCH   1  14
ATOM     13  C   UNK A   0       8.286  -0.219  22.285  0.00  0.00    +0.217 C 
ATOM     14  N   ILE A   1       8.678  -1.538  22.326  0.00  0.00    -0.304 N 
ATOM     15  H   ILE A   1       9.611  -1.743  21.986  0.00  0.00    +0.149 HD
ATOM     16  O   UNK A   0       7.224   0.195  22.731  0.00  0.00    -0.276 OA
BRANCH  13  17
ATOM     17  C   UNK A   0       9.281   0.714  21.619  0.00  0.00    +0.136 C 
BRANCH  17  18
ATOM     18  C   UNK A   0      10.263   1.319  22.619  0.00  0.00    +0.209 C 
BRANCH  18  19
ATOM     19  C   UNK A   0       9.839   2.744  23.008  0.00  0.00    +0.242 C 
ATOM     20  N   UNK A   0      10.862   3.597  23.337  0.00  0.00    -0.313 N 
ATOM     21  H   UNK A   0      11.797   3.219  23.456  0.00  0.00    +0.149 HD
ATOM     22  O   UNK A   0       8.651   3.067  23.016  0.00  0.00    -0.273 OA
BRANCH  20  23
ATOM     23  C   UNK A   0      10.622   4.969  23.737  0.00  0.00    +0.104 C 
BRANCH  23  24
ATOM     24  C   UNK A   0      11.867   5.839  23.605  0.00  0.00    +0.015 C 
ATOM     25  C   UNK A   0      13.041   5.034  23.067  0.00  0.00    +0.005 C 
ENDBRANCH  23  24
ENDBRANCH  20  23
ENDBRANCH  18  19
BRANCH  18  26
ATOM     26  O   UNK A   0      10.267   0.507  23.802  0.00  0.00    -0.382 OA
ATOM     27  H   UNK A   0      10.186   1.120  24.562  0.00  0.00    +0.210 HD
ENDBRANCH  18  26
ENDBRANCH  17  18
ENDBRANCH  13  17
ENDBRANCH   1  14
BRANCH   1  28
ATOM     28  CB  ILE A   1       7.255  -3.678  22.273  0.00  0.00    +0.015 C 
ATOM     29  CG2 ILE A   1       7.415  -5.127  22.742  0.00  0.00    +0.010 C 
BRANCH  28  30
ATOM     30  CG1 ILE A   1       5.752  -3.289  22.209  0.00  0.00    +0.002 C 
ATOM     31  CD1 ILE A   1       4.839  -4.149  23.071  0.00  0.00    +0.004 C 
ENDBRANCH  28  30
ENDBRANCH   1  28
TORSDOF 12
ENDMDL
MODEL 8
REMARK VINA RESULT:      -5.9      1.587      2.232
REMARK  Name = 
REMARK  15 active torsions:
REMARK  status: ('A' for Active; 'I' for Inactive)
REMARK    1  A    between atoms: C_2  and  O_3
REMARK    2  A    between atoms: C_2  and  C_4
REMARK    3  A    between atoms: C_2  and  C_26
REMARK    4  A    between atoms: C_4  and  C_5
REMARK    5  A    between atoms: N_7  and  CA_8
REMARK    6  A    between atoms: CA_8  and  C_10
REMARK    7  A    between atoms: CA_8  and  CB_21
REMARK    8  A    between atoms: CA_16  and  C_18
REMARK    9  A    between atoms: C_18  and  O_19
REMARK   10  A    between atoms: CB_21  and  CG2_23
REMARK   11  A    between atoms: CB_21  and  CG1_24
REMARK   12  A    between atoms: CG1_24  and  CD1_25
REMARK   13  A    between atoms: N_28  and  C_29
REMARK   14  A    between atoms: C_29  and  C_30
REMARK   15  A    between atoms: C_30  and  C_31
REMARK                            x       y       z     vdW  Elec       q    Type
REMARK                         _______ _______ _______ _____ _____    ______ ____
ROOT
ATOM      1  CA  ILE A   1       7.147  -1.826  23.648  0.00  0.00    +0.162 C 
ENDROOT
BRANCH   1   2
ATOM      2  C   ILE A   1       8.576  -1.511  23.124  0.00  0.00    +0.237 C 
ATOM      3  N   PRO A   2       9.100  -0.254  23.347  0.00  0.00    -0.286 N 
ATOM      4  CA  PRO A   2       8.400   0.998  23.621  0.00  0.00    +0.184 C 
ATOM      5  CB  PRO A   2       9.435   1.866  24.358  0.00  0.00    +0.035 C 
ATOM      6  CG  PRO A   2      10.724   1.042  24.403  0.00  0.00    +0.021 C 
ATOM      7  CD  PRO A   2      10.539  -0.040  23.355  0.00  0.00    +0.109 C 
ATOM      8  O   ILE A   1       9.274  -2.342  22.543  0.00  0.00    -0.274 OA
BRANCH   4   9
ATOM      9  C   PRO A   2       7.970   1.686  22.315  0.00  0.00    +0.325 C 
ATOM     10  OXT PRO A   2       6.822   1.662  21.891  0.00  0.00    -0.249 OA
BRANCH   9  11
ATOM     11  O   PRO A   2       8.964   2.321  21.653  0.00  0.00    -0.479 OA
ATOM     12  H   PRO A   2       9.116   3.235  21.976  0.00  0.00    +0.295 HD
ENDBRANCH   9  11
ENDBRANCH   4   9
ENDBRANCH   1   2
BRANCH   1  14
ATOM     13  C   UNK A   0       6.036  -3.745  22.417  0.00  0.00    +0.217 C 
ATOM     14  N   ILE A   1       6.693  -3.219  23.508  0.00  0.00    -0.304 N 
ATOM     15  H   ILE A   1       7.098  -3.884  24.155  0.00  0.00    +0.149 HD
ATOM     16  O   UNK A   0       5.565  -3.071  21.510  0.00  0.00    -0.276 OA
BRANCH  13  17
ATOM     17  C   UNK A   0       5.921  -5.257  22.421  0.00  0.00    +0.136 C 
BRANCH  17  18
ATOM     18  C   UNK A   0       4.557  -5.731  22.916  0.00  0.00    +0.209 C 
BRANCH  18  19
ATOM     19  C   UNK A   0       4.682  -6.430  24.279  0.00  0.00    +0.242 C 
ATOM     20  N   UNK A   0       5.195  -5.662  25.295  0.00  0.00    -0.313 N 
ATOM     21  H   UNK A   0       5.598  -4.758  25.069  0.00  0.00    +0.149 HD
ATOM     22  O   UNK A   0       4.336  -7.603  24.419  0.00  0.00    -0.273 OA
BRANCH  20  23
ATOM     23  C   UNK A   0       5.384  -6.183  26.633  0.00  0.00    +0.104 C 
BRANCH  23  24
ATOM     24  C   UNK A   0       6.570  -5.539  27.344  0.00  0.00    +0.015 C 
ATOM     25  C   UNK A   0       7.755  -5.388  26.401  0.00  0.00    +0.005 C 
ENDBRANCH  23  24
ENDBRANCH  20  23
ENDBRANCH  18  19
BRANCH  18  26
ATOM     26  O   UNK A   0       3.706  -4.585  23.070  0.00  0.00    -0.382 OA
ATOM     27  H   UNK A   0       4.264  -3.871  23.442  0.00  0.00    +0.210 HD
ENDBRANCH  18  26
ENDBRANCH  17  18
ENDBRANCH  13  17
ENDBRANCH   1  14
BRANCH   1  28
ATOM     28  CB  ILE A   1       6.842  -1.148  25.023  0.00  0.00    +0.015 C 
ATOM     29  CG2 ILE A   1       5.373  -1.153  25.457  0.00  0.00    +0.010 C 
BRANCH  28  30
ATOM     30  CG1 ILE A   1       7.736  -1.793  26.120  0.00  0.00    +0.002 C 
ATOM     31  CD1 ILE A   1       8.534  -0.799  26.951  0.00  0.00    +0.004 C 
ENDBRANCH  28  30
ENDBRANCH   1  28
TORSDOF 12
ENDMDL
MODEL 9
REMARK VINA RESULT:      -5.8      2.173      6.714
REMARK  Name = 
REMARK  15 active torsions:
REMARK  status: ('A' for Active; 'I' for Inactive)
REMARK    1  A    between atoms: C_2  and  O_3
REMARK    2  A    between atoms: C_2  and  C_4
REMARK    3  A    between atoms: C_2  and  C_26
REMARK    4  A    between atoms: C_4  and  C_5
REMARK    5  A    between atoms: N_7  and  CA_8
REMARK    6  A    between atoms: CA_8  and  C_10
REMARK    7  A    between atoms: CA_8  and  CB_21
REMARK    8  A    between atoms: CA_16  and  C_18
REMARK    9  A    between atoms: C_18  and  O_19
REMARK   10  A    between atoms: CB_21  and  CG2_23
REMARK   11  A    between atoms: CB_21  and  CG1_24
REMARK   12  A    between atoms: CG1_24  and  CD1_25
REMARK   13  A    between atoms: N_28  and  C_29
REMARK   14  A    between atoms: C_29  and  C_30
REMARK   15  A    between atoms: C_30  and  C_31
REMARK                            x       y       z     vdW  Elec       q    Type
REMARK                         _______ _______ _______ _____ _____    ______ ____
ROOT
ATOM      1  CA  ILE A   1       8.734  -2.847  24.537  0.00  0.00    +0.162 C 
ENDROOT
BRANCH   1   2
ATOM      2  C   ILE A   1       8.468  -4.310  24.085  0.00  0.00    +0.237 C 
ATOM      3  N   PRO A   2       7.355  -4.572  23.313  0.00  0.00    -0.286 N 
ATOM      4  CA  PRO A   2       6.124  -3.795  23.182  0.00  0.00    +0.184 C 
ATOM      5  CB  PRO A   2       5.555  -4.203  21.812  0.00  0.00    +0.035 C 
ATOM      6  CG  PRO A   2       6.502  -5.269  21.259  0.00  0.00    +0.021 C 
ATOM      7  CD  PRO A   2       7.304  -5.745  22.457  0.00  0.00    +0.109 C 
ATOM      8  O   ILE A   1       9.223  -5.242  24.360  0.00  0.00    -0.274 OA
BRANCH   4   9
ATOM      9  C   PRO A   2       5.126  -4.153  24.295  0.00  0.00    +0.325 C 
ATOM     10  OXT PRO A   2       5.180  -5.195  24.935  0.00  0.00    -0.249 OA
BRANCH   9  11
ATOM     11  O   PRO A   2       4.163  -3.229  24.515  0.00  0.00    -0.479 OA
ATOM     12  H   PRO A   2       4.337  -2.379  24.058  0.00  0.00    +0.295 HD
ENDBRANCH   9  11
ENDBRANCH   4   9
ENDBRANCH   1   2
BRANCH   1  14
ATOM     13  C   UNK A   0       9.738  -1.640  22.545  0.00  0.00    +0.217 C 
ATOM     14  N   ILE A   1       8.741  -1.826  23.477  0.00  0.00    -0.304 N 
ATOM     15  H   ILE A   1       7.849  -1.390  23.277  0.00  0.00    +0.149 HD
ATOM     16  O   UNK A   0      10.841  -2.168  22.608  0.00  0.00    -0.276 OA
BRANCH  13  17
ATOM     17  C   UNK A   0       9.373  -0.701  21.411  0.00  0.00    +0.136 C 
BRANCH  17  18
ATOM     18  C   UNK A   0       9.567   0.764  21.790  0.00  0.00    +0.209 C 
BRANCH  18  19
ATOM     19  C   UNK A   0       8.218   1.435  22.093  0.00  0.00    +0.242 C 
ATOM     20  N   UNK A   0       8.170   2.791  21.881  0.00  0.00    -0.313 N 
ATOM     21  H   UNK A   0       9.035   3.289  21.695  0.00  0.00    +0.149 HD
ATOM     22  O   UNK A   0       7.263   0.774  22.498  0.00  0.00    -0.273 OA
BRANCH  20  23
ATOM     23  C   UNK A   0       6.972   3.567  22.132  0.00  0.00    +0.104 C 
BRANCH  23  24
ATOM     24  C   UNK A   0       7.267   5.055  22.284  0.00  0.00    +0.015 C 
ATOM     25  C   UNK A   0       8.213   5.308  23.448  0.00  0.00    +0.005 C 
ENDBRANCH  23  24
ENDBRANCH  20  23
ENDBRANCH  18  19
BRANCH  18  26
ATOM     26  O   UNK A   0      10.380   0.825  22.972  0.00  0.00    -0.382 OA
ATOM     27  H   UNK A   0      10.762  -0.069  23.094  0.00  0.00    +0.210 HD
ENDBRANCH  18  26
ENDBRANCH  17  18
ENDBRANCH  13  17
ENDBRANCH   1  14
BRANCH   1  28
ATOM     28  CB  ILE A   1       7.961  -2.465  25.842  0.00  0.00    +0.015 C 
ATOM     29  CG2 ILE A   1       7.778  -3.592  26.862  0.00  0.00    +0.010 C 
BRANCH  28  30
ATOM     30  CG1 ILE A   1       8.649  -1.238  26.503  0.00  0.00    +0.002 C 
ATOM     31  CD1 ILE A   1       7.697  -0.283  27.210  0.00  0.00    +0.004 C 
ENDBRANCH  28  30
ENDBRANCH   1  28
TORSDOF 12
ENDMDL
