MODEL 1
REMARK VINA RESULT:      -7.0      0.000      0.000
REMARK  Name = 
REMARK  14 active torsions:
REMARK  status: ('A' for Active; 'I' for Inactive)
REMARK    1  A    between atoms: N_8  and  C_9
REMARK    2  A    between atoms: C_12  and  C_14
REMARK    3  A    between atoms: C_14  and  O_15
REMARK    4  A    between atoms: O_15  and  P_16
REMARK    5  A    between atoms: P_16  and  O_17
REMARK    6  A    between atoms: P_16  and  O_19
REMARK    7  A    between atoms: O_19  and  P_20
REMARK    8  A    between atoms: P_20  and  O_21
REMARK    9  A    between atoms: P_20  and  O_23
REMARK   10  A    between atoms: O_23  and  P_24
REMARK   11  A    between atoms: P_24  and  O_25
REMARK   12  A    between atoms: P_24  and  O_26
REMARK   13  A    between atoms: C_28  and  O_30
REMARK   14  A    between atoms: C_31  and  O_33
REMARK                            x       y       z     vdW  Elec       q    Type
REMARK                         _______ _______ _______ _____ _____    ______ ____
ROOT
ATOM      1  C   UNL     1       7.600  -3.266  23.492  0.00  0.00    +0.253 C 
ATOM      2  C   UNL     1       8.161  -4.697  23.409  0.00  0.00    +0.195 C 
ATOM      3  C   UNL     1       8.574  -5.036  24.851  0.00  0.00    +0.178 C 
ATOM      4  C   UNL     1       8.184  -3.782  25.645  0.00  0.00    +0.178 C 
ATOM      5  O   UNL     1       7.159  -3.140  24.872  0.00  0.00    -0.346 OA
ENDROOT
BRANCH   1  17
ATOM      6  N   UNL     1       5.713   1.691  22.797  0.00  0.00    -0.329 N 
ATOM      7  H   UNL     1       5.545   2.377  22.076  0.00  0.00    +0.145 HD
ATOM      8  H   UNL     1       4.918   1.070  22.940  0.00  0.00    +0.145 HD
ATOM      9  C   UNL     1       6.879   1.006  22.739  0.00  0.00    +0.195 A 
ATOM     10  N   UNL     1       7.979   1.698  22.283  0.00  0.00    -0.293 N 
ATOM     11  H   UNL     1       7.905   2.675  22.053  0.00  0.00    +0.172 HD
ATOM     12  C   UNL     1       9.257   1.159  22.172  0.00  0.00    +0.280 A 
ATOM     13  O   UNL     1      10.203   1.826  21.759  0.00  0.00    -0.265 OA
ATOM     14  C   UNL     1       9.303  -0.228  22.569  0.00  0.00    +0.172 A 
ATOM     15  N   UNL     1      10.346  -1.112  22.573  0.00  0.00    -0.229 NA
ATOM     16  C   UNL     1       9.803  -2.248  22.964  0.00  0.00    +0.203 A 
ATOM     17  N   UNL     1       8.451  -2.129  23.215  0.00  0.00    -0.285 N 
ATOM     18  C   UNL     1       8.131  -0.821  22.989  0.00  0.00    +0.171 A 
ATOM     19  N   UNL     1       6.913  -0.251  23.096  0.00  0.00    -0.196 NA
ENDBRANCH   1  17
BRANCH   2  20
ATOM     20  O   UNL     1       7.106  -5.603  23.000  0.00  0.00    -0.385 OA
ATOM     21  H   UNL     1       7.006  -6.287  23.685  0.00  0.00    +0.210 HD
ENDBRANCH   2  20
BRANCH   3  22
ATOM     22  O   UNL     1       9.966  -5.334  24.937  0.00  0.00    -0.386 OA
ATOM     23  H   UNL     1      10.199  -5.881  24.163  0.00  0.00    +0.210 HD
ENDBRANCH   3  22
BRANCH   4  24
ATOM     24  C   UNL     1       7.682  -4.049  27.062  0.00  0.00    +0.206 C 
BRANCH  24  25
ATOM     25  O   UNL     1       6.317  -4.403  27.011  0.00  0.00    -0.284 OA
BRANCH  25  26
ATOM     26  P   UNL     1       5.846  -5.739  27.854  0.00  0.00    +0.483 P 
ATOM     27  O   UNL     1       5.648  -6.782  26.740  0.00  0.00    -0.227 OA
BRANCH  26  28
ATOM     28  O   UNL     1       7.499  -6.243  27.934  0.00  0.00    -0.302 OA
ATOM     29  H   UNL     1       7.695  -6.486  27.006  0.00  0.00    +0.222 HD
ENDBRANCH  26  28
BRANCH  26  30
ATOM     30  O   UNL     1       4.193  -5.235  27.773  0.00  0.00    -0.186 OA
BRANCH  30  31
ATOM     31  P   UNL     1       3.475  -5.844  26.322  0.00  0.00    +0.492 P 
ATOM     32  O   UNL     1       2.370  -4.789  26.428  0.00  0.00    -0.226 OA
BRANCH  31  33
ATOM     33  O   UNL     1       3.007  -7.140  27.187  0.00  0.00    -0.302 OA
ATOM     34  H   UNL     1       3.517  -7.265  28.021  0.00  0.00    +0.222 HD
ENDBRANCH  31  33
BRANCH  31  35
ATOM     35  O   UNL     1       2.756  -6.455  24.872  0.00  0.00    -0.186 OA
BRANCH  35  36
ATOM     36  P   UNL     1       3.679  -5.933  23.506  0.00  0.00    +0.481 P 
ATOM     37  O   UNL     1       4.506  -5.465  22.283  0.00  0.00    -0.227 OA
BRANCH  36  38
ATOM     38  O   UNL     1       4.584  -7.277  23.782  0.00  0.00    -0.302 OA
ATOM     39  H   UNL     1       5.151  -7.359  22.988  0.00  0.00    +0.222 HD
ENDBRANCH  36  38
BRANCH  36  40
ATOM     40  O   UNL     1       4.524  -5.031  24.589  0.00  0.00    -0.302 OA
ATOM     41  H   UNL     1       4.382  -4.080  24.434  0.00  0.00    +0.222 HD
ENDBRANCH  36  40
ENDBRANCH  35  36
ENDBRANCH  31  35
ENDBRANCH  30  31
ENDBRANCH  26  30
ENDBRANCH  25  26
ENDBRANCH  24  25
ENDBRANCH   4  24
TORSDOF 14
ENDMDL
MODEL 2
REMARK VINA RESULT:      -6.7      4.217      7.933
REMARK  Name = 
REMARK  14 active torsions:
REMARK  status: ('A' for Active; 'I' for Inactive)
REMARK    1  A    between atoms: N_8  and  C_9
REMARK    2  A    between atoms: C_12  and  C_14
REMARK    3  A    between atoms: C_14  and  O_15
REMARK    4  A    between atoms: O_15  and  P_16
REMARK    5  A    between atoms: P_16  and  O_17
REMARK    6  A    between atoms: P_16  and  O_19
REMARK    7  A    between atoms: O_19  and  P_20
REMARK    8  A    between atoms: P_20  and  O_21
REMARK    9  A    between atoms: P_20  and  O_23
REMARK   10  A    between atoms: O_23  and  P_24
REMARK   11  A    between atoms: P_24  and  O_25
REMARK   12  A    between atoms: P_24  and  O_26
REMARK   13  A    between atoms: C_28  and  O_30
REMARK   14  A    between atoms: C_31  and  O_33
REMARK                            x       y       z     vdW  Elec       q    Type
REMARK                         _______ _______ _______ _____ _____    ______ ____
ROOT
ATOM      1  C   UNL     1       8.339  -3.875  25.733  0.00  0.00    +0.253 C 
ATOM      2  C   UNL     1       8.510  -5.180  24.935  0.00  0.00    +0.195 C 
ATOM      3  C   UNL     1       7.956  -4.855  23.537  0.00  0.00    +0.178 C 
ATOM      4  C   UNL     1       7.544  -3.381  23.643  0.00  0.00    +0.178 C 
ATOM      5  O   UNL     1       8.330  -2.837  24.714  0.00  0.00    -0.346 OA
ENDROOT
BRANCH   1  17
ATOM      6  N   UNL     1       6.568  -7.493  29.254  0.00  0.00    -0.329 N 
ATOM      7  H   UNL     1       5.830  -8.166  29.387  0.00  0.00    +0.145 HD
ATOM      8  H   UNL     1       7.378  -7.887  28.778  0.00  0.00    +0.145 HD
ATOM      9  C   UNL     1       6.222  -6.290  28.737  0.00  0.00    +0.195 A 
ATOM     10  N   UNL     1       4.995  -5.787  29.110  0.00  0.00    -0.293 N 
ATOM     11  H   UNL     1       4.422  -6.287  29.770  0.00  0.00    +0.172 HD
ATOM     12  C   UNL     1       4.485  -4.563  28.689  0.00  0.00    +0.280 A 
ATOM     13  O   UNL     1       3.382  -4.166  29.057  0.00  0.00    -0.265 OA
ATOM     14  C   UNL     1       5.381  -3.877  27.790  0.00  0.00    +0.172 A 
ATOM     15  N   UNL     1       5.236  -2.684  27.138  0.00  0.00    -0.229 NA
ATOM     16  C   UNL     1       6.325  -2.585  26.402  0.00  0.00    +0.203 A 
ATOM     17  N   UNL     1       7.167  -3.668  26.556  0.00  0.00    -0.285 N 
ATOM     18  C   UNL     1       6.575  -4.489  27.472  0.00  0.00    +0.171 A 
ATOM     19  N   UNL     1       7.037  -5.675  27.920  0.00  0.00    -0.196 NA
ENDBRANCH   1  17
BRANCH   2  20
ATOM     20  O   UNL     1       9.921  -5.489  24.817  0.00  0.00    -0.385 OA
ATOM     21  H   UNL     1      10.055  -6.011  24.006  0.00  0.00    +0.210 HD
ENDBRANCH   2  20
BRANCH   3  22
ATOM     22  O   UNL     1       6.866  -5.711  23.199  0.00  0.00    -0.386 OA
ATOM     23  H   UNL     1       6.317  -5.819  23.998  0.00  0.00    +0.210 HD
ENDBRANCH   3  22
BRANCH   4  24
ATOM     24  C   UNL     1       7.753  -2.562  22.371  0.00  0.00    +0.206 C 
BRANCH  24  25
ATOM     25  O   UNL     1       8.391  -1.348  22.701  0.00  0.00    -0.284 OA
BRANCH  25  26
ATOM     26  P   UNL     1       9.862  -1.052  22.019  0.00  0.00    +0.483 P 
ATOM     27  O   UNL     1      10.520  -0.110  23.042  0.00  0.00    -0.227 OA
BRANCH  26  28
ATOM     28  O   UNL     1      10.520  -2.374  22.919  0.00  0.00    -0.302 OA
ATOM     29  H   UNL     1      11.217  -1.944  23.455  0.00  0.00    +0.222 HD
ENDBRANCH  26  28
BRANCH  26  30
ATOM     30  O   UNL     1       9.203   0.271  21.119  0.00  0.00    -0.186 OA
BRANCH  30  31
ATOM     31  P   UNL     1       8.867   1.586  22.191  0.00  0.00    +0.492 P 
ATOM     32  O   UNL     1       7.718   2.031  21.282  0.00  0.00    -0.226 OA
BRANCH  31  33
ATOM     33  O   UNL     1      10.230   2.284  21.644  0.00  0.00    -0.302 OA
ATOM     34  H   UNL     1      10.539   1.925  20.779  0.00  0.00    +0.222 HD
ENDBRANCH  31  33
BRANCH  31  35
ATOM     35  O   UNL     1       8.531   2.902  23.263  0.00  0.00    -0.186 OA
BRANCH  35  36
ATOM     36  P   UNL     1       8.082   2.283  24.815  0.00  0.00    +0.481 P 
ATOM     37  O   UNL     1       7.679   1.729  26.203  0.00  0.00    -0.227 OA
BRANCH  36  38
ATOM     38  O   UNL     1       9.650   1.802  24.919  0.00  0.00    -0.302 OA
ATOM     39  H   UNL     1       9.837   1.782  25.880  0.00  0.00    +0.222 HD
ENDBRANCH  36  38
BRANCH  36  40
ATOM     40  O   UNL     1       7.628   0.933  23.997  0.00  0.00    -0.302 OA
ATOM     41  H   UNL     1       6.681   0.748  24.129  0.00  0.00    +0.222 HD
ENDBRANCH  36  40
ENDBRANCH  35  36
ENDBRANCH  31  35
ENDBRANCH  30  31
ENDBRANCH  26  30
ENDBRANCH  25  26
ENDBRANCH  24  25
ENDBRANCH   4  24
TORSDOF 14
ENDMDL
MODEL 3
REMARK VINA RESULT:      -6.7      4.258      7.525
REMARK  Name = 
REMARK  14 active torsions:
REMARK  status: ('A' for Active; 'I' for Inactive)
REMARK    1  A    between atoms: N_8  and  C_9
REMARK    2  A    between atoms: C_12  and  C_14
REMARK    3  A    between atoms: C_14  and  O_15
REMARK    4  A    between atoms: O_15  and  P_16
REMARK    5  A    between atoms: P_16  and  O_17
REMARK    6  A    between atoms: P_16  and  O_19
REMARK    7  A    between atoms: O_19  and  P_20
REMARK    8  A    between atoms: P_20  and  O_21
REMARK    9  A    between atoms: P_20  and  O_23
REMARK   10  A    between atoms: O_23  and  P_24
REMARK   11  A    between atoms: P_24  and  O_25
REMARK   12  A    between atoms: P_24  and  O_26
REMARK   13  A    between atoms: C_28  and  O_30
REMARK   14  A    between atoms: C_31  and  O_33
REMARK                            x       y       z     vdW  Elec       q    Type
REMARK                         _______ _______ _______ _____ _____    ______ ____
ROOT
ATOM      1  C   UNL     1       8.000  -5.063  26.014  0.00  0.00    +0.253 C 
ATOM      2  C   UNL     1       9.014  -5.072  24.856  0.00  0.00    +0.195 C 
ATOM      3  C   UNL     1       8.951  -3.649  24.275  0.00  0.00    +0.178 C 
ATOM      4  C   UNL     1       7.929  -2.936  25.170  0.00  0.00    +0.178 C 
ATOM      5  O   UNL     1       7.925  -3.665  26.406  0.00  0.00    -0.346 OA
ENDROOT
BRANCH   1  17
ATOM      6  N   UNL     1       5.957  -5.991  21.157  0.00  0.00    -0.329 N 
ATOM      7  H   UNL     1       5.316  -5.599  20.484  0.00  0.00    +0.145 HD
ATOM      8  H   UNL     1       6.909  -5.650  21.037  0.00  0.00    +0.145 HD
ATOM      9  C   UNL     1       5.578  -5.969  22.456  0.00  0.00    +0.195 A 
ATOM     10  N   UNL     1       4.236  -6.148  22.711  0.00  0.00    -0.293 N 
ATOM     11  H   UNL     1       3.596  -6.329  21.956  0.00  0.00    +0.172 HD
ATOM     12  C   UNL     1       3.672  -6.169  23.983  0.00  0.00    +0.280 A 
ATOM     13  O   UNL     1       2.466  -6.335  24.150  0.00  0.00    -0.265 OA
ATOM     14  C   UNL     1       4.654  -5.958  25.020  0.00  0.00    +0.172 A 
ATOM     15  N   UNL     1       4.502  -5.876  26.377  0.00  0.00    -0.229 NA
ATOM     16  C   UNL     1       5.714  -5.606  26.820  0.00  0.00    +0.203 A 
ATOM     17  N   UNL     1       6.641  -5.515  25.801  0.00  0.00    -0.285 N 
ATOM     18  C   UNL     1       5.966  -5.769  24.642  0.00  0.00    +0.171 A 
ATOM     19  N   UNL     1       6.471  -5.773  23.391  0.00  0.00    -0.196 NA
ENDBRANCH   1  17
BRANCH   2  20
ATOM     20  O   UNL     1      10.343  -5.302  25.384  0.00  0.00    -0.385 OA
ATOM     21  H   UNL     1      10.280  -5.958  26.101  0.00  0.00    +0.210 HD
ENDBRANCH   2  20
BRANCH   3  22
ATOM     22  O   UNL     1       8.566  -3.666  22.901  0.00  0.00    -0.386 OA
ATOM     23  H   UNL     1       7.732  -4.168  22.834  0.00  0.00    +0.210 HD
ENDBRANCH   3  22
BRANCH   4  24
ATOM     24  C   UNL     1       8.224  -1.461  25.432  0.00  0.00    +0.206 C 
BRANCH  24  25
ATOM     25  O   UNL     1       8.899  -0.918  24.318  0.00  0.00    -0.284 OA
BRANCH  25  26
ATOM     26  P   UNL     1      10.160   0.102  24.616  0.00  0.00    +0.483 P 
ATOM     27  O   UNL     1       9.479   1.481  24.617  0.00  0.00    -0.227 OA
BRANCH  26  28
ATOM     28  O   UNL     1       9.809   0.006  26.307  0.00  0.00    -0.302 OA
ATOM     29  H   UNL     1      10.664   0.246  26.718  0.00  0.00    +0.222 HD
ENDBRANCH  26  28
BRANCH  26  30
ATOM     30  O   UNL     1      10.510   0.197  22.924  0.00  0.00    -0.186 OA
BRANCH  30  31
ATOM     31  P   UNL     1       9.206   0.988  22.109  0.00  0.00    +0.492 P 
ATOM     32  O   UNL     1       9.221  -0.099  21.032  0.00  0.00    -0.226 OA
BRANCH  31  33
ATOM     33  O   UNL     1      10.272   2.135  21.671  0.00  0.00    -0.302 OA
ATOM     34  H   UNL     1       9.887   3.043  21.640  0.00  0.00    +0.222 HD
ENDBRANCH  31  33
BRANCH  31  35
ATOM     35  O   UNL     1       7.901   1.780  21.294  0.00  0.00    -0.186 OA
BRANCH  35  36
ATOM     36  P   UNL     1       6.664   2.180  22.435  0.00  0.00    +0.481 P 
ATOM     37  O   UNL     1       5.557   2.537  23.456  0.00  0.00    -0.227 OA
BRANCH  36  38
ATOM     38  O   UNL     1       7.835   3.059  23.182  0.00  0.00    -0.302 OA
ATOM     39  H   UNL     1       8.659   2.823  22.707  0.00  0.00    +0.222 HD
ENDBRANCH  36  38
BRANCH  36  40
ATOM     40  O   UNL     1       7.099   0.789  23.192  0.00  0.00    -0.302 OA
ATOM     41  H   UNL     1       6.677   0.723  24.068  0.00  0.00    +0.222 HD
ENDBRANCH  36  40
ENDBRANCH  35  36
ENDBRANCH  31  35
ENDBRANCH  30  31
ENDBRANCH  26  30
ENDBRANCH  25  26
ENDBRANCH  24  25
ENDBRANCH   4  24
TORSDOF 14
ENDMDL
MODEL 4
REMARK VINA RESULT:      -6.7      4.196      7.820
REMARK  Name = 
REMARK  14 active torsions:
REMARK  status: ('A' for Active; 'I' for Inactive)
REMARK    1  A    between atoms: N_8  and  C_9
REMARK    2  A    between atoms: C_12  and  C_14
REMARK    3  A    between atoms: C_14  and  O_15
REMARK    4  A    between atoms: O_15  and  P_16
REMARK    5  A    between atoms: P_16  and  O_17
REMARK    6  A    between atoms: P_16  and  O_19
REMARK    7  A    between atoms: O_19  and  P_20
REMARK    8  A    between atoms: P_20  and  O_21
REMARK    9  A    between atoms: P_20  and  O_23
REMARK   10  A    between atoms: O_23  and  P_24
REMARK   11  A    between atoms: P_24  and  O_25
REMARK   12  A    between atoms: P_24  and  O_26
REMARK   13  A    between atoms: C_28  and  O_30
REMARK   14  A    between atoms: C_31  and  O_33
REMARK                            x       y       z     vdW  Elec       q    Type
REMARK                         _______ _______ _______ _____ _____    ______ ____
ROOT
ATOM      1  C   UNL     1       7.723  -5.271  23.579  0.00  0.00    +0.253 C 
ATOM      2  C   UNL     1       6.494  -5.492  22.679  0.00  0.00    +0.195 C 
ATOM      3  C   UNL     1       5.996  -4.075  22.348  0.00  0.00    +0.178 C 
ATOM      4  C   UNL     1       7.002  -3.161  23.060  0.00  0.00    +0.178 C 
ATOM      5  O   UNL     1       8.194  -3.945  23.213  0.00  0.00    -0.346 OA
ENDROOT
BRANCH   1  17
ATOM      6  N   UNL     1       3.488  -7.366  26.090  0.00  0.00    -0.329 N 
ATOM      7  H   UNL     1       2.659  -7.095  26.596  0.00  0.00    +0.145 HD
ATOM      8  H   UNL     1       3.329  -7.443  25.087  0.00  0.00    +0.145 HD
ATOM      9  C   UNL     1       4.628  -6.688  26.364  0.00  0.00    +0.195 A 
ATOM     10  N   UNL     1       4.810  -6.288  27.669  0.00  0.00    -0.293 N 
ATOM     11  H   UNL     1       4.137  -6.538  28.375  0.00  0.00    +0.172 HD
ATOM     12  C   UNL     1       5.925  -5.597  28.133  0.00  0.00    +0.280 A 
ATOM     13  O   UNL     1       6.033  -5.267  29.311  0.00  0.00    -0.265 OA
ATOM     14  C   UNL     1       6.874  -5.321  27.080  0.00  0.00    +0.172 A 
ATOM     15  N   UNL     1       8.062  -4.645  27.117  0.00  0.00    -0.229 NA
ATOM     16  C   UNL     1       8.467  -4.639  25.863  0.00  0.00    +0.203 A 
ATOM     17  N   UNL     1       7.588  -5.288  25.020  0.00  0.00    -0.285 N 
ATOM     18  C   UNL     1       6.573  -5.754  25.806  0.00  0.00    +0.171 A 
ATOM     19  N   UNL     1       5.482  -6.438  25.406  0.00  0.00    -0.196 NA
ENDBRANCH   1  17
BRANCH   2  20
ATOM     20  O   UNL     1       6.910  -6.140  21.451  0.00  0.00    -0.385 OA
ATOM     21  H   UNL     1       7.861  -5.975  21.323  0.00  0.00    +0.210 HD
ENDBRANCH   2  20
BRANCH   3  22
ATOM     22  O   UNL     1       4.656  -3.878  22.795  0.00  0.00    -0.386 OA
ATOM     23  H   UNL     1       4.619  -4.130  23.736  0.00  0.00    +0.210 HD
ENDBRANCH   3  22
BRANCH   4  24
ATOM     24  C   UNL     1       7.320  -1.860  22.326  0.00  0.00    +0.206 C 
BRANCH  24  25
ATOM     25  O   UNL     1       8.400  -1.218  22.968  0.00  0.00    -0.284 OA
BRANCH  25  26
ATOM     26  P   UNL     1       9.791  -1.023  22.105  0.00  0.00    +0.483 P 
ATOM     27  O   UNL     1      10.610  -0.080  23.002  0.00  0.00    -0.227 OA
BRANCH  26  28
ATOM     28  O   UNL     1      10.489  -2.344  22.976  0.00  0.00    -0.302 OA
ATOM     29  H   UNL     1      10.081  -3.124  22.548  0.00  0.00    +0.222 HD
ENDBRANCH  26  28
BRANCH  26  30
ATOM     30  O   UNL     1       9.091   0.298  21.234  0.00  0.00    -0.186 OA
BRANCH  30  31
ATOM     31  P   UNL     1       8.912   1.655  22.292  0.00  0.00    +0.492 P 
ATOM     32  O   UNL     1       7.709   2.132  21.474  0.00  0.00    -0.226 OA
BRANCH  31  33
ATOM     33  O   UNL     1      10.252   2.272  21.608  0.00  0.00    -0.302 OA
ATOM     34  H   UNL     1      10.485   1.854  20.745  0.00  0.00    +0.222 HD
ENDBRANCH  31  33
BRANCH  31  35
ATOM     35  O   UNL     1       8.733   3.012  23.350  0.00  0.00    -0.186 OA
BRANCH  35  36
ATOM     36  P   UNL     1       8.125   2.477  24.878  0.00  0.00    +0.481 P 
ATOM     37  O   UNL     1       7.580   1.999  26.246  0.00  0.00    -0.227 OA
BRANCH  36  38
ATOM     38  O   UNL     1       9.540   1.649  24.992  0.00  0.00    -0.302 OA
ATOM     39  H   UNL     1       9.270   0.721  25.149  0.00  0.00    +0.222 HD
ENDBRANCH  36  38
BRANCH  36  40
ATOM     40  O   UNL     1       7.391   1.285  24.019  0.00  0.00    -0.302 OA
ATOM     41  H   UNL     1       7.821   0.426  24.180  0.00  0.00    +0.222 HD
ENDBRANCH  36  40
ENDBRANCH  35  36
ENDBRANCH  31  35
ENDBRANCH  30  31
ENDBRANCH  26  30
ENDBRANCH  25  26
ENDBRANCH  24  25
ENDBRANCH   4  24
TORSDOF 14
ENDMDL
MODEL 5
REMARK VINA RESULT:      -6.7      1.799      2.245
REMARK  Name = 
REMARK  14 active torsions:
REMARK  status: ('A' for Active; 'I' for Inactive)
REMARK    1  A    between atoms: N_8  and  C_9
REMARK    2  A    between atoms: C_12  and  C_14
REMARK    3  A    between atoms: C_14  and  O_15
REMARK    4  A    between atoms: O_15  and  P_16
REMARK    5  A    between atoms: P_16  and  O_17
REMARK    6  A    between atoms: P_16  and  O_19
REMARK    7  A    between atoms: O_19  and  P_20
REMARK    8  A    between atoms: P_20  and  O_21
REMARK    9  A    between atoms: P_20  and  O_23
REMARK   10  A    between atoms: O_23  and  P_24
REMARK   11  A    between atoms: P_24  and  O_25
REMARK   12  A    between atoms: P_24  and  O_26
REMARK   13  A    between atoms: C_28  and  O_30
REMARK   14  A    between atoms: C_31  and  O_33
REMARK                            x       y       z     vdW  Elec       q    Type
REMARK                         _______ _______ _______ _____ _____    ______ ____
ROOT
ATOM      1  C   UNL     1       8.147  -1.037  23.313  0.00  0.00    +0.253 C 
ATOM      2  C   UNL     1       8.630  -2.434  22.884  0.00  0.00    +0.195 C 
ATOM      3  C   UNL     1       8.703  -3.238  24.193  0.00  0.00    +0.178 C 
ATOM      4  C   UNL     1       8.224  -2.243  25.258  0.00  0.00    +0.178 C 
ATOM      5  O   UNL     1       7.428  -1.278  24.554  0.00  0.00    -0.346 OA
ENDROOT
BRANCH   1  17
ATOM      6  N   UNL     1       7.108   4.131  22.401  0.00  0.00    -0.329 N 
ATOM      7  H   UNL     1       7.333   4.880  21.764  0.00  0.00    +0.145 HD
ATOM      8  H   UNL     1       6.298   3.591  22.102  0.00  0.00    +0.145 HD
ATOM      9  C   UNL     1       8.125   3.330  22.798  0.00  0.00    +0.195 A 
ATOM     10  N   UNL     1       9.354   3.930  22.966  0.00  0.00    -0.293 N 
ATOM     11  H   UNL     1       9.455   4.923  22.838  0.00  0.00    +0.172 HD
ATOM     12  C   UNL     1      10.503   3.265  23.381  0.00  0.00    +0.280 A 
ATOM     13  O   UNL     1      11.574   3.854  23.515  0.00  0.00    -0.265 OA
ATOM     14  C   UNL     1      10.273   1.857  23.599  0.00  0.00    +0.172 A 
ATOM     15  N   UNL     1      11.140   0.868  23.973  0.00  0.00    -0.229 NA
ATOM     16  C   UNL     1      10.408  -0.227  23.949  0.00  0.00    +0.203 A 
ATOM     17  N   UNL     1       9.101   0.019  23.577  0.00  0.00    -0.285 N 
ATOM     18  C   UNL     1       9.004   1.366  23.378  0.00  0.00    +0.171 A 
ATOM     19  N   UNL     1       7.911   2.055  22.990  0.00  0.00    -0.196 NA
ENDBRANCH   1  17
BRANCH   2  20
ATOM     20  O   UNL     1       7.638  -3.040  22.019  0.00  0.00    -0.385 OA
ATOM     21  H   UNL     1       7.664  -2.588  21.157  0.00  0.00    +0.210 HD
ENDBRANCH   2  20
BRANCH   3  22
ATOM     22  O   UNL     1      10.025  -3.715  24.437  0.00  0.00    -0.386 OA
ATOM     23  H   UNL     1       9.980  -4.337  25.188  0.00  0.00    +0.210 HD
ENDBRANCH   3  22
BRANCH   4  24
ATOM     24  C   UNL     1       7.414  -2.860  26.397  0.00  0.00    +0.206 C 
BRANCH  24  25
ATOM     25  O   UNL     1       7.455  -4.265  26.286  0.00  0.00    -0.284 OA
BRANCH  25  26
ATOM     26  P   UNL     1       6.351  -5.129  27.152  0.00  0.00    +0.483 P 
ATOM     27  O   UNL     1       6.072  -6.330  26.232  0.00  0.00    -0.227 OA
BRANCH  26  28
ATOM     28  O   UNL     1       7.644  -6.048  27.842  0.00  0.00    -0.302 OA
ATOM     29  H   UNL     1       8.434  -5.527  27.593  0.00  0.00    +0.222 HD
ENDBRANCH  26  28
BRANCH  26  30
ATOM     30  O   UNL     1       5.058  -4.210  26.461  0.00  0.00    -0.186 OA
BRANCH  30  31
ATOM     31  P   UNL     1       4.572  -4.932  24.966  0.00  0.00    +0.492 P 
ATOM     32  O   UNL     1       4.101  -3.565  24.461  0.00  0.00    -0.226 OA
BRANCH  31  33
ATOM     33  O   UNL     1       3.339  -5.611  25.780  0.00  0.00    -0.302 OA
ATOM     34  H   UNL     1       3.614  -6.351  26.372  0.00  0.00    +0.222 HD
ENDBRANCH  31  33
BRANCH  31  35
ATOM     35  O   UNL     1       4.085  -5.655  23.471  0.00  0.00    -0.186 OA
BRANCH  35  36
ATOM     36  P   UNL     1       5.452  -5.780  22.419  0.00  0.00    +0.481 P 
ATOM     37  O   UNL     1       6.675  -5.894  21.477  0.00  0.00    -0.227 OA
BRANCH  36  38
ATOM     38  O   UNL     1       6.307  -5.185  23.690  0.00  0.00    -0.302 OA
ATOM     39  H   UNL     1       6.831  -4.450  23.311  0.00  0.00    +0.222 HD
ENDBRANCH  36  38
BRANCH  36  40
ATOM     40  O   UNL     1       5.018  -4.286  21.894  0.00  0.00    -0.302 OA
ATOM     41  H   UNL     1       5.182  -4.192  20.938  0.00  0.00    +0.222 HD
ENDBRANCH  36  40
ENDBRANCH  35  36
ENDBRANCH  31  35
ENDBRANCH  30  31
ENDBRANCH  26  30
ENDBRANCH  25  26
ENDBRANCH  24  25
ENDBRANCH   4  24
TORSDOF 14
ENDMDL
MODEL 6
REMARK VINA RESULT:      -6.6      4.661      8.225
REMARK  Name = 
REMARK  14 active torsions:
REMARK  status: ('A' for Active; 'I' for Inactive)
REMARK    1  A    between atoms: N_8  and  C_9
REMARK    2  A    between atoms: C_12  and  C_14
REMARK    3  A    between atoms: C_14  and  O_15
REMARK    4  A    between atoms: O_15  and  P_16
REMARK    5  A    between atoms: P_16  and  O_17
REMARK    6  A    between atoms: P_16  and  O_19
REMARK    7  A    between atoms: O_19  and  P_20
REMARK    8  A    between atoms: P_20  and  O_21
REMARK    9  A    between atoms: P_20  and  O_23
REMARK   10  A    between atoms: O_23  and  P_24
REMARK   11  A    between atoms: P_24  and  O_25
REMARK   12  A    between atoms: P_24  and  O_26
REMARK   13  A    between atoms: C_28  and  O_30
REMARK   14  A    between atoms: C_31  and  O_33
REMARK                            x       y       z     vdW  Elec       q    Type
REMARK                         _______ _______ _______ _____ _____    ______ ____
ROOT
ATOM      1  C   UNL     1       6.180  -5.606  23.622  0.00  0.00    +0.253 C 
ATOM      2  C   UNL     1       6.196  -5.241  22.127  0.00  0.00    +0.195 C 
ATOM      3  C   UNL     1       6.593  -3.755  22.095  0.00  0.00    +0.178 C 
ATOM      4  C   UNL     1       6.802  -3.403  23.573  0.00  0.00    +0.178 C 
ATOM      5  O   UNL     1       7.090  -4.647  24.229  0.00  0.00    -0.346 OA
ENDROOT
BRANCH   1  17
ATOM      6  N   UNL     1       5.711  -7.520  28.596  0.00  0.00    -0.329 N 
ATOM      7  H   UNL     1       5.313  -8.291  29.109  0.00  0.00    +0.145 HD
ATOM      8  H   UNL     1       6.659  -7.709  28.275  0.00  0.00    +0.145 HD
ATOM      9  C   UNL     1       4.952  -6.970  27.618  0.00  0.00    +0.195 A 
ATOM     10  N   UNL     1       3.595  -6.920  27.845  0.00  0.00    -0.293 N 
ATOM     11  H   UNL     1       3.214  -7.241  28.720  0.00  0.00    +0.172 HD
ATOM     12  C   UNL     1       2.668  -6.378  26.960  0.00  0.00    +0.280 A 
ATOM     13  O   UNL     1       1.467  -6.360  27.217  0.00  0.00    -0.265 OA
ATOM     14  C   UNL     1       3.288  -5.888  25.751  0.00  0.00    +0.172 A 
ATOM     15  N   UNL     1       2.729  -5.324  24.638  0.00  0.00    -0.229 NA
ATOM     16  C   UNL     1       3.750  -5.135  23.827  0.00  0.00    +0.203 A 
ATOM     17  N   UNL     1       4.946  -5.552  24.376  0.00  0.00    -0.285 N 
ATOM     18  C   UNL     1       4.655  -6.012  25.628  0.00  0.00    +0.171 A 
ATOM     19  N   UNL     1       5.519  -6.532  26.525  0.00  0.00    -0.196 NA
ENDBRANCH   1  17
BRANCH   2  20
ATOM     20  O   UNL     1       7.223  -6.012  21.456  0.00  0.00    -0.385 OA
ATOM     21  H   UNL     1       7.662  -5.438  20.803  0.00  0.00    +0.210 HD
ENDBRANCH   2  20
BRANCH   3  22
ATOM     22  O   UNL     1       5.583  -2.961  21.475  0.00  0.00    -0.386 OA
ATOM     23  H   UNL     1       5.118  -3.526  20.829  0.00  0.00    +0.210 HD
ENDBRANCH   3  22
BRANCH   4  24
ATOM     24  C   UNL     1       7.921  -2.398  23.842  0.00  0.00    +0.206 C 
BRANCH  24  25
ATOM     25  O   UNL     1       8.141  -1.628  22.681  0.00  0.00    -0.284 OA
BRANCH  25  26
ATOM     26  P   UNL     1       9.702  -1.279  22.284  0.00  0.00    +0.483 P 
ATOM     27  O   UNL     1      10.126  -0.322  23.412  0.00  0.00    -0.227 OA
BRANCH  26  28
ATOM     28  O   UNL     1      10.225  -2.584  23.292  0.00  0.00    -0.302 OA
ATOM     29  H   UNL     1       9.394  -3.072  23.461  0.00  0.00    +0.222 HD
ENDBRANCH  26  28
BRANCH  26  30
ATOM     30  O   UNL     1       9.178   0.027  21.277  0.00  0.00    -0.186 OA
BRANCH  30  31
ATOM     31  P   UNL     1       8.927   1.438  22.246  0.00  0.00    +0.492 P 
ATOM     32  O   UNL     1       7.736   1.829  21.368  0.00  0.00    -0.226 OA
BRANCH  31  33
ATOM     33  O   UNL     1      10.269   2.054  21.565  0.00  0.00    -0.302 OA
ATOM     34  H   UNL     1      10.916   1.368  21.274  0.00  0.00    +0.222 HD
ENDBRANCH  31  33
BRANCH  31  35
ATOM     35  O   UNL     1       8.678   2.849  23.216  0.00  0.00    -0.186 OA
BRANCH  35  36
ATOM     36  P   UNL     1       8.004   2.391  24.741  0.00  0.00    +0.481 P 
ATOM     37  O   UNL     1       7.400   1.980  26.106  0.00  0.00    -0.227 OA
BRANCH  36  38
ATOM     38  O   UNL     1       9.497   1.780  25.057  0.00  0.00    -0.302 OA
ATOM     39  H   UNL     1      10.106   2.331  24.523  0.00  0.00    +0.222 HD
ENDBRANCH  36  38
BRANCH  36  40
ATOM     40  O   UNL     1       7.512   1.029  23.964  0.00  0.00    -0.302 OA
ATOM     41  H   UNL     1       8.250   0.623  23.474  0.00  0.00    +0.222 HD
ENDBRANCH  36  40
ENDBRANCH  35  36
ENDBRANCH  31  35
ENDBRANCH  30  31
ENDBRANCH  26  30
ENDBRANCH  25  26
ENDBRANCH  24  25
ENDBRANCH   4  24
TORSDOF 14
ENDMDL
MODEL 7
REMARK VINA RESULT:      -6.5      4.826      9.062
REMARK  Name = 
REMARK  14 active torsions:
REMARK  status: ('A' for Active; 'I' for Inactive)
REMARK    1  A    between atoms: N_8  and  C_9
REMARK    2  A    between atoms: C_12  and  C_14
REMARK    3  A    between atoms: C_14  and  O_15
REMARK    4  A    between atoms: O_15  and  P_16
REMARK    5  A    between atoms: P_16  and  O_17
REMARK    6  A    between atoms: P_16  and  O_19
REMARK    7  A    between atoms: O_19  and  P_20
REMARK    8  A    between atoms: P_20  and  O_21
REMARK    9  A    between atoms: P_20  and  O_23
REMARK   10  A    between atoms: O_23  and  P_24
REMARK   11  A    between atoms: P_24  and  O_25
REMARK   12  A    between atoms: P_24  and  O_26
REMARK   13  A    between atoms: C_28  and  O_30
REMARK   14  A    between atoms: C_31  and  O_33
REMARK                            x       y       z     vdW  Elec       q    Type
REMARK                         _______ _______ _______ _____ _____    ______ ____
ROOT
ATOM      1  C   UNL     1       9.325  -2.626  23.794  0.00  0.00    +0.253 C 
ATOM      2  C   UNL     1       8.621  -2.149  22.511  0.00  0.00    +0.195 C 
ATOM      3  C   UNL     1       7.951  -0.822  22.908  0.00  0.00    +0.178 C 
ATOM      4  C   UNL     1       8.357  -0.635  24.376  0.00  0.00    +0.178 C 
ATOM      5  O   UNL     1       9.558  -1.403  24.545  0.00  0.00    -0.346 OA
ENDROOT
BRANCH   1  17
ATOM      6  N   UNL     1       5.485  -5.995  22.205  0.00  0.00    -0.329 N 
ATOM      7  H   UNL     1       4.488  -6.136  22.261  0.00  0.00    +0.145 HD
ATOM      8  H   UNL     1       5.757  -5.429  21.403  0.00  0.00    +0.145 HD
ATOM      9  C   UNL     1       6.117  -5.599  23.334  0.00  0.00    +0.195 A 
ATOM     10  N   UNL     1       5.635  -6.105  24.522  0.00  0.00    -0.293 N 
ATOM     11  H   UNL     1       4.878  -6.769  24.520  0.00  0.00    +0.172 HD
ATOM     12  C   UNL     1       6.169  -5.818  25.774  0.00  0.00    +0.280 A 
ATOM     13  O   UNL     1       5.697  -6.301  26.801  0.00  0.00    -0.265 OA
ATOM     14  C   UNL     1       7.284  -4.905  25.697  0.00  0.00    +0.172 A 
ATOM     15  N   UNL     1       8.048  -4.358  26.691  0.00  0.00    -0.229 NA
ATOM     16  C   UNL     1       8.870  -3.547  26.055  0.00  0.00    +0.203 A 
ATOM     17  N   UNL     1       8.667  -3.553  24.690  0.00  0.00    -0.285 N 
ATOM     18  C   UNL     1       7.664  -4.448  24.453  0.00  0.00    +0.171 A 
ATOM     19  N   UNL     1       7.124  -4.768  23.259  0.00  0.00    -0.196 NA
ENDBRANCH   1  17
BRANCH   2  20
ATOM     20  O   UNL     1       9.612  -1.884  21.489  0.00  0.00    -0.385 OA
ATOM     21  H   UNL     1       9.422  -2.452  20.721  0.00  0.00    +0.210 HD
ENDBRANCH   2  20
BRANCH   3  22
ATOM     22  O   UNL     1       6.538  -0.879  22.728  0.00  0.00    -0.386 OA
ATOM     23  H   UNL     1       6.213  -1.675  23.189  0.00  0.00    +0.210 HD
ENDBRANCH   3  22
BRANCH   4  24
ATOM     24  C   UNL     1       8.597   0.813  24.797  0.00  0.00    +0.206 C 
BRANCH  24  25
ATOM     25  O   UNL     1       7.559   1.622  24.288  0.00  0.00    -0.284 OA
BRANCH  25  26
ATOM     26  P   UNL     1       7.984   2.881  23.312  0.00  0.00    +0.483 P 
ATOM     27  O   UNL     1       9.271   2.365  22.646  0.00  0.00    -0.227 OA
BRANCH  26  28
ATOM     28  O   UNL     1       7.103   2.145  22.019  0.00  0.00    -0.302 OA
ATOM     29  H   UNL     1       7.225   1.190  22.191  0.00  0.00    +0.222 HD
ENDBRANCH  26  28
BRANCH  26  30
ATOM     30  O   UNL     1       8.866   3.616  24.607  0.00  0.00    -0.186 OA
BRANCH  30  31
ATOM     31  P   UNL     1       9.854   4.890  23.981  0.00  0.00    +0.492 P 
ATOM     32  O   UNL     1       9.546   5.735  25.220  0.00  0.00    -0.226 OA
BRANCH  31  33
ATOM     33  O   UNL     1       8.679   5.164  22.890  0.00  0.00    -0.302 OA
ATOM     34  H   UNL     1       8.996   5.153  21.956  0.00  0.00    +0.222 HD
ENDBRANCH  31  33
BRANCH  31  35
ATOM     35  O   UNL     1      10.841   6.165  23.354  0.00  0.00    -0.186 OA
BRANCH  35  36
ATOM     36  P   UNL     1      12.434   5.564  23.050  0.00  0.00    +0.481 P 
ATOM     37  O   UNL     1      13.861   5.027  22.777  0.00  0.00    -0.227 OA
BRANCH  36  38
ATOM     38  O   UNL     1      11.819   4.109  23.503  0.00  0.00    -0.302 OA
ATOM     39  H   UNL     1      11.033   4.332  24.043  0.00  0.00    +0.222 HD
ENDBRANCH  36  38
BRANCH  36  40
ATOM     40  O   UNL     1      12.755   6.012  24.597  0.00  0.00    -0.302 OA
ATOM     41  H   UNL     1      12.337   5.401  25.230  0.00  0.00    +0.222 HD
ENDBRANCH  36  40
ENDBRANCH  35  36
ENDBRANCH  31  35
ENDBRANCH  30  31
ENDBRANCH  26  30
ENDBRANCH  25  26
ENDBRANCH  24  25
ENDBRANCH   4  24
TORSDOF 14
ENDMDL
MODEL 8
REMARK VINA RESULT:      -6.5      4.138      6.823
REMARK  Name = 
REMARK  14 active torsions:
REMARK  status: ('A' for Active; 'I' for Inactive)
REMARK    1  A    between atoms: N_8  and  C_9
REMARK    2  A    between atoms: C_12  and  C_14
REMARK    3  A    between atoms: C_14  and  O_15
REMARK    4  A    between atoms: O_15  and  P_16
REMARK    5  A    between atoms: P_16  and  O_17
REMARK    6  A    between atoms: P_16  and  O_19
REMARK    7  A    between atoms: O_19  and  P_20
REMARK    8  A    between atoms: P_20  and  O_21
REMARK    9  A    between atoms: P_20  and  O_23
REMARK   10  A    between atoms: O_23  and  P_24
REMARK   11  A    between atoms: P_24  and  O_25
REMARK   12  A    between atoms: P_24  and  O_26
REMARK   13  A    between atoms: C_28  and  O_30
REMARK   14  A    between atoms: C_31  and  O_33
REMARK                            x       y       z     vdW  Elec       q    Type
REMARK                         _______ _______ _______ _____ _____    ______ ____
ROOT
ATOM      1  C   UNL     1       7.992  -5.288  26.254  0.00  0.00    +0.253 C 
ATOM      2  C   UNL     1       9.088  -5.239  25.175  0.00  0.00    +0.195 C 
ATOM      3  C   UNL     1       9.187  -3.753  24.791  0.00  0.00    +0.178 C 
ATOM      4  C   UNL     1       8.161  -3.072  25.706  0.00  0.00    +0.178 C 
ATOM      5  O   UNL     1       8.001  -3.952  26.829  0.00  0.00    -0.346 OA
ENDROOT
BRANCH   1  17
ATOM      6  N   UNL     1       6.355  -5.817  21.188  0.00  0.00    -0.329 N 
ATOM      7  H   UNL     1       5.829  -5.335  20.476  0.00  0.00    +0.145 HD
ATOM      8  H   UNL     1       7.345  -5.577  21.175  0.00  0.00    +0.145 HD
ATOM      9  C   UNL     1       5.853  -5.800  22.445  0.00  0.00    +0.195 A 
ATOM     10  N   UNL     1       4.482  -5.841  22.563  0.00  0.00    -0.293 N 
ATOM     11  H   UNL     1       3.904  -5.925  21.743  0.00  0.00    +0.172 HD
ATOM     12  C   UNL     1       3.796  -5.846  23.774  0.00  0.00    +0.280 A 
ATOM     13  O   UNL     1       2.568  -5.885  23.817  0.00  0.00    -0.265 OA
ATOM     14  C   UNL     1       4.686  -5.780  24.908  0.00  0.00    +0.172 A 
ATOM     15  N   UNL     1       4.410  -5.729  26.246  0.00  0.00    -0.229 NA
ATOM     16  C   UNL     1       5.593  -5.608  26.814  0.00  0.00    +0.203 A 
ATOM     17  N   UNL     1       6.621  -5.582  25.893  0.00  0.00    -0.285 N 
ATOM     18  C   UNL     1       6.042  -5.721  24.665  0.00  0.00    +0.171 A 
ATOM     19  N   UNL     1       6.665  -5.736  23.468  0.00  0.00    -0.196 NA
ENDBRANCH   1  17
BRANCH   2  20
ATOM     20  O   UNL     1      10.349  -5.657  25.753  0.00  0.00    -0.385 OA
ATOM     21  H   UNL     1      10.993  -4.934  25.642  0.00  0.00    +0.210 HD
ENDBRANCH   2  20
BRANCH   3  22
ATOM     22  O   UNL     1       8.910  -3.555  23.406  0.00  0.00    -0.386 OA
ATOM     23  H   UNL     1       9.762  -3.425  22.950  0.00  0.00    +0.210 HD
ENDBRANCH   3  22
BRANCH   4  24
ATOM     24  C   UNL     1       8.555  -1.677  26.187  0.00  0.00    +0.206 C 
BRANCH  24  25
ATOM     25  O   UNL     1       7.933  -0.711  25.367  0.00  0.00    -0.284 OA
BRANCH  25  26
ATOM     26  P   UNL     1       7.234   0.582  26.112  0.00  0.00    +0.483 P 
ATOM     27  O   UNL     1       5.994  -0.043  26.773  0.00  0.00    -0.227 OA
BRANCH  26  28
ATOM     28  O   UNL     1       8.110   0.197  27.553  0.00  0.00    -0.302 OA
ATOM     29  H   UNL     1       8.319  -0.751  27.430  0.00  0.00    +0.222 HD
ENDBRANCH  26  28
BRANCH  26  30
ATOM     30  O   UNL     1       6.358   0.967  24.670  0.00  0.00    -0.186 OA
BRANCH  30  31
ATOM     31  P   UNL     1       7.455   1.052  23.335  0.00  0.00    +0.492 P 
ATOM     32  O   UNL     1       7.975   2.397  23.849  0.00  0.00    -0.226 OA
BRANCH  31  33
ATOM     33  O   UNL     1       6.165   1.347  22.390  0.00  0.00    -0.302 OA
ATOM     34  H   UNL     1       5.515   0.606  22.363  0.00  0.00    +0.222 HD
ENDBRANCH  31  33
BRANCH  31  35
ATOM     35  O   UNL     1       8.551   1.136  21.999  0.00  0.00    -0.186 OA
BRANCH  35  36
ATOM     36  P   UNL     1       9.514  -0.300  21.950  0.00  0.00    +0.481 P 
ATOM     37  O   UNL     1      10.376  -1.585  21.906  0.00  0.00    -0.227 OA
BRANCH  36  38
ATOM     38  O   UNL     1       8.157  -1.058  22.485  0.00  0.00    -0.302 OA
ATOM     39  H   UNL     1       7.663  -1.283  21.670  0.00  0.00    +0.222 HD
ENDBRANCH  36  38
BRANCH  36  40
ATOM     40  O   UNL     1       9.985   0.124  23.465  0.00  0.00    -0.302 OA
ATOM     41  H   UNL     1      10.589  -0.542  23.841  0.00  0.00    +0.222 HD
ENDBRANCH  36  40
ENDBRANCH  35  36
ENDBRANCH  31  35
ENDBRANCH  30  31
ENDBRANCH  26  30
ENDBRANCH  25  26
ENDBRANCH  24  25
ENDBRANCH   4  24
TORSDOF 14
ENDMDL
MODEL 9
REMARK VINA RESULT:      -6.4      1.811      3.535
REMARK  Name = 
REMARK  14 active torsions:
REMARK  status: ('A' for Active; 'I' for Inactive)
REMARK    1  A    between atoms: N_8  and  C_9
REMARK    2  A    between atoms: C_12  and  C_14
REMARK    3  A    between atoms: C_14  and  O_15
REMARK    4  A    between atoms: O_15  and  P_16
REMARK    5  A    between atoms: P_16  and  O_17
REMARK    6  A    between atoms: P_16  and  O_19
REMARK    7  A    between atoms: O_19  and  P_20
REMARK    8  A    between atoms: P_20  and  O_21
REMARK    9  A    between atoms: P_20  and  O_23
REMARK   10  A    between atoms: O_23  and  P_24
REMARK   11  A    between atoms: P_24  and  O_25
REMARK   12  A    between atoms: P_24  and  O_26
REMARK   13  A    between atoms: C_28  and  O_30
REMARK   14  A    between atoms: C_31  and  O_33
REMARK                            x       y       z     vdW  Elec       q    Type
REMARK                         _______ _______ _______ _____ _____    ______ ____
ROOT
ATOM      1  C   UNL     1       9.239  -3.393  24.560  0.00  0.00    +0.253 C 
ATOM      2  C   UNL     1       9.431  -4.495  25.618  0.00  0.00    +0.195 C 
ATOM      3  C   UNL     1       8.081  -5.230  25.660  0.00  0.00    +0.178 C 
ATOM      4  C   UNL     1       7.240  -4.508  24.599  0.00  0.00    +0.178 C 
ATOM      5  O   UNL     1       8.185  -3.908  23.701  0.00  0.00    -0.346 OA
ENDROOT
BRANCH   1  17
ATOM      6  N   UNL     1       9.168   0.753  21.180  0.00  0.00    -0.329 N 
ATOM      7  H   UNL     1       9.674   1.596  20.955  0.00  0.00    +0.145 HD
ATOM      8  H   UNL     1       9.513  -0.059  20.672  0.00  0.00    +0.145 HD
ATOM      9  C   UNL     1       8.975   0.479  22.491  0.00  0.00    +0.195 A 
ATOM     10  N   UNL     1       8.770   1.557  23.324  0.00  0.00    -0.293 N 
ATOM     11  H   UNL     1       8.727   2.489  22.946  0.00  0.00    +0.172 HD
ATOM     12  C   UNL     1       8.542   1.461  24.693  0.00  0.00    +0.280 A 
ATOM     13  O   UNL     1       8.365   2.461  25.387  0.00  0.00    -0.265 OA
ATOM     14  C   UNL     1       8.563   0.095  25.158  0.00  0.00    +0.172 A 
ATOM     15  N   UNL     1       8.417  -0.411  26.419  0.00  0.00    -0.229 NA
ATOM     16  C   UNL     1       8.594  -1.708  26.268  0.00  0.00    +0.203 A 
ATOM     17  N   UNL     1       8.845  -2.058  24.956  0.00  0.00    -0.285 N 
ATOM     18  C   UNL     1       8.798  -0.900  24.233  0.00  0.00    +0.171 A 
ATOM     19  N   UNL     1       8.999  -0.761  22.907  0.00  0.00    -0.196 NA
ENDBRANCH   1  17
BRANCH   2  20
ATOM     20  O   UNL     1      10.452  -5.419  25.168  0.00  0.00    -0.385 OA
ATOM     21  H   UNL     1      10.831  -5.079  24.338  0.00  0.00    +0.210 HD
ENDBRANCH   2  20
BRANCH   3  22
ATOM     22  O   UNL     1       7.498  -5.172  26.961  0.00  0.00    -0.386 OA
ATOM     23  H   UNL     1       7.367  -6.090  27.267  0.00  0.00    +0.210 HD
ENDBRANCH   3  22
BRANCH   4  24
ATOM     24  C   UNL     1       6.276  -5.404  23.824  0.00  0.00    +0.206 C 
BRANCH  24  25
ATOM     25  O   UNL     1       4.951  -4.990  24.081  0.00  0.00    -0.284 OA
BRANCH  25  26
ATOM     26  P   UNL     1       3.772  -6.141  24.031  0.00  0.00    +0.483 P 
ATOM     27  O   UNL     1       2.748  -5.613  25.049  0.00  0.00    -0.227 OA
BRANCH  26  28
ATOM     28  O   UNL     1       2.949  -5.213  22.826  0.00  0.00    -0.302 OA
ATOM     29  H   UNL     1       2.232  -5.816  22.543  0.00  0.00    +0.222 HD
ENDBRANCH  26  28
BRANCH  26  30
ATOM     30  O   UNL     1       4.596  -7.070  25.237  0.00  0.00    -0.186 OA
BRANCH  30  31
ATOM     31  P   UNL     1       4.127  -6.520  26.808  0.00  0.00    +0.492 P 
ATOM     32  O   UNL     1       5.411  -7.111  27.397  0.00  0.00    -0.226 OA
BRANCH  31  33
ATOM     33  O   UNL     1       3.000  -7.692  26.800  0.00  0.00    -0.302 OA
ATOM     34  H   UNL     1       3.034  -8.280  27.591  0.00  0.00    +0.222 HD
ENDBRANCH  31  33
BRANCH  31  35
ATOM     35  O   UNL     1       3.657  -5.970  28.380  0.00  0.00    -0.186 OA
BRANCH  35  36
ATOM     36  P   UNL     1       4.046  -4.293  28.546  0.00  0.00    +0.481 P 
ATOM     37  O   UNL     1       4.395  -2.792  28.695  0.00  0.00    -0.227 OA
BRANCH  36  38
ATOM     38  O   UNL     1       4.593  -4.413  27.000  0.00  0.00    -0.302 OA
ATOM     39  H   UNL     1       3.781  -4.498  26.459  0.00  0.00    +0.222 HD
ENDBRANCH  36  38
BRANCH  36  40
ATOM     40  O   UNL     1       5.464  -4.823  29.184  0.00  0.00    -0.302 OA
ATOM     41  H   UNL     1       5.950  -5.373  28.544  0.00  0.00    +0.222 HD
ENDBRANCH  36  40
ENDBRANCH  35  36
ENDBRANCH  31  35
ENDBRANCH  30  31
ENDBRANCH  26  30
ENDBRANCH  25  26
ENDBRANCH  24  25
ENDBRANCH   4  24
TORSDOF 14
ENDMDL
