MODEL 1
REMARK VINA RESULT:      -6.0      0.000      0.000
REMARK  Name = 
REMARK  10 active torsions:
REMARK  status: ('A' for Active; 'I' for Inactive)
REMARK    1  A    between atoms: C_1  and  C_2
REMARK    2  A    between atoms: C_2  and  N_3
REMARK    3  A    between atoms: N_3  and  C_4
REMARK    4  A    between atoms: N_7  and  C_8
REMARK    5  A    between atoms: C_8  and  C_9
REMARK    6  A    between atoms: C_9  and  C_10
REMARK    7  A    between atoms: C_10  and  O_11
REMARK    8  A    between atoms: O_11  and  C_12
REMARK    9  A    between atoms: C_19  and  S_21
REMARK   10  A    between atoms: S_21  and  N_22
REMARK                            x       y       z     vdW  Elec       q    Type
REMARK                         _______ _______ _______ _____ _____    ______ ____
ROOT
ATOM      1  C   UNL     1       5.731  -5.531  23.530  0.00  0.00    +0.102 C 
ATOM      2  C   UNL     1       6.072  -5.565  25.019  0.00  0.00    +0.006 A 
ATOM      3  C   UNL     1       5.318  -6.147  26.097  0.00  0.00    +0.043 A 
ATOM      4  C   UNL     1       5.940  -5.993  27.328  0.00  0.00    +0.144 A 
ATOM      5  S   UNL     1       7.424  -5.159  27.184  0.00  0.00    -0.048 S 
ATOM      6  C   UNL     1       7.244  -5.030  25.512  0.00  0.00    +0.149 A 
ATOM      7  S   UNL     1       8.570  -4.342  24.594  0.00  0.00    +0.068 S 
ATOM      8  O   UNL     1       8.954  -3.127  25.272  0.00  0.00    -0.152 OA
ATOM      9  O   UNL     1       9.477  -5.462  24.439  0.00  0.00    -0.152 OA
ATOM     10  N   UNL     1       7.864  -4.048  23.090  0.00  0.00    -0.174 NA
ATOM     11  C   UNL     1       6.971  -5.165  22.606  0.00  0.00    +0.133 C 
ENDROOT
BRANCH   4  12
ATOM     12  S   UNL     1       5.551  -6.519  28.980  0.00  0.00    +0.062 S 
ATOM     13  O   UNL     1       5.227  -5.297  29.680  0.00  0.00    -0.153 OA
ATOM     14  O   UNL     1       6.620  -7.406  29.377  0.00  0.00    -0.153 OA
BRANCH  12  15
ATOM     15  N   UNL     1       4.135  -7.418  28.863  0.00  0.00    -0.203 NA
ATOM     16  H   UNL     1       3.431  -6.950  28.295  0.00  0.00    +0.144 HD
ATOM     17  H   UNL     1       4.321  -8.384  28.594  0.00  0.00    +0.144 HD
ENDBRANCH  12  15
ENDBRANCH   4  12
BRANCH   1  18
ATOM     18  N   UNL     1       4.571  -4.629  23.398  0.00  0.00    -0.308 NA
ATOM     19  H   UNL     1       4.494  -4.070  24.249  0.00  0.00    +0.123 HD
BRANCH  18  21
ATOM     20  C   UNL     1       2.267  -4.832  24.215  0.00  0.00    +0.020 C 
ATOM     21  C   UNL     1       3.305  -5.350  23.225  0.00  0.00    +0.078 C 
ENDBRANCH  18  21
ENDBRANCH   1  18
BRANCH  10  22
ATOM     22  C   UNL     1       7.489  -2.691  22.631  0.00  0.00    +0.112 C 
BRANCH  22  23
ATOM     23  C   UNL     1       8.640  -1.845  22.071  0.00  0.00    +0.045 C 
BRANCH  23  24
ATOM     24  C   UNL     1       8.931  -0.570  22.856  0.00  0.00    +0.161 C 
BRANCH  24  25
ATOM     25  O   UNL     1      10.262  -0.632  23.366  0.00  0.00    -0.383 OA
ATOM     26  C   UNL     1      10.380   0.094  24.584  0.00  0.00    +0.193 C 
ENDBRANCH  24  25
ENDBRANCH  23  24
ENDBRANCH  22  23
ENDBRANCH  10  22
TORSDOF 8
ENDMDL
MODEL 2
REMARK VINA RESULT:      -5.9      2.832      4.195
REMARK  Name = 
REMARK  10 active torsions:
REMARK  status: ('A' for Active; 'I' for Inactive)
REMARK    1  A    between atoms: C_1  and  C_2
REMARK    2  A    between atoms: C_2  and  N_3
REMARK    3  A    between atoms: N_3  and  C_4
REMARK    4  A    between atoms: N_7  and  C_8
REMARK    5  A    between atoms: C_8  and  C_9
REMARK    6  A    between atoms: C_9  and  C_10
REMARK    7  A    between atoms: C_10  and  O_11
REMARK    8  A    between atoms: O_11  and  C_12
REMARK    9  A    between atoms: C_19  and  S_21
REMARK   10  A    between atoms: S_21  and  N_22
REMARK                            x       y       z     vdW  Elec       q    Type
REMARK                         _______ _______ _______ _____ _____    ______ ____
ROOT
ATOM      1  C   UNL     1       7.153  -1.927  22.724  0.00  0.00    +0.102 C 
ATOM      2  C   UNL     1       6.484  -3.115  23.413  0.00  0.00    +0.006 A 
ATOM      3  C   UNL     1       5.217  -3.726  23.114  0.00  0.00    +0.043 A 
ATOM      4  C   UNL     1       4.931  -4.797  23.949  0.00  0.00    +0.144 A 
ATOM      5  S   UNL     1       6.183  -5.068  25.079  0.00  0.00    -0.048 S 
ATOM      6  C   UNL     1       7.092  -3.796  24.448  0.00  0.00    +0.149 A 
ATOM      7  S   UNL     1       8.705  -3.543  25.086  0.00  0.00    +0.068 S 
ATOM      8  O   UNL     1       8.588  -3.568  26.524  0.00  0.00    -0.152 OA
ATOM      9  O   UNL     1       9.500  -4.511  24.357  0.00  0.00    -0.152 OA
ATOM     10  N   UNL     1       9.101  -2.012  24.495  0.00  0.00    -0.174 NA
ATOM     11  C   UNL     1       8.700  -1.792  23.056  0.00  0.00    +0.133 C 
ENDROOT
BRANCH   4  12
ATOM     12  S   UNL     1       3.588  -5.957  24.050  0.00  0.00    +0.062 S 
ATOM     13  O   UNL     1       2.896  -5.818  22.790  0.00  0.00    -0.153 OA
ATOM     14  O   UNL     1       2.963  -5.730  25.333  0.00  0.00    -0.153 OA
BRANCH  12  15
ATOM     15  N   UNL     1       4.289  -7.485  24.068  0.00  0.00    -0.203 NA
ATOM     16  H   UNL     1       4.170  -7.949  24.967  0.00  0.00    +0.144 HD
ATOM     17  H   UNL     1       4.003  -8.043  23.263  0.00  0.00    +0.144 HD
ENDBRANCH  12  15
ENDBRANCH   4  12
BRANCH   1  18
ATOM     18  N   UNL     1       6.339  -0.745  23.067  0.00  0.00    -0.308 NA
ATOM     19  H   UNL     1       5.445  -0.813  22.578  0.00  0.00    +0.123 HD
BRANCH  18  21
ATOM     20  C   UNL     1       6.349   1.680  23.433  0.00  0.00    +0.020 C 
ATOM     21  C   UNL     1       6.968   0.518  22.666  0.00  0.00    +0.078 C 
ENDBRANCH  18  21
ENDBRANCH   1  18
BRANCH  10  22
ATOM     22  C   UNL     1       9.106  -0.801  25.346  0.00  0.00    +0.112 C 
BRANCH  22  23
ATOM     23  C   UNL     1      10.286   0.153  25.123  0.00  0.00    +0.045 C 
BRANCH  23  24
ATOM     24  C   UNL     1       9.899   1.523  24.574  0.00  0.00    +0.161 C 
BRANCH  24  25
ATOM     25  O   UNL     1      10.825   1.894  23.553  0.00  0.00    -0.383 OA
ATOM     26  C   UNL     1      10.164   2.103  22.311  0.00  0.00    +0.193 C 
ENDBRANCH  24  25
ENDBRANCH  23  24
ENDBRANCH  22  23
ENDBRANCH  10  22
TORSDOF 8
ENDMDL
MODEL 3
REMARK VINA RESULT:      -5.8      3.096      4.001
REMARK  Name = 
REMARK  10 active torsions:
REMARK  status: ('A' for Active; 'I' for Inactive)
REMARK    1  A    between atoms: C_1  and  C_2
REMARK    2  A    between atoms: C_2  and  N_3
REMARK    3  A    between atoms: N_3  and  C_4
REMARK    4  A    between atoms: N_7  and  C_8
REMARK    5  A    between atoms: C_8  and  C_9
REMARK    6  A    between atoms: C_9  and  C_10
REMARK    7  A    between atoms: C_10  and  O_11
REMARK    8  A    between atoms: O_11  and  C_12
REMARK    9  A    between atoms: C_19  and  S_21
REMARK   10  A    between atoms: S_21  and  N_22
REMARK                            x       y       z     vdW  Elec       q    Type
REMARK                         _______ _______ _______ _____ _____    ______ ____
ROOT
ATOM      1  C   UNL     1       6.859  -5.264  24.272  0.00  0.00    +0.102 C 
ATOM      2  C   UNL     1       5.579  -5.868  24.848  0.00  0.00    +0.006 A 
ATOM      3  C   UNL     1       4.542  -6.591  24.161  0.00  0.00    +0.043 A 
ATOM      4  C   UNL     1       3.524  -7.000  25.010  0.00  0.00    +0.144 A 
ATOM      5  S   UNL     1       3.818  -6.522  26.623  0.00  0.00    -0.048 S 
ATOM      6  C   UNL     1       5.283  -5.806  26.194  0.00  0.00    +0.149 A 
ATOM      7  S   UNL     1       6.292  -5.167  27.477  0.00  0.00    +0.068 S 
ATOM      8  O   UNL     1       5.435  -4.367  28.318  0.00  0.00    -0.152 OA
ATOM      9  O   UNL     1       6.979  -6.345  27.970  0.00  0.00    -0.152 OA
ATOM     10  N   UNL     1       7.420  -4.238  26.633  0.00  0.00    -0.174 NA
ATOM     11  C   UNL     1       7.939  -4.899  25.378  0.00  0.00    +0.133 C 
ENDROOT
BRANCH   4  12
ATOM     12  S   UNL     1       2.036  -7.945  24.786  0.00  0.00    +0.062 S 
ATOM     13  O   UNL     1       1.863  -8.009  23.353  0.00  0.00    -0.153 OA
ATOM     14  O   UNL     1       1.059  -7.369  25.682  0.00  0.00    -0.153 OA
BRANCH  12  15
ATOM     15  N   UNL     1       2.385  -9.501  25.316  0.00  0.00    -0.203 NA
ATOM     16  H   UNL     1       2.344  -9.577  26.332  0.00  0.00    +0.144 HD
ATOM     17  H   UNL     1       1.836 -10.203  24.818  0.00  0.00    +0.144 HD
ENDBRANCH  12  15
ENDBRANCH   4  12
BRANCH   1  18
ATOM     18  N   UNL     1       6.432  -4.134  23.426  0.00  0.00    -0.308 NA
ATOM     19  H   UNL     1       5.426  -4.000  23.545  0.00  0.00    +0.123 HD
BRANCH  18  21
ATOM     20  C   UNL     1       7.282  -5.749  21.786  0.00  0.00    +0.020 C 
ATOM     21  C   UNL     1       6.681  -4.364  21.998  0.00  0.00    +0.078 C 
ENDBRANCH  18  21
ENDBRANCH   1  18
BRANCH  10  22
ATOM     22  C   UNL     1       7.377  -2.759  26.599  0.00  0.00    +0.112 C 
BRANCH  22  23
ATOM     23  C   UNL     1       8.544  -2.084  25.867  0.00  0.00    +0.045 C 
BRANCH  23  24
ATOM     24  C   UNL     1       8.128  -1.159  24.726  0.00  0.00    +0.161 C 
BRANCH  24  25
ATOM     25  O   UNL     1       8.492  -1.760  23.484  0.00  0.00    -0.383 OA
ATOM     26  C   UNL     1       9.833  -2.233  23.517  0.00  0.00    +0.193 C 
ENDBRANCH  24  25
ENDBRANCH  23  24
ENDBRANCH  22  23
ENDBRANCH  10  22
TORSDOF 8
ENDMDL
MODEL 4
REMARK VINA RESULT:      -5.7      3.656      5.928
REMARK  Name = 
REMARK  10 active torsions:
REMARK  status: ('A' for Active; 'I' for Inactive)
REMARK    1  A    between atoms: C_1  and  C_2
REMARK    2  A    between atoms: C_2  and  N_3
REMARK    3  A    between atoms: N_3  and  C_4
REMARK    4  A    between atoms: N_7  and  C_8
REMARK    5  A    between atoms: C_8  and  C_9
REMARK    6  A    between atoms: C_9  and  C_10
REMARK    7  A    between atoms: C_10  and  O_11
REMARK    8  A    between atoms: O_11  and  C_12
REMARK    9  A    between atoms: C_19  and  S_21
REMARK   10  A    between atoms: S_21  and  N_22
REMARK                            x       y       z     vdW  Elec       q    Type
REMARK                         _______ _______ _______ _____ _____    ______ ____
ROOT
ATOM      1  C   UNL     1       8.851  -0.947  23.397  0.00  0.00    +0.102 C 
ATOM      2  C   UNL     1       7.909  -2.149  23.341  0.00  0.00    +0.006 A 
ATOM      3  C   UNL     1       7.703  -3.074  22.260  0.00  0.00    +0.043 A 
ATOM      4  C   UNL     1       6.769  -4.054  22.566  0.00  0.00    +0.144 A 
ATOM      5  S   UNL     1       6.150  -3.863  24.147  0.00  0.00    -0.048 S 
ATOM      6  C   UNL     1       7.128  -2.515  24.417  0.00  0.00    +0.149 A 
ATOM      7  S   UNL     1       7.123  -1.806  26.020  0.00  0.00    +0.068 S 
ATOM      8  O   UNL     1       5.740  -1.654  26.401  0.00  0.00    -0.152 OA
ATOM      9  O   UNL     1       8.040  -2.655  26.756  0.00  0.00    -0.152 OA
ATOM     10  N   UNL     1       7.893  -0.324  25.771  0.00  0.00    -0.174 NA
ATOM     11  C   UNL     1       9.102  -0.409  24.871  0.00  0.00    +0.133 C 
ENDROOT
BRANCH   4  12
ATOM     12  S   UNL     1       6.135  -5.468  21.697  0.00  0.00    +0.062 S 
ATOM     13  O   UNL     1       7.044  -6.537  22.037  0.00  0.00    -0.153 OA
ATOM     14  O   UNL     1       5.892  -5.027  20.343  0.00  0.00    -0.153 OA
BRANCH  12  15
ATOM     15  N   UNL     1       4.654  -5.828  22.407  0.00  0.00    -0.203 NA
ATOM     16  H   UNL     1       3.912  -5.214  22.076  0.00  0.00    +0.144 HD
ATOM     17  H   UNL     1       4.436  -6.824  22.345  0.00  0.00    +0.144 HD
ENDBRANCH  12  15
ENDBRANCH   4  12
BRANCH   1  18
ATOM     18  N   UNL     1       8.298   0.048  22.459  0.00  0.00    -0.308 NA
ATOM     19  H   UNL     1       7.540  -0.387  21.932  0.00  0.00    +0.123 HD
BRANCH  18  21
ATOM     20  C   UNL     1       9.998   1.766  22.038  0.00  0.00    +0.020 C 
ATOM     21  C   UNL     1       9.289   0.532  21.491  0.00  0.00    +0.078 C 
ENDBRANCH  18  21
ENDBRANCH   1  18
BRANCH  10  22
ATOM     22  C   UNL     1       7.162   0.962  25.735  0.00  0.00    +0.112 C 
BRANCH  22  23
ATOM     23  C   UNL     1       8.010   2.189  25.372  0.00  0.00    +0.045 C 
BRANCH  23  24
ATOM     24  C   UNL     1       7.354   3.142  24.377  0.00  0.00    +0.161 C 
BRANCH  24  25
ATOM     25  O   UNL     1       6.719   2.379  23.352  0.00  0.00    -0.383 OA
ATOM     26  C   UNL     1       6.436   3.183  22.214  0.00  0.00    +0.193 C 
ENDBRANCH  24  25
ENDBRANCH  23  24
ENDBRANCH  22  23
ENDBRANCH  10  22
TORSDOF 8
ENDMDL
MODEL 5
REMARK VINA RESULT:      -5.6      3.772      5.727
REMARK  Name = 
REMARK  10 active torsions:
REMARK  status: ('A' for Active; 'I' for Inactive)
REMARK    1  A    between atoms: C_1  and  C_2
REMARK    2  A    between atoms: C_2  and  N_3
REMARK    3  A    between atoms: N_3  and  C_4
REMARK    4  A    between atoms: N_7  and  C_8
REMARK    5  A    between atoms: C_8  and  C_9
REMARK    6  A    between atoms: C_9  and  C_10
REMARK    7  A    between atoms: C_10  and  O_11
REMARK    8  A    between atoms: O_11  and  C_12
REMARK    9  A    between atoms: C_19  and  S_21
REMARK   10  A    between atoms: S_21  and  N_22
REMARK                            x       y       z     vdW  Elec       q    Type
REMARK                         _______ _______ _______ _____ _____    ______ ____
ROOT
ATOM      1  C   UNL     1       6.646   0.062  23.668  0.00  0.00    +0.102 C 
ATOM      2  C   UNL     1       7.558  -1.151  23.847  0.00  0.00    +0.006 A 
ATOM      3  C   UNL     1       7.199  -2.492  24.221  0.00  0.00    +0.043 A 
ATOM      4  C   UNL     1       8.296  -3.341  24.281  0.00  0.00    +0.144 A 
ATOM      5  S   UNL     1       9.744  -2.528  23.883  0.00  0.00    -0.048 S 
ATOM      6  C   UNL     1       8.916  -1.084  23.617  0.00  0.00    +0.149 A 
ATOM      7  S   UNL     1       9.825   0.282  22.998  0.00  0.00    +0.068 S 
ATOM      8  O   UNL     1      11.013   0.389  23.809  0.00  0.00    -0.152 OA
ATOM      9  O   UNL     1       9.881   0.018  21.573  0.00  0.00    -0.152 OA
ATOM     10  N   UNL     1       8.762   1.571  23.233  0.00  0.00    -0.174 NA
ATOM     11  C   UNL     1       7.330   1.255  22.872  0.00  0.00    +0.133 C 
ENDROOT
BRANCH   4  12
ATOM     12  S   UNL     1       8.497  -5.073  24.624  0.00  0.00    +0.062 S 
ATOM     13  O   UNL     1       8.303  -5.718  23.346  0.00  0.00    -0.153 OA
ATOM     14  O   UNL     1       7.684  -5.345  25.787  0.00  0.00    -0.153 OA
BRANCH  12  15
ATOM     15  N   UNL     1      10.110  -5.281  25.048  0.00  0.00    -0.203 NA
ATOM     16  H   UNL     1      10.381  -6.264  25.050  0.00  0.00    +0.144 HD
ATOM     17  H   UNL     1      10.726  -4.675  24.504  0.00  0.00    +0.144 HD
ENDBRANCH  12  15
ENDBRANCH   4  12
BRANCH   1  18
ATOM     18  N   UNL     1       6.163   0.413  25.017  0.00  0.00    -0.308 NA
ATOM     19  H   UNL     1       5.622  -0.372  25.383  0.00  0.00    +0.123 HD
BRANCH  18  21
ATOM     20  C   UNL     1       4.398   1.580  26.257  0.00  0.00    +0.020 C 
ATOM     21  C   UNL     1       5.292   1.593  25.023  0.00  0.00    +0.078 C 
ENDBRANCH  18  21
ENDBRANCH   1  18
BRANCH  10  22
ATOM     22  C   UNL     1       8.939   2.570  24.311  0.00  0.00    +0.112 C 
BRANCH  22  23
ATOM     23  C   UNL     1       9.517   3.920  23.867  0.00  0.00    +0.045 C 
BRANCH  23  24
ATOM     24  C   UNL     1      10.996   3.884  23.491  0.00  0.00    +0.161 C 
BRANCH  24  25
ATOM     25  O   UNL     1      11.542   5.195  23.626  0.00  0.00    -0.383 OA
ATOM     26  C   UNL     1      10.534   6.139  23.965  0.00  0.00    +0.193 C 
ENDBRANCH  24  25
ENDBRANCH  23  24
ENDBRANCH  22  23
ENDBRANCH  10  22
TORSDOF 8
ENDMDL
MODEL 6
REMARK VINA RESULT:      -5.6      2.572      2.980
REMARK  Name = 
REMARK  10 active torsions:
REMARK  status: ('A' for Active; 'I' for Inactive)
REMARK    1  A    between atoms: C_1  and  C_2
REMARK    2  A    between atoms: C_2  and  N_3
REMARK    3  A    between atoms: N_3  and  C_4
REMARK    4  A    between atoms: N_7  and  C_8
REMARK    5  A    between atoms: C_8  and  C_9
REMARK    6  A    between atoms: C_9  and  C_10
REMARK    7  A    between atoms: C_10  and  O_11
REMARK    8  A    between atoms: O_11  and  C_12
REMARK    9  A    between atoms: C_19  and  S_21
REMARK   10  A    between atoms: S_21  and  N_22
REMARK                            x       y       z     vdW  Elec       q    Type
REMARK                         _______ _______ _______ _____ _____    ______ ____
ROOT
ATOM      1  C   UNL     1       9.120  -4.341  24.983  0.00  0.00    +0.102 C 
ATOM      2  C   UNL     1       7.941  -4.320  25.956  0.00  0.00    +0.006 A 
ATOM      3  C   UNL     1       7.468  -5.375  26.812  0.00  0.00    +0.043 A 
ATOM      4  C   UNL     1       6.369  -4.995  27.570  0.00  0.00    +0.144 A 
ATOM      5  S   UNL     1       5.916  -3.378  27.257  0.00  0.00    -0.048 S 
ATOM      6  C   UNL     1       7.176  -3.190  26.151  0.00  0.00    +0.149 A 
ATOM      7  S   UNL     1       7.433  -1.598  25.463  0.00  0.00    +0.068 S 
ATOM      8  O   UNL     1       6.144  -1.126  25.020  0.00  0.00    -0.152 OA
ATOM      9  O   UNL     1       8.196  -0.916  26.492  0.00  0.00    -0.152 OA
ATOM     10  N   UNL     1       8.482  -1.915  24.180  0.00  0.00    -0.174 NA
ATOM     11  C   UNL     1       9.581  -2.894  24.517  0.00  0.00    +0.133 C 
ENDROOT
BRANCH   4  12
ATOM     12  S   UNL     1       5.390  -5.803  28.812  0.00  0.00    +0.062 S 
ATOM     13  O   UNL     1       4.041  -5.356  28.555  0.00  0.00    -0.153 OA
ATOM     14  O   UNL     1       6.077  -5.587  30.065  0.00  0.00    -0.153 OA
BRANCH  12  15
ATOM     15  N   UNL     1       5.447  -7.446  28.457  0.00  0.00    -0.203 NA
ATOM     16  H   UNL     1       4.523  -7.875  28.484  0.00  0.00    +0.144 HD
ATOM     17  H   UNL     1       5.973  -7.631  27.603  0.00  0.00    +0.144 HD
ENDBRANCH  12  15
ENDBRANCH   4  12
BRANCH   1  18
ATOM     18  N   UNL     1       8.729  -5.251  23.889  0.00  0.00    -0.308 NA
ATOM     19  H   UNL     1       9.284  -5.022  23.063  0.00  0.00    +0.123 HD
BRANCH  18  21
ATOM     20  C   UNL     1       7.076  -5.726  22.140  0.00  0.00    +0.020 C 
ATOM     21  C   UNL     1       7.315  -5.126  23.521  0.00  0.00    +0.078 C 
ENDBRANCH  18  21
ENDBRANCH   1  18
BRANCH  10  22
ATOM     22  C   UNL     1       8.043  -1.916  22.767  0.00  0.00    +0.112 C 
BRANCH  22  23
ATOM     23  C   UNL     1       9.135  -1.589  21.739  0.00  0.00    +0.045 C 
BRANCH  23  24
ATOM     24  C   UNL     1       9.734  -0.192  21.872  0.00  0.00    +0.161 C 
BRANCH  24  25
ATOM     25  O   UNL     1       8.972   0.719  21.082  0.00  0.00    -0.383 OA
ATOM     26  C   UNL     1       8.445   1.773  21.878  0.00  0.00    +0.193 C 
ENDBRANCH  24  25
ENDBRANCH  23  24
ENDBRANCH  22  23
ENDBRANCH  10  22
TORSDOF 8
ENDMDL
MODEL 7
REMARK VINA RESULT:      -5.6      2.245      2.942
REMARK  Name = 
REMARK  10 active torsions:
REMARK  status: ('A' for Active; 'I' for Inactive)
REMARK    1  A    between atoms: C_1  and  C_2
REMARK    2  A    between atoms: C_2  and  N_3
REMARK    3  A    between atoms: N_3  and  C_4
REMARK    4  A    between atoms: N_7  and  C_8
REMARK    5  A    between atoms: C_8  and  C_9
REMARK    6  A    between atoms: C_9  and  C_10
REMARK    7  A    between atoms: C_10  and  O_11
REMARK    8  A    between atoms: O_11  and  C_12
REMARK    9  A    between atoms: C_19  and  S_21
REMARK   10  A    between atoms: S_21  and  N_22
REMARK                            x       y       z     vdW  Elec       q    Type
REMARK                         _______ _______ _______ _____ _____    ______ ____
ROOT
ATOM      1  C   UNL     1       6.492  -2.244  24.688  0.00  0.00    +0.102 C 
ATOM      2  C   UNL     1       6.569  -3.399  25.686  0.00  0.00    +0.006 A 
ATOM      3  C   UNL     1       5.673  -3.706  26.769  0.00  0.00    +0.043 A 
ATOM      4  C   UNL     1       6.053  -4.843  27.469  0.00  0.00    +0.144 A 
ATOM      5  S   UNL     1       7.474  -5.536  26.822  0.00  0.00    -0.048 S 
ATOM      6  C   UNL     1       7.561  -4.355  25.622  0.00  0.00    +0.149 A 
ATOM      7  S   UNL     1       8.806  -4.517  24.398  0.00  0.00    +0.068 S 
ATOM      8  O   UNL     1      10.040  -4.783  25.097  0.00  0.00    -0.152 OA
ATOM      9  O   UNL     1       8.225  -5.463  23.465  0.00  0.00    -0.152 OA
ATOM     10  N   UNL     1       8.796  -3.001  23.657  0.00  0.00    -0.174 NA
ATOM     11  C   UNL     1       7.411  -2.453  23.409  0.00  0.00    +0.133 C 
ENDROOT
BRANCH   4  12
ATOM     12  S   UNL     1       5.355  -5.740  28.834  0.00  0.00    +0.062 S 
ATOM     13  O   UNL     1       3.968  -5.339  28.858  0.00  0.00    -0.153 OA
ATOM     14  O   UNL     1       6.261  -5.546  29.943  0.00  0.00    -0.153 OA
BRANCH  12  15
ATOM     15  N   UNL     1       5.397  -7.363  28.398  0.00  0.00    -0.203 NA
ATOM     16  H   UNL     1       5.167  -7.975  29.179  0.00  0.00    +0.144 HD
ATOM     17  H   UNL     1       4.859  -7.542  27.549  0.00  0.00    +0.144 HD
ENDBRANCH  12  15
ENDBRANCH   4  12
BRANCH   1  18
ATOM     18  N   UNL     1       6.773  -1.019  25.460  0.00  0.00    -0.308 NA
ATOM     19  H   UNL     1       6.002  -0.861  26.111  0.00  0.00    +0.123 HD
BRANCH  18  21
ATOM     20  C   UNL     1       5.678   1.080  24.813  0.00  0.00    +0.020 C 
ATOM     21  C   UNL     1       6.888   0.175  24.614  0.00  0.00    +0.078 C 
ENDBRANCH  18  21
ENDBRANCH   1  18
BRANCH  10  22
ATOM     22  C   UNL     1       9.848  -1.987  23.891  0.00  0.00    +0.112 C 
BRANCH  22  23
ATOM     23  C   UNL     1      10.047  -0.973  22.757  0.00  0.00    +0.045 C 
BRANCH  23  24
ATOM     24  C   UNL     1      10.444   0.426  23.220  0.00  0.00    +0.161 C 
BRANCH  24  25
ATOM     25  O   UNL     1      10.030   1.376  22.239  0.00  0.00    -0.383 OA
ATOM     26  C   UNL     1       8.985   0.854  21.428  0.00  0.00    +0.193 C 
ENDBRANCH  24  25
ENDBRANCH  23  24
ENDBRANCH  22  23
ENDBRANCH  10  22
TORSDOF 8
ENDMDL
MODEL 8
REMARK VINA RESULT:      -5.6      3.061      7.039
REMARK  Name = 
REMARK  10 active torsions:
REMARK  status: ('A' for Active; 'I' for Inactive)
REMARK    1  A    between atoms: C_1  and  C_2
REMARK    2  A    between atoms: C_2  and  N_3
REMARK    3  A    between atoms: N_3  and  C_4
REMARK    4  A    between atoms: N_7  and  C_8
REMARK    5  A    between atoms: C_8  and  C_9
REMARK    6  A    between atoms: C_9  and  C_10
REMARK    7  A    between atoms: C_10  and  O_11
REMARK    8  A    between atoms: O_11  and  C_12
REMARK    9  A    between atoms: C_19  and  S_21
REMARK   10  A    between atoms: S_21  and  N_22
REMARK                            x       y       z     vdW  Elec       q    Type
REMARK                         _______ _______ _______ _____ _____    ______ ____
ROOT
ATOM      1  C   UNL     1       6.120  -2.344  22.838  0.00  0.00    +0.102 C 
ATOM      2  C   UNL     1       7.091  -1.301  23.390  0.00  0.00    +0.006 A 
ATOM      3  C   UNL     1       7.772  -0.249  22.683  0.00  0.00    +0.043 A 
ATOM      4  C   UNL     1       8.578   0.517  23.513  0.00  0.00    +0.144 A 
ATOM      5  S   UNL     1       8.511  -0.024  25.132  0.00  0.00    -0.048 S 
ATOM      6  C   UNL     1       7.411  -1.238  24.730  0.00  0.00    +0.149 A 
ATOM      7  S   UNL     1       6.735  -2.197  26.033  0.00  0.00    +0.068 S 
ATOM      8  O   UNL     1       7.843  -2.613  26.858  0.00  0.00    -0.152 OA
ATOM      9  O   UNL     1       5.666  -1.357  26.537  0.00  0.00    -0.152 OA
ATOM     10  N   UNL     1       6.022  -3.487  25.210  0.00  0.00    -0.174 NA
ATOM     11  C   UNL     1       5.273  -3.076  23.965  0.00  0.00    +0.133 C 
ENDROOT
BRANCH   4  12
ATOM     12  S   UNL     1       9.602   1.947  23.260  0.00  0.00    +0.062 S 
ATOM     13  O   UNL     1      10.836   1.631  23.940  0.00  0.00    -0.153 OA
ATOM     14  O   UNL     1       8.780   3.089  23.589  0.00  0.00    -0.153 OA
BRANCH  12  15
ATOM     15  N   UNL     1       9.938   1.996  21.614  0.00  0.00    -0.203 NA
ATOM     16  H   UNL     1      10.593   1.267  21.335  0.00  0.00    +0.144 HD
ATOM     17  H   UNL     1       9.085   2.033  21.054  0.00  0.00    +0.144 HD
ENDBRANCH  12  15
ENDBRANCH   4  12
BRANCH   1  18
ATOM     18  N   UNL     1       6.924  -3.239  21.986  0.00  0.00    -0.308 NA
ATOM     19  H   UNL     1       7.223  -2.720  21.159  0.00  0.00    +0.123 HD
BRANCH  18  21
ATOM     20  C   UNL     1       7.046  -5.660  21.604  0.00  0.00    +0.020 C 
ATOM     21  C   UNL     1       6.174  -4.413  21.523  0.00  0.00    +0.078 C 
ENDBRANCH  18  21
ENDBRANCH   1  18
BRANCH  10  22
ATOM     22  C   UNL     1       6.614  -4.843  25.177  0.00  0.00    +0.112 C 
BRANCH  22  23
ATOM     23  C   UNL     1       6.016  -5.845  26.173  0.00  0.00    +0.045 C 
BRANCH  23  24
ATOM     24  C   UNL     1       4.786  -6.591  25.662  0.00  0.00    +0.161 C 
BRANCH  24  25
ATOM     25  O   UNL     1       4.867  -6.702  24.242  0.00  0.00    -0.383 OA
ATOM     26  C   UNL     1       3.617  -6.404  23.632  0.00  0.00    +0.193 C 
ENDBRANCH  24  25
ENDBRANCH  23  24
ENDBRANCH  22  23
ENDBRANCH  10  22
TORSDOF 8
ENDMDL
MODEL 9
REMARK VINA RESULT:      -5.6      3.696      7.215
REMARK  Name = 
REMARK  10 active torsions:
REMARK  status: ('A' for Active; 'I' for Inactive)
REMARK    1  A    between atoms: C_1  and  C_2
REMARK    2  A    between atoms: C_2  and  N_3
REMARK    3  A    between atoms: N_3  and  C_4
REMARK    4  A    between atoms: N_7  and  C_8
REMARK    5  A    between atoms: C_8  and  C_9
REMARK    6  A    between atoms: C_9  and  C_10
REMARK    7  A    between atoms: C_10  and  O_11
REMARK    8  A    between atoms: O_11  and  C_12
REMARK    9  A    between atoms: C_19  and  S_21
REMARK   10  A    between atoms: S_21  and  N_22
REMARK                            x       y       z     vdW  Elec       q    Type
REMARK                         _______ _______ _______ _____ _____    ______ ____
ROOT
ATOM      1  C   UNL     1       7.600  -1.476  26.419  0.00  0.00    +0.102 C 
ATOM      2  C   UNL     1       8.251  -0.728  25.256  0.00  0.00    +0.006 A 
ATOM      3  C   UNL     1       8.589   0.667  25.165  0.00  0.00    +0.043 A 
ATOM      4  C   UNL     1       9.179   0.996  23.953  0.00  0.00    +0.144 A 
ATOM      5  S   UNL     1       9.329  -0.367  22.934  0.00  0.00    -0.048 S 
ATOM      6  C   UNL     1       8.642  -1.373  24.101  0.00  0.00    +0.149 A 
ATOM      7  S   UNL     1       8.590  -3.094  23.772  0.00  0.00    +0.068 S 
ATOM      8  O   UNL     1       8.064  -3.244  22.437  0.00  0.00    -0.152 OA
ATOM      9  O   UNL     1       9.923  -3.537  24.135  0.00  0.00    -0.152 OA
ATOM     10  N   UNL     1       7.528  -3.664  24.953  0.00  0.00    -0.174 NA
ATOM     11  C   UNL     1       7.747  -3.054  26.317  0.00  0.00    +0.133 C 
ENDROOT
BRANCH   4  12
ATOM     12  S   UNL     1       9.846   2.496  23.274  0.00  0.00    +0.062 S 
ATOM     13  O   UNL     1      11.182   2.574  23.816  0.00  0.00    -0.153 OA
ATOM     14  O   UNL     1       8.839   3.511  23.484  0.00  0.00    -0.153 OA
BRANCH  12  15
ATOM     15  N   UNL     1       9.994   2.235  21.619  0.00  0.00    -0.203 NA
ATOM     16  H   UNL     1      10.785   1.633  21.397  0.00  0.00    +0.144 HD
ATOM     17  H   UNL     1       9.110   1.943  21.201  0.00  0.00    +0.144 HD
ENDBRANCH  12  15
ENDBRANCH   4  12
BRANCH   1  18
ATOM     18  N   UNL     1       6.211  -0.985  26.491  0.00  0.00    -0.308 NA
ATOM     19  H   UNL     1       5.993  -0.495  25.623  0.00  0.00    +0.123 HD
BRANCH  18  21
ATOM     20  C   UNL     1       4.591  -0.219  28.168  0.00  0.00    +0.020 C 
ATOM     21  C   UNL     1       5.994  -0.046  27.597  0.00  0.00    +0.078 C 
ENDBRANCH  18  21
ENDBRANCH   1  18
BRANCH  10  22
ATOM     22  C   UNL     1       6.134  -4.063  24.654  0.00  0.00    +0.112 C 
BRANCH  22  23
ATOM     23  C   UNL     1       5.936  -5.543  24.300  0.00  0.00    +0.045 C 
BRANCH  23  24
ATOM     24  C   UNL     1       4.946  -5.797  23.166  0.00  0.00    +0.161 C 
BRANCH  24  25
ATOM     25  O   UNL     1       5.324  -5.014  22.035  0.00  0.00    -0.383 OA
ATOM     26  C   UNL     1       6.091  -5.780  21.114  0.00  0.00    +0.193 C 
ENDBRANCH  24  25
ENDBRANCH  23  24
ENDBRANCH  22  23
ENDBRANCH  10  22
TORSDOF 8
ENDMDL
