MODEL 1
REMARK VINA RESULT:      -7.3      0.000      0.000
REMARK  Name = 
REMARK  10 active torsions:
REMARK  status: ('A' for Active; 'I' for Inactive)
REMARK    1  A    between atoms: C_1  and  O_2
REMARK    2  A    between atoms: O_2  and  C_3
REMARK    3  A    between atoms: C_5  and  N_6
REMARK    4  A    between atoms: N_6  and  C_7
REMARK    5  A    between atoms: C_7  and  C_8
REMARK    6  A    between atoms: C_9  and  C_10
REMARK    7  A    between atoms: C_22  and  O_23
REMARK    8  A    between atoms: O_23  and  C_24
REMARK    9  A    between atoms: C_25  and  O_26
REMARK   10  A    between atoms: O_26  and  C_27
REMARK                            x       y       z     vdW  Elec       q    Type
REMARK                         _______ _______ _______ _____ _____    ______ ____
ROOT
ATOM      1  C   UNL     1       8.873  -2.799  25.324  0.00  0.00    -0.027 A 
ATOM      2  C   UNL     1       9.677  -3.093  24.216  0.00  0.00    +0.007 A 
ATOM      3  C   UNL     1      10.052  -2.093  23.322  0.00  0.00    +0.029 A 
ATOM      4  C   UNL     1       9.694  -0.770  23.508  0.00  0.00    +0.078 A 
ATOM      5  N   UNL     1      10.099   0.099  22.578  0.00  0.00    -0.215 NA
ATOM      6  C   UNL     1       9.794   1.380  22.756  0.00  0.00    +0.215 A 
ATOM      7  N   UNL     1       9.186   1.873  23.828  0.00  0.00    -0.199 NA
ATOM      8  C   UNL     1       8.774   0.989  24.747  0.00  0.00    +0.129 A 
ATOM      9  N   UNL     1       8.202   1.611  25.861  0.00  0.00    -0.343 N 
ATOM     10  H   UNL     1       7.250   1.308  26.014  0.00  0.00    +0.144 HD
ATOM     11  H   UNL     1       8.228   2.611  25.674  0.00  0.00    +0.144 HD
ATOM     12  N   UNL     1      10.169   2.270  21.772  0.00  0.00    -0.327 N 
ATOM     13  H   UNL     1      10.287   3.190  22.173  0.00  0.00    +0.145 HD
ATOM     14  H   UNL     1      10.941   1.888  21.245  0.00  0.00    +0.145 HD
ATOM     15  C   UNL     1       8.947  -0.410  24.641  0.00  0.00    +0.043 A 
ATOM     16  C   UNL     1       8.487  -1.452  25.538  0.00  0.00    -0.033 A 
ATOM     17  C   UNL     1       7.582  -1.108  26.701  0.00  0.00    +0.045 C 
ENDROOT
BRANCH   1  18
ATOM     18  C   UNL     1       8.448  -3.880  26.303  0.00  0.00    +0.137 C 
BRANCH  18  19
ATOM     19  N   UNL     1       8.027  -5.106  25.640  0.00  0.00    -0.340 N 
ATOM     20  H   UNL     1       8.763  -5.443  25.027  0.00  0.00    +0.146 HD
BRANCH  19  25
ATOM     21  C   UNL     1       4.367  -4.720  25.220  0.00  0.00    +0.167 A 
ATOM     22  C   UNL     1       4.183  -4.928  23.834  0.00  0.00    +0.204 A 
ATOM     23  C   UNL     1       5.320  -5.202  23.047  0.00  0.00    +0.167 A 
ATOM     24  C   UNL     1       6.591  -5.268  23.644  0.00  0.00    +0.072 A 
ATOM     25  C   UNL     1       6.774  -5.127  25.017  0.00  0.00    +0.035 A 
ATOM     26  C   UNL     1       5.649  -4.839  25.783  0.00  0.00    +0.072 A 
BRANCH  21  28
ATOM     27  C   UNL     1       2.682  -5.555  26.675  0.00  0.00    +0.277 C 
ATOM     28  O   UNL     1       3.285  -4.439  26.022  0.00  0.00    -0.491 OA
ENDBRANCH  21  28
BRANCH  22  29
ATOM     29  O   UNL     1       2.991  -4.870  23.163  0.00  0.00    -0.488 OA
ATOM     30  C   UNL     1       2.197  -6.030  22.997  0.00  0.00    +0.277 C 
ENDBRANCH  22  29
BRANCH  23  31
ATOM     31  O   UNL     1       5.409  -5.414  21.692  0.00  0.00    -0.491 OA
ATOM     32  C   UNL     1       6.629  -5.856  21.121  0.00  0.00    +0.277 C 
ENDBRANCH  23  31
ENDBRANCH  19  25
ENDBRANCH  18  19
ENDBRANCH   1  18
TORSDOF 6
ENDMDL
MODEL 2
REMARK VINA RESULT:      -7.2      0.226      2.451
REMARK  Name = 
REMARK  10 active torsions:
REMARK  status: ('A' for Active; 'I' for Inactive)
REMARK    1  A    between atoms: C_1  and  O_2
REMARK    2  A    between atoms: O_2  and  C_3
REMARK    3  A    between atoms: C_5  and  N_6
REMARK    4  A    between atoms: N_6  and  C_7
REMARK    5  A    between atoms: C_7  and  C_8
REMARK    6  A    between atoms: C_9  and  C_10
REMARK    7  A    between atoms: C_22  and  O_23
REMARK    8  A    between atoms: O_23  and  C_24
REMARK    9  A    between atoms: C_25  and  O_26
REMARK   10  A    between atoms: O_26  and  C_27
REMARK                            x       y       z     vdW  Elec       q    Type
REMARK                         _______ _______ _______ _____ _____    ______ ____
ROOT
ATOM      1  C   UNL     1       8.996  -2.752  25.256  0.00  0.00    -0.027 A 
ATOM      2  C   UNL     1       9.791  -3.025  24.136  0.00  0.00    +0.007 A 
ATOM      3  C   UNL     1      10.138  -2.012  23.245  0.00  0.00    +0.029 A 
ATOM      4  C   UNL     1       9.760  -0.697  23.445  0.00  0.00    +0.078 A 
ATOM      5  N   UNL     1      10.139   0.185  22.516  0.00  0.00    -0.215 NA
ATOM      6  C   UNL     1       9.814   1.459  22.707  0.00  0.00    +0.215 A 
ATOM      7  N   UNL     1       9.211   1.934  23.789  0.00  0.00    -0.199 NA
ATOM      8  C   UNL     1       8.826   1.037  24.707  0.00  0.00    +0.129 A 
ATOM      9  N   UNL     1       8.256   1.642  25.833  0.00  0.00    -0.343 N 
ATOM     10  H   UNL     1       7.311   1.322  25.995  0.00  0.00    +0.144 HD
ATOM     11  H   UNL     1       8.263   2.644  25.652  0.00  0.00    +0.144 HD
ATOM     12  N   UNL     1      10.162   2.363  21.725  0.00  0.00    -0.327 N 
ATOM     13  H   UNL     1      10.270   3.282  22.131  0.00  0.00    +0.145 HD
ATOM     14  H   UNL     1      10.934   1.997  21.185  0.00  0.00    +0.145 HD
ATOM     15  C   UNL     1       9.020  -0.358  24.589  0.00  0.00    +0.043 A 
ATOM     16  C   UNL     1       8.589  -1.414  25.484  0.00  0.00    -0.033 A 
ATOM     17  C   UNL     1       7.693  -1.093  26.660  0.00  0.00    +0.045 C 
ENDROOT
BRANCH   1  18
ATOM     18  C   UNL     1       8.602  -3.847  26.232  0.00  0.00    +0.137 C 
BRANCH  18  19
ATOM     19  N   UNL     1       8.034  -5.014  25.571  0.00  0.00    -0.340 N 
ATOM     20  H   UNL     1       8.708  -5.409  24.921  0.00  0.00    +0.146 HD
BRANCH  19  25
ATOM     21  C   UNL     1       5.408  -4.945  22.959  0.00  0.00    +0.167 A 
ATOM     22  C   UNL     1       4.213  -4.895  23.712  0.00  0.00    +0.204 A 
ATOM     23  C   UNL     1       4.314  -4.884  25.119  0.00  0.00    +0.167 A 
ATOM     24  C   UNL     1       5.578  -4.916  25.735  0.00  0.00    +0.072 A 
ATOM     25  C   UNL     1       6.761  -4.902  25.002  0.00  0.00    +0.035 A 
ATOM     26  C   UNL     1       6.651  -4.931  23.615  0.00  0.00    +0.072 A 
BRANCH  21  28
ATOM     27  C   UNL     1       6.313  -5.800  20.934  0.00  0.00    +0.277 C 
ATOM     28  O   UNL     1       5.354  -4.969  21.586  0.00  0.00    -0.491 OA
ENDBRANCH  21  28
BRANCH  22  29
ATOM     29  O   UNL     1       2.943  -4.876  23.205  0.00  0.00    -0.488 OA
ATOM     30  C   UNL     1       2.236  -6.082  22.980  0.00  0.00    +0.277 C 
ENDBRANCH  22  29
BRANCH  23  31
ATOM     31  O   UNL     1       3.315  -4.863  26.062  0.00  0.00    -0.491 OA
ATOM     32  C   UNL     1       2.884  -6.069  26.667  0.00  0.00    +0.277 C 
ENDBRANCH  23  31
ENDBRANCH  19  25
ENDBRANCH  18  19
ENDBRANCH   1  18
TORSDOF 6
ENDMDL
MODEL 3
REMARK VINA RESULT:      -6.8      4.072      8.022
REMARK  Name = 
REMARK  10 active torsions:
REMARK  status: ('A' for Active; 'I' for Inactive)
REMARK    1  A    between atoms: C_1  and  O_2
REMARK    2  A    between atoms: O_2  and  C_3
REMARK    3  A    between atoms: C_5  and  N_6
REMARK    4  A    between atoms: N_6  and  C_7
REMARK    5  A    between atoms: C_7  and  C_8
REMARK    6  A    between atoms: C_9  and  C_10
REMARK    7  A    between atoms: C_22  and  O_23
REMARK    8  A    between atoms: O_23  and  C_24
REMARK    9  A    between atoms: C_25  and  O_26
REMARK   10  A    between atoms: O_26  and  C_27
REMARK                            x       y       z     vdW  Elec       q    Type
REMARK                         _______ _______ _______ _____ _____    ______ ____
ROOT
ATOM      1  C   UNL     1       8.791  -2.077  22.628  0.00  0.00    -0.027 A 
ATOM      2  C   UNL     1       9.930  -2.327  23.401  0.00  0.00    +0.007 A 
ATOM      3  C   UNL     1       9.870  -3.173  24.506  0.00  0.00    +0.029 A 
ATOM      4  C   UNL     1       8.709  -3.835  24.861  0.00  0.00    +0.078 A 
ATOM      5  N   UNL     1       8.767  -4.609  25.948  0.00  0.00    -0.215 NA
ATOM      6  C   UNL     1       7.670  -5.279  26.287  0.00  0.00    +0.215 A 
ATOM      7  N   UNL     1       6.546  -5.301  25.581  0.00  0.00    -0.199 NA
ATOM      8  C   UNL     1       6.498  -4.511  24.500  0.00  0.00    +0.129 A 
ATOM      9  N   UNL     1       5.298  -4.650  23.795  0.00  0.00    -0.343 N 
ATOM     10  H   UNL     1       4.801  -3.773  23.718  0.00  0.00    +0.144 HD
ATOM     11  H   UNL     1       4.741  -5.327  24.312  0.00  0.00    +0.144 HD
ATOM     12  N   UNL     1       7.714  -6.040  27.436  0.00  0.00    -0.327 N 
ATOM     13  H   UNL     1       7.050  -6.798  27.368  0.00  0.00    +0.145 HD
ATOM     14  H   UNL     1       8.672  -6.277  27.650  0.00  0.00    +0.145 HD
ATOM     15  C   UNL     1       7.555  -3.672  24.078  0.00  0.00    +0.043 A 
ATOM     16  C   UNL     1       7.585  -2.737  22.971  0.00  0.00    -0.033 A 
ATOM     17  C   UNL     1       6.325  -2.453  22.182  0.00  0.00    +0.045 C 
ENDROOT
BRANCH   1  18
ATOM     18  C   UNL     1       8.838  -1.150  21.425  0.00  0.00    +0.137 C 
BRANCH  18  19
ATOM     19  N   UNL     1       9.783  -0.055  21.595  0.00  0.00    -0.340 N 
ATOM     20  H   UNL     1      10.615  -0.382  22.079  0.00  0.00    +0.146 HD
BRANCH  19  25
ATOM     21  C   UNL     1       9.847   3.226  23.314  0.00  0.00    +0.167 A 
ATOM     22  C   UNL     1       8.551   3.736  23.072  0.00  0.00    +0.204 A 
ATOM     23  C   UNL     1       7.658   2.949  22.318  0.00  0.00    +0.167 A 
ATOM     24  C   UNL     1       8.061   1.691  21.835  0.00  0.00    +0.072 A 
ATOM     25  C   UNL     1       9.313   1.153  22.121  0.00  0.00    +0.035 A 
ATOM     26  C   UNL     1      10.194   1.946  22.850  0.00  0.00    +0.072 A 
BRANCH  21  28
ATOM     27  C   UNL     1      11.840   4.523  23.296  0.00  0.00    +0.277 C 
ATOM     28  O   UNL     1      10.754   3.967  24.035  0.00  0.00    -0.491 OA
ENDBRANCH  21  28
BRANCH  22  29
ATOM     29  O   UNL     1       8.075   4.950  23.487  0.00  0.00    -0.488 OA
ATOM     30  C   UNL     1       8.250   6.107  22.690  0.00  0.00    +0.277 C 
ENDBRANCH  22  29
BRANCH  23  31
ATOM     31  O   UNL     1       6.368   3.226  21.930  0.00  0.00    -0.491 OA
ATOM     32  C   UNL     1       5.289   2.949  22.806  0.00  0.00    +0.277 C 
ENDBRANCH  23  31
ENDBRANCH  19  25
ENDBRANCH  18  19
ENDBRANCH   1  18
TORSDOF 6
ENDMDL
MODEL 4
REMARK VINA RESULT:      -6.8      2.120      3.762
REMARK  Name = 
REMARK  10 active torsions:
REMARK  status: ('A' for Active; 'I' for Inactive)
REMARK    1  A    between atoms: C_1  and  O_2
REMARK    2  A    between atoms: O_2  and  C_3
REMARK    3  A    between atoms: C_5  and  N_6
REMARK    4  A    between atoms: N_6  and  C_7
REMARK    5  A    between atoms: C_7  and  C_8
REMARK    6  A    between atoms: C_9  and  C_10
REMARK    7  A    between atoms: C_22  and  O_23
REMARK    8  A    between atoms: O_23  and  C_24
REMARK    9  A    between atoms: C_25  and  O_26
REMARK   10  A    between atoms: O_26  and  C_27
REMARK                            x       y       z     vdW  Elec       q    Type
REMARK                         _______ _______ _______ _____ _____    ______ ____
ROOT
ATOM      1  C   UNL     1       8.412  -0.832  24.569  0.00  0.00    -0.027 A 
ATOM      2  C   UNL     1       7.067  -0.721  24.940  0.00  0.00    +0.007 A 
ATOM      3  C   UNL     1       6.289   0.344  24.491  0.00  0.00    +0.029 A 
ATOM      4  C   UNL     1       6.788   1.304  23.630  0.00  0.00    +0.078 A 
ATOM      5  N   UNL     1       5.954   2.287  23.277  0.00  0.00    -0.215 NA
ATOM      6  C   UNL     1       6.404   3.201  22.424  0.00  0.00    +0.215 A 
ATOM      7  N   UNL     1       7.592   3.168  21.833  0.00  0.00    -0.199 NA
ATOM      8  C   UNL     1       8.422   2.184  22.205  0.00  0.00    +0.129 A 
ATOM      9  N   UNL     1       9.621   2.202  21.484  0.00  0.00    -0.343 N 
ATOM     10  H   UNL     1      10.424   2.296  22.090  0.00  0.00    +0.144 HD
ATOM     11  H   UNL     1       9.561   2.997  20.851  0.00  0.00    +0.144 HD
ATOM     12  N   UNL     1       5.561   4.242  22.098  0.00  0.00    -0.327 N 
ATOM     13  H   UNL     1       5.798   4.599  21.183  0.00  0.00    +0.145 HD
ATOM     14  H   UNL     1       4.602   3.965  22.256  0.00  0.00    +0.145 HD
ATOM     15  C   UNL     1       8.111   1.201  23.172  0.00  0.00    +0.043 A 
ATOM     16  C   UNL     1       8.952   0.140  23.691  0.00  0.00    -0.033 A 
ATOM     17  C   UNL     1      10.414   0.073  23.307  0.00  0.00    +0.045 C 
ENDROOT
BRANCH   1  18
ATOM     18  C   UNL     1       9.275  -1.983  25.058  0.00  0.00    +0.137 C 
BRANCH  18  19
ATOM     19  N   UNL     1       9.218  -3.142  24.179  0.00  0.00    -0.340 N 
ATOM     20  H   UNL     1       9.506  -2.884  23.239  0.00  0.00    +0.146 HD
BRANCH  19  25
ATOM     21  C   UNL     1       6.245  -4.909  22.852  0.00  0.00    +0.167 A 
ATOM     22  C   UNL     1       5.781  -5.635  23.973  0.00  0.00    +0.204 A 
ATOM     23  C   UNL     1       6.493  -5.514  25.184  0.00  0.00    +0.167 A 
ATOM     24  C   UNL     1       7.626  -4.684  25.255  0.00  0.00    +0.072 A 
ATOM     25  C   UNL     1       8.053  -3.917  24.176  0.00  0.00    +0.035 A 
ATOM     26  C   UNL     1       7.355  -4.057  22.980  0.00  0.00    +0.072 A 
BRANCH  21  28
ATOM     27  C   UNL     1       6.117  -5.950  20.719  0.00  0.00    +0.277 C 
ATOM     28  O   UNL     1       5.587  -5.008  21.649  0.00  0.00    -0.491 OA
ENDBRANCH  21  28
BRANCH  22  29
ATOM     29  O   UNL     1       4.702  -6.476  23.995  0.00  0.00    -0.488 OA
ATOM     30  C   UNL     1       3.400  -5.975  24.239  0.00  0.00    +0.277 C 
ENDBRANCH  22  29
BRANCH  23  31
ATOM     31  O   UNL     1       6.263  -6.127  26.392  0.00  0.00    -0.491 OA
ATOM     32  C   UNL     1       6.666  -5.496  27.596  0.00  0.00    +0.277 C 
ENDBRANCH  23  31
ENDBRANCH  19  25
ENDBRANCH  18  19
ENDBRANCH   1  18
TORSDOF 6
ENDMDL
MODEL 5
REMARK VINA RESULT:      -6.8      1.528      2.625
REMARK  Name = 
REMARK  10 active torsions:
REMARK  status: ('A' for Active; 'I' for Inactive)
REMARK    1  A    between atoms: C_1  and  O_2
REMARK    2  A    between atoms: O_2  and  C_3
REMARK    3  A    between atoms: C_5  and  N_6
REMARK    4  A    between atoms: N_6  and  C_7
REMARK    5  A    between atoms: C_7  and  C_8
REMARK    6  A    between atoms: C_9  and  C_10
REMARK    7  A    between atoms: C_22  and  O_23
REMARK    8  A    between atoms: O_23  and  C_24
REMARK    9  A    between atoms: C_25  and  O_26
REMARK   10  A    between atoms: O_26  and  C_27
REMARK                            x       y       z     vdW  Elec       q    Type
REMARK                         _______ _______ _______ _____ _____    ______ ____
ROOT
ATOM      1  C   UNL     1       9.150  -1.554  24.381  0.00  0.00    -0.027 A 
ATOM      2  C   UNL     1       8.545  -1.155  25.578  0.00  0.00    +0.007 A 
ATOM      3  C   UNL     1       8.324   0.194  25.850  0.00  0.00    +0.029 A 
ATOM      4  C   UNL     1       8.646   1.187  24.943  0.00  0.00    +0.078 A 
ATOM      5  N   UNL     1       8.402   2.446  25.319  0.00  0.00    -0.215 NA
ATOM      6  C   UNL     1       8.673   3.412  24.448  0.00  0.00    +0.215 A 
ATOM      7  N   UNL     1       9.091   3.217  23.204  0.00  0.00    -0.199 NA
ATOM      8  C   UNL     1       9.343   1.951  22.844  0.00  0.00    +0.129 A 
ATOM      9  N   UNL     1       9.720   1.847  21.501  0.00  0.00    -0.343 N 
ATOM     10  H   UNL     1      10.633   1.425  21.398  0.00  0.00    +0.144 HD
ATOM     11  H   UNL     1       9.725   2.795  21.132  0.00  0.00    +0.144 HD
ATOM     12  N   UNL     1       8.468   4.714  24.853  0.00  0.00    -0.327 N 
ATOM     13  H   UNL     1       8.284   5.296  24.048  0.00  0.00    +0.145 HD
ATOM     14  H   UNL     1       7.796   4.734  25.607  0.00  0.00    +0.145 HD
ATOM     15  C   UNL     1       9.192   0.835  23.698  0.00  0.00    +0.043 A 
ATOM     16  C   UNL     1       9.494  -0.558  23.434  0.00  0.00    -0.033 A 
ATOM     17  C   UNL     1      10.191  -0.954  22.150  0.00  0.00    +0.045 C 
ENDROOT
BRANCH   1  18
ATOM     18  C   UNL     1       9.404  -3.020  24.074  0.00  0.00    +0.137 C 
BRANCH  18  19
ATOM     19  N   UNL     1       8.938  -3.907  25.131  0.00  0.00    -0.340 N 
ATOM     20  H   UNL     1       9.710  -4.465  25.486  0.00  0.00    +0.146 HD
BRANCH  19  25
ATOM     21  C   UNL     1       5.996  -6.039  25.850  0.00  0.00    +0.167 A 
ATOM     22  C   UNL     1       5.351  -6.124  24.595  0.00  0.00    +0.204 A 
ATOM     23  C   UNL     1       5.932  -5.447  23.503  0.00  0.00    +0.167 A 
ATOM     24  C   UNL     1       7.122  -4.719  23.677  0.00  0.00    +0.072 A 
ATOM     25  C   UNL     1       7.798  -4.681  24.893  0.00  0.00    +0.035 A 
ATOM     26  C   UNL     1       7.207  -5.338  25.970  0.00  0.00    +0.072 A 
BRANCH  21  28
ATOM     27  C   UNL     1       4.632  -5.876  27.790  0.00  0.00    +0.277 C 
ATOM     28  O   UNL     1       5.456  -6.675  26.943  0.00  0.00    -0.491 OA
ENDBRANCH  21  28
BRANCH  22  29
ATOM     29  O   UNL     1       4.187  -6.793  24.332  0.00  0.00    -0.488 OA
ATOM     30  C   UNL     1       2.935  -6.140  24.448  0.00  0.00    +0.277 C 
ENDBRANCH  22  29
BRANCH  23  31
ATOM     31  O   UNL     1       5.493  -5.355  22.204  0.00  0.00    -0.491 OA
ATOM     32  C   UNL     1       6.377  -5.642  21.134  0.00  0.00    +0.277 C 
ENDBRANCH  23  31
ENDBRANCH  19  25
ENDBRANCH  18  19
ENDBRANCH   1  18
TORSDOF 6
ENDMDL
MODEL 6
REMARK VINA RESULT:      -6.8      4.099      8.027
REMARK  Name = 
REMARK  10 active torsions:
REMARK  status: ('A' for Active; 'I' for Inactive)
REMARK    1  A    between atoms: C_1  and  O_2
REMARK    2  A    between atoms: O_2  and  C_3
REMARK    3  A    between atoms: C_5  and  N_6
REMARK    4  A    between atoms: N_6  and  C_7
REMARK    5  A    between atoms: C_7  and  C_8
REMARK    6  A    between atoms: C_9  and  C_10
REMARK    7  A    between atoms: C_22  and  O_23
REMARK    8  A    between atoms: O_23  and  C_24
REMARK    9  A    between atoms: C_25  and  O_26
REMARK   10  A    between atoms: O_26  and  C_27
REMARK                            x       y       z     vdW  Elec       q    Type
REMARK                         _______ _______ _______ _____ _____    ______ ____
ROOT
ATOM      1  C   UNL     1       6.786  -2.747  23.576  0.00  0.00    -0.027 A 
ATOM      2  C   UNL     1       5.401  -2.932  23.642  0.00  0.00    +0.007 A 
ATOM      3  C   UNL     1       4.848  -3.883  24.497  0.00  0.00    +0.029 A 
ATOM      4  C   UNL     1       5.628  -4.647  25.346  0.00  0.00    +0.078 A 
ATOM      5  N   UNL     1       4.989  -5.537  26.111  0.00  0.00    -0.215 NA
ATOM      6  C   UNL     1       5.718  -6.258  26.958  0.00  0.00    +0.215 A 
ATOM      7  N   UNL     1       7.020  -6.104  27.159  0.00  0.00    -0.199 NA
ATOM      8  C   UNL     1       7.650  -5.217  26.377  0.00  0.00    +0.129 A 
ATOM      9  N   UNL     1       9.003  -5.086  26.707  0.00  0.00    -0.343 N 
ATOM     10  H   UNL     1       9.605  -5.301  25.924  0.00  0.00    +0.144 HD
ATOM     11  H   UNL     1       9.174  -5.735  27.472  0.00  0.00    +0.144 HD
ATOM     12  N   UNL     1       5.066  -7.210  27.712  0.00  0.00    -0.327 N 
ATOM     13  H   UNL     1       5.575  -7.372  28.569  0.00  0.00    +0.145 HD
ATOM     14  H   UNL     1       4.087  -6.972  27.788  0.00  0.00    +0.145 HD
ATOM     15  C   UNL     1       7.018  -4.451  25.370  0.00  0.00    +0.043 A 
ATOM     16  C   UNL     1       7.611  -3.519  24.432  0.00  0.00    -0.033 A 
ATOM     17  C   UNL     1       9.115  -3.374  24.353  0.00  0.00    +0.045 C 
ENDROOT
BRANCH   1  18
ATOM     18  C   UNL     1       7.404  -1.720  22.643  0.00  0.00    +0.137 C 
BRANCH  18  19
ATOM     19  N   UNL     1       6.693  -0.449  22.654  0.00  0.00    -0.340 N 
ATOM     20  H   UNL     1       6.061  -0.395  21.860  0.00  0.00    +0.146 HD
BRANCH  19  25
ATOM     21  C   UNL     1       7.508   3.164  22.572  0.00  0.00    +0.167 A 
ATOM     22  C   UNL     1       8.743   3.226  23.258  0.00  0.00    +0.204 A 
ATOM     23  C   UNL     1       9.293   2.023  23.746  0.00  0.00    +0.167 A 
ATOM     24  C   UNL     1       8.620   0.806  23.540  0.00  0.00    +0.072 A 
ATOM     25  C   UNL     1       7.436   0.726  22.813  0.00  0.00    +0.035 A 
ATOM     26  C   UNL     1       6.891   1.921  22.351  0.00  0.00    +0.072 A 
BRANCH  21  28
ATOM     27  C   UNL     1       5.836   4.832  22.844  0.00  0.00    +0.277 C 
ATOM     28  O   UNL     1       6.931   4.315  22.090  0.00  0.00    -0.491 OA
ENDBRANCH  21  28
BRANCH  22  29
ATOM     29  O   UNL     1       9.462   4.361  23.518  0.00  0.00    -0.488 OA
ATOM     30  C   UNL     1       9.168   5.160  24.650  0.00  0.00    +0.277 C 
ENDBRANCH  22  29
BRANCH  23  31
ATOM     31  O   UNL     1      10.453   1.822  24.456  0.00  0.00    -0.491 OA
ATOM     32  C   UNL     1      10.870   0.506  24.777  0.00  0.00    +0.277 C 
ENDBRANCH  23  31
ENDBRANCH  19  25
ENDBRANCH  18  19
ENDBRANCH   1  18
TORSDOF 6
ENDMDL
MODEL 7
REMARK VINA RESULT:      -6.8      3.595      7.820
REMARK  Name = 
REMARK  10 active torsions:
REMARK  status: ('A' for Active; 'I' for Inactive)
REMARK    1  A    between atoms: C_1  and  O_2
REMARK    2  A    between atoms: O_2  and  C_3
REMARK    3  A    between atoms: C_5  and  N_6
REMARK    4  A    between atoms: N_6  and  C_7
REMARK    5  A    between atoms: C_7  and  C_8
REMARK    6  A    between atoms: C_9  and  C_10
REMARK    7  A    between atoms: C_22  and  O_23
REMARK    8  A    between atoms: O_23  and  C_24
REMARK    9  A    between atoms: C_25  and  O_26
REMARK   10  A    between atoms: O_26  and  C_27
REMARK                            x       y       z     vdW  Elec       q    Type
REMARK                         _______ _______ _______ _____ _____    ______ ____
ROOT
ATOM      1  C   UNL     1       8.502  -3.705  24.544  0.00  0.00    -0.027 A 
ATOM      2  C   UNL     1       8.608  -4.025  25.903  0.00  0.00    +0.007 A 
ATOM      3  C   UNL     1       7.666  -4.847  26.517  0.00  0.00    +0.029 A 
ATOM      4  C   UNL     1       6.620  -5.417  25.814  0.00  0.00    +0.078 A 
ATOM      5  N   UNL     1       5.771  -6.177  26.512  0.00  0.00    -0.215 NA
ATOM      6  C   UNL     1       4.778  -6.760  25.848  0.00  0.00    +0.215 A 
ATOM      7  N   UNL     1       4.614  -6.712  24.532  0.00  0.00    -0.199 NA
ATOM      8  C   UNL     1       5.466  -5.937  23.846  0.00  0.00    +0.129 A 
ATOM      9  N   UNL     1       5.246  -6.000  22.466  0.00  0.00    -0.343 N 
ATOM     10  H   UNL     1       5.043  -5.091  22.075  0.00  0.00    +0.144 HD
ATOM     11  H   UNL     1       4.455  -6.627  22.332  0.00  0.00    +0.144 HD
ATOM     12  N   UNL     1       3.873  -7.504  26.575  0.00  0.00    -0.327 N 
ATOM     13  H   UNL     1       3.462  -8.213  25.983  0.00  0.00    +0.145 HD
ATOM     14  H   UNL     1       4.298  -7.806  27.440  0.00  0.00    +0.145 HD
ATOM     15  C   UNL     1       6.508  -5.183  24.434  0.00  0.00    +0.043 A 
ATOM     16  C   UNL     1       7.437  -4.271  23.799  0.00  0.00    -0.033 A 
ATOM     17  C   UNL     1       7.269  -3.908  22.340  0.00  0.00    +0.045 C 
ENDROOT
BRANCH   1  18
ATOM     18  C   UNL     1       9.516  -2.803  23.862  0.00  0.00    +0.137 C 
BRANCH  18  19
ATOM     19  N   UNL     1       9.781  -1.584  24.613  0.00  0.00    -0.340 N 
ATOM     20  H   UNL     1       9.547  -1.719  25.593  0.00  0.00    +0.146 HD
BRANCH  19  25
ATOM     21  C   UNL     1       9.761   1.733  22.963  0.00  0.00    +0.167 A 
ATOM     22  C   UNL     1       8.384   2.037  22.880  0.00  0.00    +0.204 A 
ATOM     23  C   UNL     1       7.464   1.100  23.393  0.00  0.00    +0.167 A 
ATOM     24  C   UNL     1       7.925  -0.095  23.973  0.00  0.00    +0.072 A 
ATOM     25  C   UNL     1       9.281  -0.375  24.117  0.00  0.00    +0.035 A 
ATOM     26  C   UNL     1      10.181   0.547  23.591  0.00  0.00    +0.072 A 
BRANCH  21  28
ATOM     27  C   UNL     1      11.261   3.524  23.405  0.00  0.00    +0.277 C 
ATOM     28  O   UNL     1      10.691   2.614  22.464  0.00  0.00    -0.491 OA
ENDBRANCH  21  28
BRANCH  22  29
ATOM     29  O   UNL     1       7.841   3.163  22.322  0.00  0.00    -0.488 OA
ATOM     30  C   UNL     1       7.662   4.338  23.093  0.00  0.00    +0.277 C 
ENDBRANCH  22  29
BRANCH  23  31
ATOM     31  O   UNL     1       6.090   1.149  23.410  0.00  0.00    -0.491 OA
ATOM     32  C   UNL     1       5.413   1.668  24.541  0.00  0.00    +0.277 C 
ENDBRANCH  23  31
ENDBRANCH  19  25
ENDBRANCH  18  19
ENDBRANCH   1  18
TORSDOF 6
ENDMDL
MODEL 8
REMARK VINA RESULT:      -6.7      1.662      2.557
REMARK  Name = 
REMARK  10 active torsions:
REMARK  status: ('A' for Active; 'I' for Inactive)
REMARK    1  A    between atoms: C_1  and  O_2
REMARK    2  A    between atoms: O_2  and  C_3
REMARK    3  A    between atoms: C_5  and  N_6
REMARK    4  A    between atoms: N_6  and  C_7
REMARK    5  A    between atoms: C_7  and  C_8
REMARK    6  A    between atoms: C_9  and  C_10
REMARK    7  A    between atoms: C_22  and  O_23
REMARK    8  A    between atoms: O_23  and  C_24
REMARK    9  A    between atoms: C_25  and  O_26
REMARK   10  A    between atoms: O_26  and  C_27
REMARK                            x       y       z     vdW  Elec       q    Type
REMARK                         _______ _______ _______ _____ _____    ______ ____
ROOT
ATOM      1  C   UNL     1       8.658  -1.993  23.004  0.00  0.00    -0.027 A 
ATOM      2  C   UNL     1       9.300  -1.516  21.855  0.00  0.00    +0.007 A 
ATOM      3  C   UNL     1       9.616  -0.166  21.724  0.00  0.00    +0.029 A 
ATOM      4  C   UNL     1       9.358   0.749  22.728  0.00  0.00    +0.078 A 
ATOM      5  N   UNL     1       9.692   2.020  22.484  0.00  0.00    -0.215 NA
ATOM      6  C   UNL     1       9.483   2.909  23.450  0.00  0.00    +0.215 A 
ATOM      7  N   UNL     1       9.041   2.617  24.667  0.00  0.00    -0.199 NA
ATOM      8  C   UNL     1       8.698   1.341  24.893  0.00  0.00    +0.129 A 
ATOM      9  N   UNL     1       8.304   1.126  26.218  0.00  0.00    -0.343 N 
ATOM     10  H   UNL     1       7.362   0.762  26.277  0.00  0.00    +0.144 HD
ATOM     11  H   UNL     1       8.362   2.030  26.683  0.00  0.00    +0.144 HD
ATOM     12  N   UNL     1       9.782   4.227  23.181  0.00  0.00    -0.327 N 
ATOM     13  H   UNL     1      10.000   4.709  24.042  0.00  0.00    +0.145 HD
ATOM     14  H   UNL     1      10.460   4.277  22.434  0.00  0.00    +0.145 HD
ATOM     15  C   UNL     1       8.778   0.311  23.929  0.00  0.00    +0.043 A 
ATOM     16  C   UNL     1       8.376  -1.077  24.048  0.00  0.00    -0.033 A 
ATOM     17  C   UNL     1       7.643  -1.552  25.283  0.00  0.00    +0.045 C 
ENDROOT
BRANCH   1  18
ATOM     18  C   UNL     1       8.298  -3.460  23.158  0.00  0.00    +0.137 C 
BRANCH  18  19
ATOM     19  N   UNL     1       6.988  -3.780  22.609  0.00  0.00    -0.340 N 
ATOM     20  H   UNL     1       6.482  -2.926  22.392  0.00  0.00    +0.146 HD
BRANCH  19  25
ATOM     21  C   UNL     1       5.780  -5.928  25.375  0.00  0.00    +0.167 A 
ATOM     22  C   UNL     1       4.549  -6.417  24.883  0.00  0.00    +0.204 A 
ATOM     23  C   UNL     1       4.137  -6.006  23.598  0.00  0.00    +0.167 A 
ATOM     24  C   UNL     1       4.946  -5.140  22.842  0.00  0.00    +0.072 A 
ATOM     25  C   UNL     1       6.189  -4.704  23.292  0.00  0.00    +0.035 A 
ATOM     26  C   UNL     1       6.579  -5.100  24.568  0.00  0.00    +0.072 A 
BRANCH  21  28
ATOM     27  C   UNL     1       6.993  -5.329  27.330  0.00  0.00    +0.277 C 
ATOM     28  O   UNL     1       6.214  -6.296  26.627  0.00  0.00    -0.491 OA
ENDBRANCH  21  28
BRANCH  22  29
ATOM     29  O   UNL     1       3.690  -7.249  25.548  0.00  0.00    -0.488 OA
ATOM     30  C   UNL     1       2.782  -6.734  26.506  0.00  0.00    +0.277 C 
ENDBRANCH  22  29
BRANCH  23  31
ATOM     31  O   UNL     1       2.986  -6.316  22.913  0.00  0.00    -0.491 OA
ATOM     32  C   UNL     1       1.814  -5.544  23.108  0.00  0.00    +0.277 C 
ENDBRANCH  23  31
ENDBRANCH  19  25
ENDBRANCH  18  19
ENDBRANCH   1  18
TORSDOF 6
ENDMDL
MODEL 9
REMARK VINA RESULT:      -6.7      2.161      3.841
REMARK  Name = 
REMARK  10 active torsions:
REMARK  status: ('A' for Active; 'I' for Inactive)
REMARK    1  A    between atoms: C_1  and  O_2
REMARK    2  A    between atoms: O_2  and  C_3
REMARK    3  A    between atoms: C_5  and  N_6
REMARK    4  A    between atoms: N_6  and  C_7
REMARK    5  A    between atoms: C_7  and  C_8
REMARK    6  A    between atoms: C_9  and  C_10
REMARK    7  A    between atoms: C_22  and  O_23
REMARK    8  A    between atoms: O_23  and  C_24
REMARK    9  A    between atoms: C_25  and  O_26
REMARK   10  A    between atoms: O_26  and  C_27
REMARK                            x       y       z     vdW  Elec       q    Type
REMARK                         _______ _______ _______ _____ _____    ______ ____
ROOT
ATOM      1  C   UNL     1       9.484  -0.014  23.229  0.00  0.00    -0.027 A 
ATOM      2  C   UNL     1       9.443   0.368  21.884  0.00  0.00    +0.007 A 
ATOM      3  C   UNL     1       8.769   1.523  21.491  0.00  0.00    +0.029 A 
ATOM      4  C   UNL     1       8.157   2.361  22.404  0.00  0.00    +0.078 A 
ATOM      5  N   UNL     1       7.529   3.432  21.911  0.00  0.00    -0.215 NA
ATOM      6  C   UNL     1       6.963   4.268  22.775  0.00  0.00    +0.215 A 
ATOM      7  N   UNL     1       7.043   4.163  24.095  0.00  0.00    -0.199 NA
ATOM      8  C   UNL     1       7.665   3.078  24.577  0.00  0.00    +0.129 A 
ATOM      9  N   UNL     1       7.749   3.091  25.973  0.00  0.00    -0.343 N 
ATOM     10  H   UNL     1       7.304   2.282  26.385  0.00  0.00    +0.144 HD
ATOM     11  H   UNL     1       7.282   3.943  26.278  0.00  0.00    +0.144 HD
ATOM     12  N   UNL     1       6.274   5.347  22.264  0.00  0.00    -0.327 N 
ATOM     13  H   UNL     1       6.270   6.100  22.938  0.00  0.00    +0.145 HD
ATOM     14  H   UNL     1       6.609   5.555  21.334  0.00  0.00    +0.145 HD
ATOM     15  C   UNL     1       8.229   2.060  23.774  0.00  0.00    +0.043 A 
ATOM     16  C   UNL     1       8.861   0.823  24.188  0.00  0.00    -0.033 A 
ATOM     17  C   UNL     1       8.850   0.415  25.645  0.00  0.00    +0.045 C 
ENDROOT
BRANCH   1  18
ATOM     18  C   UNL     1      10.207  -1.275  23.672  0.00  0.00    +0.137 C 
BRANCH  18  19
ATOM     19  N   UNL     1       9.732  -2.468  22.985  0.00  0.00    -0.340 N 
ATOM     20  H   UNL     1       9.773  -2.331  21.978  0.00  0.00    +0.146 HD
BRANCH  19  25
ATOM     21  C   UNL     1       6.452  -4.168  22.720  0.00  0.00    +0.167 A 
ATOM     22  C   UNL     1       6.093  -4.378  24.071  0.00  0.00    +0.204 A 
ATOM     23  C   UNL     1       6.982  -3.933  25.071  0.00  0.00    +0.167 A 
ATOM     24  C   UNL     1       8.182  -3.294  24.713  0.00  0.00    +0.072 A 
ATOM     25  C   UNL     1       8.514  -3.027  23.388  0.00  0.00    +0.035 A 
ATOM     26  C   UNL     1       7.640  -3.486  22.408  0.00  0.00    +0.072 A 
BRANCH  21  28
ATOM     27  C   UNL     1       6.110  -5.665  20.904  0.00  0.00    +0.277 C 
ATOM     28  O   UNL     1       5.618  -4.598  21.714  0.00  0.00    -0.491 OA
ENDBRANCH  21  28
BRANCH  22  29
ATOM     29  O   UNL     1       4.958  -5.000  24.515  0.00  0.00    -0.488 OA
ATOM     30  C   UNL     1       4.880  -6.414  24.563  0.00  0.00    +0.277 C 
ENDBRANCH  22  29
BRANCH  23  31
ATOM     31  O   UNL     1       6.877  -4.038  26.437  0.00  0.00    -0.491 OA
ATOM     32  C   UNL     1       7.391  -5.179  27.103  0.00  0.00    +0.277 C 
ENDBRANCH  23  31
ENDBRANCH  19  25
ENDBRANCH  18  19
ENDBRANCH   1  18
TORSDOF 6
ENDMDL
