MODEL 1
REMARK VINA RESULT:      -5.2      0.000      0.000
REMARK  Name = 
REMARK  3 active torsions:
REMARK  status: ('A' for Active; 'I' for Inactive)
REMARK    1  A    between atoms: C_1  and  N_2
REMARK    2  A    between atoms: N_4  and  C_5
REMARK    3  A    between atoms: C_12  and  O_13
REMARK                            x       y       z     vdW  Elec       q    Type
REMARK                         _______ _______ _______ _____ _____    ______ ____
ROOT
ATOM      1  C   UNL     1      10.260  -1.249  22.734  0.00  0.00    +0.156 C 
ATOM      2  N   UNL     1       9.070  -2.070  22.847  0.00  0.00    -0.277 N 
ATOM      3  C   UNL     1       8.962  -3.194  23.636  0.00  0.00    +0.219 A 
ATOM      4  N   UNL     1       9.924  -3.732  24.447  0.00  0.00    -0.190 NA
ATOM      5  C   UNL     1       9.489  -4.819  25.111  0.00  0.00    +0.218 A 
ATOM      6  N   UNL     1       8.264  -5.388  24.997  0.00  0.00    -0.174 NA
ATOM      7  C   UNL     1       7.355  -4.820  24.179  0.00  0.00    +0.293 A 
ATOM      8  N   UNL     1      10.350  -5.394  26.007  0.00  0.00    -0.327 N 
ATOM      9  H   UNL     1      10.112  -6.334  26.290  0.00  0.00    +0.145 HD
ATOM     10  H   UNL     1      11.325  -5.156  25.898  0.00  0.00    +0.145 HD
ATOM     11  C   UNL     1       7.680  -3.680  23.467  0.00  0.00    +0.313 A 
ATOM     12  N   UNL     1       7.041  -2.822  22.576  0.00  0.00    -0.178 N 
ATOM     13  C   UNL     1       5.663  -2.949  22.125  0.00  0.00    +0.441 C 
ATOM     14  C   UNL     1       7.904  -1.857  22.222  0.00  0.00    +0.410 A 
ENDROOT
BRANCH   7  15
ATOM     15  O   UNL     1       6.133  -5.425  24.118  0.00  0.00    -0.488 OA
ATOM     16  H   UNL     1       6.355  -6.297  23.738  0.00  0.00    +0.294 HD
ENDBRANCH   7  15
TORSDOF 1
ENDMDL
MODEL 2
REMARK VINA RESULT:      -5.2      2.568      4.042
REMARK  Name = 
REMARK  3 active torsions:
REMARK  status: ('A' for Active; 'I' for Inactive)
REMARK    1  A    between atoms: C_1  and  N_2
REMARK    2  A    between atoms: N_4  and  C_5
REMARK    3  A    between atoms: C_12  and  O_13
REMARK                            x       y       z     vdW  Elec       q    Type
REMARK                         _______ _______ _______ _____ _____    ______ ____
ROOT
ATOM      1  C   UNL     1       4.865  -4.731  22.896  0.00  0.00    +0.156 C 
ATOM      2  N   UNL     1       6.071  -4.562  23.684  0.00  0.00    -0.277 N 
ATOM      3  C   UNL     1       6.277  -5.106  24.932  0.00  0.00    +0.219 A 
ATOM      4  N   UNL     1       5.414  -5.894  25.646  0.00  0.00    -0.190 NA
ATOM      5  C   UNL     1       5.932  -6.290  26.823  0.00  0.00    +0.218 A 
ATOM      6  N   UNL     1       7.146  -5.944  27.319  0.00  0.00    -0.174 NA
ATOM      7  C   UNL     1       7.954  -5.162  26.577  0.00  0.00    +0.293 A 
ATOM      8  N   UNL     1       5.179  -7.143  27.585  0.00  0.00    -0.327 N 
ATOM      9  H   UNL     1       5.458  -7.215  28.554  0.00  0.00    +0.145 HD
ATOM     10  H   UNL     1       4.196  -7.181  27.363  0.00  0.00    +0.145 HD
ATOM     11  C   UNL     1       7.540  -4.717  25.334  0.00  0.00    +0.313 A 
ATOM     12  N   UNL     1       8.070  -3.946  24.303  0.00  0.00    -0.178 N 
ATOM     13  C   UNL     1       9.392  -3.341  24.297  0.00  0.00    +0.441 C 
ATOM     14  C   UNL     1       7.161  -3.874  23.317  0.00  0.00    +0.410 A 
ENDROOT
BRANCH   7  15
ATOM     15  O   UNL     1       9.171  -4.861  27.118  0.00  0.00    -0.488 OA
ATOM     16  H   UNL     1       8.973  -4.853  28.075  0.00  0.00    +0.294 HD
ENDBRANCH   7  15
TORSDOF 1
ENDMDL
MODEL 3
REMARK VINA RESULT:      -5.1      2.375      4.019
REMARK  Name = 
REMARK  3 active torsions:
REMARK  status: ('A' for Active; 'I' for Inactive)
REMARK    1  A    between atoms: C_1  and  N_2
REMARK    2  A    between atoms: N_4  and  C_5
REMARK    3  A    between atoms: C_12  and  O_13
REMARK                            x       y       z     vdW  Elec       q    Type
REMARK                         _______ _______ _______ _____ _____    ______ ____
ROOT
ATOM      1  C   UNL     1       5.338  -6.385  27.709  0.00  0.00    +0.156 C 
ATOM      2  N   UNL     1       5.474  -5.859  26.364  0.00  0.00    -0.277 N 
ATOM      3  C   UNL     1       6.672  -5.554  25.756  0.00  0.00    +0.219 A 
ATOM      4  N   UNL     1       7.928  -5.689  26.285  0.00  0.00    -0.190 NA
ATOM      5  C   UNL     1       8.893  -5.330  25.418  0.00  0.00    +0.218 A 
ATOM      6  N   UNL     1       8.703  -4.840  24.168  0.00  0.00    -0.174 NA
ATOM      7  C   UNL     1       7.445  -4.722  23.699  0.00  0.00    +0.293 A 
ATOM      8  N   UNL     1      10.191  -5.496  25.820  0.00  0.00    -0.327 N 
ATOM      9  H   UNL     1      10.877  -4.988  25.280  0.00  0.00    +0.145 HD
ATOM     10  H   UNL     1      10.336  -5.591  26.815  0.00  0.00    +0.145 HD
ATOM     11  C   UNL     1       6.371  -5.090  24.490  0.00  0.00    +0.313 A 
ATOM     12  N   UNL     1       4.985  -5.136  24.365  0.00  0.00    -0.178 N 
ATOM     13  C   UNL     1       4.233  -4.751  23.181  0.00  0.00    +0.441 C 
ATOM     14  C   UNL     1       4.471  -5.609  25.511  0.00  0.00    +0.410 A 
ENDROOT
BRANCH   7  15
ATOM     15  O   UNL     1       7.315  -4.242  22.427  0.00  0.00    -0.488 OA
ATOM     16  H   UNL     1       8.217  -4.358  22.072  0.00  0.00    +0.294 HD
ENDBRANCH   7  15
TORSDOF 1
ENDMDL
MODEL 4
REMARK VINA RESULT:      -4.9      3.359      5.339
REMARK  Name = 
REMARK  3 active torsions:
REMARK  status: ('A' for Active; 'I' for Inactive)
REMARK    1  A    between atoms: C_1  and  N_2
REMARK    2  A    between atoms: N_4  and  C_5
REMARK    3  A    between atoms: C_12  and  O_13
REMARK                            x       y       z     vdW  Elec       q    Type
REMARK                         _______ _______ _______ _____ _____    ______ ____
ROOT
ATOM      1  C   UNL     1       7.452   0.660  26.358  0.00  0.00    +0.156 C 
ATOM      2  N   UNL     1       8.136  -0.202  25.414  0.00  0.00    -0.277 N 
ATOM      3  C   UNL     1       8.568   0.185  24.165  0.00  0.00    +0.219 A 
ATOM      4  N   UNL     1       8.445   1.423  23.593  0.00  0.00    -0.190 NA
ATOM      5  C   UNL     1       9.002   1.482  22.368  0.00  0.00    +0.218 A 
ATOM      6  N   UNL     1       9.591   0.454  21.708  0.00  0.00    -0.174 NA
ATOM      7  C   UNL     1       9.680  -0.746  22.316  0.00  0.00    +0.293 A 
ATOM      8  N   UNL     1       9.000   2.696  21.736  0.00  0.00    -0.327 N 
ATOM      9  H   UNL     1       9.176   2.663  20.741  0.00  0.00    +0.145 HD
ATOM     10  H   UNL     1       8.341   3.375  22.086  0.00  0.00    +0.145 HD
ATOM     11  C   UNL     1       9.169  -0.918  23.590  0.00  0.00    +0.313 A 
ATOM     12  N   UNL     1       9.088  -1.950  24.521  0.00  0.00    -0.178 N 
ATOM     13  C   UNL     1       9.613  -3.294  24.337  0.00  0.00    +0.441 C 
ATOM     14  C   UNL     1       8.464  -1.487  25.615  0.00  0.00    +0.410 A 
ENDROOT
BRANCH   7  15
ATOM     15  O   UNL     1      10.300  -1.737  21.612  0.00  0.00    -0.488 OA
ATOM     16  H   UNL     1       9.904  -2.542  22.000  0.00  0.00    +0.294 HD
ENDBRANCH   7  15
TORSDOF 1
ENDMDL
MODEL 5
REMARK VINA RESULT:      -4.9      2.597      3.793
REMARK  Name = 
REMARK  3 active torsions:
REMARK  status: ('A' for Active; 'I' for Inactive)
REMARK    1  A    between atoms: C_1  and  N_2
REMARK    2  A    between atoms: N_4  and  C_5
REMARK    3  A    between atoms: C_12  and  O_13
REMARK                            x       y       z     vdW  Elec       q    Type
REMARK                         _______ _______ _______ _____ _____    ______ ____
ROOT
ATOM      1  C   UNL     1       8.831  -4.297  26.217  0.00  0.00    +0.156 C 
ATOM      2  N   UNL     1       7.889  -4.646  25.172  0.00  0.00    -0.277 N 
ATOM      3  C   UNL     1       6.760  -5.415  25.354  0.00  0.00    +0.219 A 
ATOM      4  N   UNL     1       6.319  -5.974  26.524  0.00  0.00    -0.190 NA
ATOM      5  C   UNL     1       5.161  -6.642  26.370  0.00  0.00    +0.218 A 
ATOM      6  N   UNL     1       4.486  -6.814  25.207  0.00  0.00    -0.174 NA
ATOM      7  C   UNL     1       4.968  -6.247  24.083  0.00  0.00    +0.293 A 
ATOM      8  N   UNL     1       4.592  -7.179  27.493  0.00  0.00    -0.327 N 
ATOM      9  H   UNL     1       3.887  -7.883  27.325  0.00  0.00    +0.145 HD
ATOM     10  H   UNL     1       5.206  -7.293  28.287  0.00  0.00    +0.145 HD
ATOM     11  C   UNL     1       6.137  -5.509  24.125  0.00  0.00    +0.313 A 
ATOM     12  N   UNL     1       6.912  -4.781  23.226  0.00  0.00    -0.178 N 
ATOM     13  C   UNL     1       6.616  -4.598  21.814  0.00  0.00    +0.441 C 
ATOM     14  C   UNL     1       7.961  -4.268  23.888  0.00  0.00    +0.410 A 
ENDROOT
BRANCH   7  15
ATOM     15  O   UNL     1       4.237  -6.437  22.946  0.00  0.00    -0.488 OA
ATOM     16  H   UNL     1       3.414  -6.830  23.296  0.00  0.00    +0.294 HD
ENDBRANCH   7  15
TORSDOF 1
ENDMDL
MODEL 6
REMARK VINA RESULT:      -4.9      2.189      2.973
REMARK  Name = 
REMARK  3 active torsions:
REMARK  status: ('A' for Active; 'I' for Inactive)
REMARK    1  A    between atoms: C_1  and  N_2
REMARK    2  A    between atoms: N_4  and  C_5
REMARK    3  A    between atoms: C_12  and  O_13
REMARK                            x       y       z     vdW  Elec       q    Type
REMARK                         _______ _______ _______ _____ _____    ______ ____
ROOT
ATOM      1  C   UNL     1       7.196  -5.211  21.944  0.00  0.00    +0.156 C 
ATOM      2  N   UNL     1       7.566  -4.083  22.776  0.00  0.00    -0.277 N 
ATOM      3  C   UNL     1       7.760  -4.141  24.139  0.00  0.00    +0.219 A 
ATOM      4  N   UNL     1       7.652  -5.242  24.945  0.00  0.00    -0.190 NA
ATOM      5  C   UNL     1       7.937  -4.968  26.231  0.00  0.00    +0.218 A 
ATOM      6  N   UNL     1       8.258  -3.752  26.738  0.00  0.00    -0.174 NA
ATOM      7  C   UNL     1       8.345  -2.699  25.900  0.00  0.00    +0.293 A 
ATOM      8  N   UNL     1       7.931  -6.016  27.112  0.00  0.00    -0.327 N 
ATOM      9  H   UNL     1       7.886  -5.758  28.088  0.00  0.00    +0.145 HD
ATOM     10  H   UNL     1       7.439  -6.844  26.810  0.00  0.00    +0.145 HD
ATOM     11  C   UNL     1       8.102  -2.867  24.548  0.00  0.00    +0.313 A 
ATOM     12  N   UNL     1       8.112  -2.068  23.408  0.00  0.00    -0.178 N 
ATOM     13  C   UNL     1       8.438  -0.650  23.375  0.00  0.00    +0.441 C 
ATOM     14  C   UNL     1       7.789  -2.831  22.352  0.00  0.00    +0.410 A 
ENDROOT
BRANCH   7  15
ATOM     15  O   UNL     1       8.689  -1.504  26.462  0.00  0.00    -0.488 OA
ATOM     16  H   UNL     1       8.154  -0.872  25.943  0.00  0.00    +0.294 HD
ENDBRANCH   7  15
TORSDOF 1
ENDMDL
MODEL 7
REMARK VINA RESULT:      -4.9      2.737      3.513
REMARK  Name = 
REMARK  3 active torsions:
REMARK  status: ('A' for Active; 'I' for Inactive)
REMARK    1  A    between atoms: C_1  and  N_2
REMARK    2  A    between atoms: N_4  and  C_5
REMARK    3  A    between atoms: C_12  and  O_13
REMARK                            x       y       z     vdW  Elec       q    Type
REMARK                         _______ _______ _______ _____ _____    ______ ____
ROOT
ATOM      1  C   UNL     1       6.215  -1.059  26.545  0.00  0.00    +0.156 C 
ATOM      2  N   UNL     1       7.265  -1.849  25.930  0.00  0.00    -0.277 N 
ATOM      3  C   UNL     1       7.521  -3.173  26.213  0.00  0.00    +0.219 A 
ATOM      4  N   UNL     1       6.851  -3.976  27.096  0.00  0.00    -0.190 NA
ATOM      5  C   UNL     1       7.332  -5.233  27.116  0.00  0.00    +0.218 A 
ATOM      6  N   UNL     1       8.385  -5.697  26.399  0.00  0.00    -0.174 NA
ATOM      7  C   UNL     1       9.013  -4.862  25.547  0.00  0.00    +0.293 A 
ATOM      8  N   UNL     1       6.686  -6.140  27.912  0.00  0.00    -0.327 N 
ATOM      9  H   UNL     1       7.205  -6.983  28.114  0.00  0.00    +0.145 HD
ATOM     10  H   UNL     1       6.098  -5.752  28.635  0.00  0.00    +0.145 HD
ATOM     11  C   UNL     1       8.587  -3.552  25.420  0.00  0.00    +0.313 A 
ATOM     12  N   UNL     1       8.944  -2.436  24.668  0.00  0.00    -0.178 N 
ATOM     13  C   UNL     1      10.013  -2.391  23.683  0.00  0.00    +0.441 C 
ATOM     14  C   UNL     1       8.124  -1.424  24.994  0.00  0.00    +0.410 A 
ENDROOT
BRANCH   7  15
ATOM     15  O   UNL     1      10.053  -5.388  24.838  0.00  0.00    -0.488 OA
ATOM     16  H   UNL     1      10.386  -6.078  25.445  0.00  0.00    +0.294 HD
ENDBRANCH   7  15
TORSDOF 1
ENDMDL
MODEL 8
REMARK VINA RESULT:      -4.8      3.081      4.014
REMARK  Name = 
REMARK  3 active torsions:
REMARK  status: ('A' for Active; 'I' for Inactive)
REMARK    1  A    between atoms: C_1  and  N_2
REMARK    2  A    between atoms: N_4  and  C_5
REMARK    3  A    between atoms: C_12  and  O_13
REMARK                            x       y       z     vdW  Elec       q    Type
REMARK                         _______ _______ _______ _____ _____    ______ ____
ROOT
ATOM      1  C   UNL     1       7.549   0.737  26.358  0.00  0.00    +0.156 C 
ATOM      2  N   UNL     1       8.309   0.481  25.150  0.00  0.00    -0.277 N 
ATOM      3  C   UNL     1       8.788  -0.753  24.769  0.00  0.00    +0.219 A 
ATOM      4  N   UNL     1       8.639  -1.941  25.432  0.00  0.00    -0.190 NA
ATOM      5  C   UNL     1       9.202  -2.972  24.776  0.00  0.00    +0.218 A 
ATOM      6  N   UNL     1       9.890  -2.897  23.610  0.00  0.00    -0.174 NA
ATOM      7  C   UNL     1      10.012  -1.701  23.001  0.00  0.00    +0.293 A 
ATOM      8  N   UNL     1       9.047  -4.220  25.316  0.00  0.00    -0.327 N 
ATOM      9  H   UNL     1       9.682  -4.924  24.964  0.00  0.00    +0.145 HD
ATOM     10  H   UNL     1       8.788  -4.250  26.291  0.00  0.00    +0.145 HD
ATOM     11  C   UNL     1       9.447  -0.572  23.568  0.00  0.00    +0.313 A 
ATOM     12  N   UNL     1       9.340   0.779  23.251  0.00  0.00    -0.178 N 
ATOM     13  C   UNL     1       9.880   1.410  22.057  0.00  0.00    +0.441 C 
ATOM     14  C   UNL     1       8.643   1.389  24.223  0.00  0.00    +0.410 A 
ENDROOT
BRANCH   7  15
ATOM     15  O   UNL     1      10.698  -1.688  21.821  0.00  0.00    -0.488 OA
ATOM     16  H   UNL     1      10.013  -1.394  21.189  0.00  0.00    +0.294 HD
ENDBRANCH   7  15
TORSDOF 1
ENDMDL
MODEL 9
REMARK VINA RESULT:      -4.7      2.095      3.642
REMARK  Name = 
REMARK  3 active torsions:
REMARK  status: ('A' for Active; 'I' for Inactive)
REMARK    1  A    between atoms: C_1  and  N_2
REMARK    2  A    between atoms: N_4  and  C_5
REMARK    3  A    between atoms: C_12  and  O_13
REMARK                            x       y       z     vdW  Elec       q    Type
REMARK                         _______ _______ _______ _____ _____    ______ ____
ROOT
ATOM      1  C   UNL     1       5.129  -3.695  22.383  0.00  0.00    +0.156 C 
ATOM      2  N   UNL     1       5.578  -4.394  23.571  0.00  0.00    -0.277 N 
ATOM      3  C   UNL     1       6.847  -4.312  24.100  0.00  0.00    +0.219 A 
ATOM      4  N   UNL     1       7.896  -3.571  23.625  0.00  0.00    -0.190 NA
ATOM      5  C   UNL     1       8.996  -3.686  24.392  0.00  0.00    +0.218 A 
ATOM      6  N   UNL     1       9.124  -4.465  25.494  0.00  0.00    -0.174 NA
ATOM      7  C   UNL     1       8.062  -5.179  25.915  0.00  0.00    +0.293 A 
ATOM      8  N   UNL     1      10.083  -2.928  24.048  0.00  0.00    -0.327 N 
ATOM      9  H   UNL     1      10.958  -3.217  24.461  0.00  0.00    +0.145 HD
ATOM     10  H   UNL     1      10.091  -2.571  23.103  0.00  0.00    +0.145 HD
ATOM     11  C   UNL     1       6.865  -5.117  25.222  0.00  0.00    +0.313 A 
ATOM     12  N   UNL     1       5.591  -5.663  25.345  0.00  0.00    -0.178 N 
ATOM     13  C   UNL     1       5.158  -6.562  26.403  0.00  0.00    +0.441 C 
ATOM     14  C   UNL     1       4.833  -5.205  24.336  0.00  0.00    +0.410 A 
ENDROOT
BRANCH   7  15
ATOM     15  O   UNL     1       8.243  -5.930  27.040  0.00  0.00    -0.488 OA
ATOM     16  H   UNL     1       7.664  -5.477  27.684  0.00  0.00    +0.294 HD
ENDBRANCH   7  15
TORSDOF 1
ENDMDL
