MODEL 1
REMARK VINA RESULT:      -6.2      0.000      0.000
REMARK  Name = 
REMARK  12 active torsions:
REMARK  status: ('A' for Active; 'I' for Inactive)
REMARK    1  A    between atoms: C_1  and  C_2
REMARK    2  A    between atoms: C_2  and  C_3
REMARK    3  A    between atoms: C_2  and  C_4
REMARK    4  A    between atoms: C_2  and  N_5
REMARK    5  A    between atoms: N_5  and  C_6
REMARK    6  A    between atoms: C_6  and  C_7
REMARK    7  A    between atoms: C_7  and  O_8
REMARK    8  A    between atoms: C_7  and  C_9
REMARK    9  A    between atoms: C_9  and  S_10
REMARK   10  A    between atoms: S_10  and  C_11
REMARK   11  A    between atoms: C_13  and  C_16
REMARK   12  A    between atoms: C_19  and  C_21
REMARK                            x       y       z     vdW  Elec       q    Type
REMARK                         _______ _______ _______ _____ _____    ______ ____
ROOT
ATOM      1  C   UNL     1       6.855  -4.040  25.953  0.00  0.00    +0.135 A 
ATOM      2  S   UNL     1       8.359  -4.754  26.348  0.00  0.00    -0.069 S 
ATOM      3  C   UNL     1       9.126  -3.684  25.255  0.00  0.00    +0.076 A 
ATOM      4  C   UNL     1       8.195  -2.840  24.682  0.00  0.00    +0.086 A 
ATOM      5  N   UNL     1       6.891  -3.040  25.099  0.00  0.00    -0.232 NA
ENDROOT
BRANCH   4   6
ATOM      6  C   UNL     1       8.545  -1.809  23.650  0.00  0.00    +0.039 A 
ATOM      7  S   UNL     1       7.906  -0.229  23.644  0.00  0.00    -0.082 S 
ATOM      8  C   UNL     1       8.854   0.240  22.302  0.00  0.00    +0.074 A 
ATOM      9  C   UNL     1       9.604  -0.819  21.829  0.00  0.00    +0.021 A 
ATOM     10  C   UNL     1       9.429  -2.006  22.613  0.00  0.00    +0.018 A 
BRANCH   8  11
ATOM     11  C   UNL     1       8.816   1.601  21.793  0.00  0.00    +0.248 C 
ATOM     12  O   UNL     1       7.790   2.185  21.468  0.00  0.00    -0.270 OA
ATOM     13  N   UNL     1      10.021   2.238  21.664  0.00  0.00    -0.325 N 
ATOM     14  H   UNL     1      10.033   3.176  21.288  0.00  0.00    +0.145 HD
ATOM     15  H   UNL     1      10.889   1.784  21.905  0.00  0.00    +0.145 HD
ENDBRANCH   8  11
ENDBRANCH   4   6
BRANCH   1  16
ATOM     16  S   UNL     1       5.345  -4.649  26.593  0.00  0.00    -0.096 S 
BRANCH  16  17
ATOM     17  C   UNL     1       5.335  -6.272  25.776  0.00  0.00    +0.109 C 
BRANCH  17  18
ATOM     18  C   UNL     1       4.198  -6.406  24.756  0.00  0.00    +0.138 C 
BRANCH  18  19
ATOM     19  O   UNL     1       4.226  -7.685  24.103  0.00  0.00    -0.390 OA
ATOM     20  H   UNL     1       3.310  -7.957  23.924  0.00  0.00    +0.210 HD
ENDBRANCH  18  19
BRANCH  18  21
ATOM     21  C   UNL     1       4.369  -5.297  23.695  0.00  0.00    +0.113 C 
BRANCH  21  22
ATOM     22  N   UNL     1       4.770  -5.852  22.400  0.00  0.00    -0.309 NA
ATOM     23  H   UNL     1       4.820  -6.871  22.488  0.00  0.00    +0.123 HD
BRANCH  22  25
ATOM     24  C   UNL     1       7.257  -5.736  22.632  0.00  0.00    +0.027 C 
ATOM     25  C   UNL     1       6.015  -5.310  21.831  0.00  0.00    +0.011 C 
ATOM     26  C   UNL     1       6.140  -5.881  20.406  0.00  0.00    +0.027 C 
ATOM     27  C   UNL     1       5.953  -3.775  21.731  0.00  0.00    +0.027 C 
ENDBRANCH  22  25
ENDBRANCH  21  22
ENDBRANCH  18  21
ENDBRANCH  17  18
ENDBRANCH  16  17
ENDBRANCH   1  16
TORSDOF 9
ENDMDL
MODEL 2
REMARK VINA RESULT:      -5.9      2.390      7.519
REMARK  Name = 
REMARK  12 active torsions:
REMARK  status: ('A' for Active; 'I' for Inactive)
REMARK    1  A    between atoms: C_1  and  C_2
REMARK    2  A    between atoms: C_2  and  C_3
REMARK    3  A    between atoms: C_2  and  C_4
REMARK    4  A    between atoms: C_2  and  N_5
REMARK    5  A    between atoms: N_5  and  C_6
REMARK    6  A    between atoms: C_6  and  C_7
REMARK    7  A    between atoms: C_7  and  O_8
REMARK    8  A    between atoms: C_7  and  C_9
REMARK    9  A    between atoms: C_9  and  S_10
REMARK   10  A    between atoms: S_10  and  C_11
REMARK   11  A    between atoms: C_13  and  C_16
REMARK   12  A    between atoms: C_19  and  C_21
REMARK                            x       y       z     vdW  Elec       q    Type
REMARK                         _______ _______ _______ _____ _____    ______ ____
ROOT
ATOM      1  C   UNL     1       8.509  -3.855  24.848  0.00  0.00    +0.135 A 
ATOM      2  S   UNL     1       8.928  -4.591  26.334  0.00  0.00    -0.069 S 
ATOM      3  C   UNL     1       7.461  -5.471  26.284  0.00  0.00    +0.076 A 
ATOM      4  C   UNL     1       6.763  -5.167  25.132  0.00  0.00    +0.086 A 
ATOM      5  N   UNL     1       7.378  -4.247  24.302  0.00  0.00    -0.232 NA
ENDROOT
BRANCH   4   6
ATOM      6  C   UNL     1       5.417  -5.745  24.810  0.00  0.00    +0.039 A 
ATOM      7  S   UNL     1       4.518  -5.323  23.425  0.00  0.00    -0.082 S 
ATOM      8  C   UNL     1       3.281  -6.447  23.782  0.00  0.00    +0.074 A 
ATOM      9  C   UNL     1       3.526  -7.092  24.978  0.00  0.00    +0.021 A 
ATOM     10  C   UNL     1       4.767  -6.690  25.573  0.00  0.00    +0.018 A 
BRANCH   8  11
ATOM     11  C   UNL     1       2.155  -6.636  22.883  0.00  0.00    +0.248 C 
ATOM     12  O   UNL     1       1.434  -5.730  22.483  0.00  0.00    -0.270 OA
ATOM     13  N   UNL     1       1.899  -7.922  22.488  0.00  0.00    -0.325 N 
ATOM     14  H   UNL     1       1.107  -8.092  21.884  0.00  0.00    +0.145 HD
ATOM     15  H   UNL     1       2.460  -8.697  22.809  0.00  0.00    +0.145 HD
ENDBRANCH   8  11
ENDBRANCH   4   6
BRANCH   1  16
ATOM     16  S   UNL     1       9.492  -2.599  24.127  0.00  0.00    -0.096 S 
BRANCH  16  17
ATOM     17  C   UNL     1       8.391  -2.143  22.754  0.00  0.00    +0.109 C 
BRANCH  17  18
ATOM     18  C   UNL     1       9.117  -1.348  21.662  0.00  0.00    +0.138 C 
BRANCH  18  19
ATOM     19  O   UNL     1      10.534  -1.588  21.692  0.00  0.00    -0.390 OA
ATOM     20  H   UNL     1      10.736  -2.296  21.058  0.00  0.00    +0.210 HD
ENDBRANCH  18  19
BRANCH  18  21
ATOM     21  C   UNL     1       8.858   0.155  21.907  0.00  0.00    +0.113 C 
BRANCH  21  22
ATOM     22  N   UNL     1      10.093   0.861  22.255  0.00  0.00    -0.309 NA
ATOM     23  H   UNL     1      10.873   0.201  22.186  0.00  0.00    +0.123 HD
BRANCH  22  25
ATOM     24  C   UNL     1       8.709   1.525  24.229  0.00  0.00    +0.027 C 
ATOM     25  C   UNL     1      10.094   1.542  23.561  0.00  0.00    +0.011 C 
ATOM     26  C   UNL     1      11.076   0.772  24.464  0.00  0.00    +0.027 C 
ATOM     27  C   UNL     1      10.597   2.990  23.427  0.00  0.00    +0.027 C 
ENDBRANCH  22  25
ENDBRANCH  21  22
ENDBRANCH  18  21
ENDBRANCH  17  18
ENDBRANCH  16  17
ENDBRANCH   1  16
TORSDOF 9
ENDMDL
MODEL 3
REMARK VINA RESULT:      -5.9      3.012      3.906
REMARK  Name = 
REMARK  12 active torsions:
REMARK  status: ('A' for Active; 'I' for Inactive)
REMARK    1  A    between atoms: C_1  and  C_2
REMARK    2  A    between atoms: C_2  and  C_3
REMARK    3  A    between atoms: C_2  and  C_4
REMARK    4  A    between atoms: C_2  and  N_5
REMARK    5  A    between atoms: N_5  and  C_6
REMARK    6  A    between atoms: C_6  and  C_7
REMARK    7  A    between atoms: C_7  and  O_8
REMARK    8  A    between atoms: C_7  and  C_9
REMARK    9  A    between atoms: C_9  and  S_10
REMARK   10  A    between atoms: S_10  and  C_11
REMARK   11  A    between atoms: C_13  and  C_16
REMARK   12  A    between atoms: C_19  and  C_21
REMARK                            x       y       z     vdW  Elec       q    Type
REMARK                         _______ _______ _______ _____ _____    ______ ____
ROOT
ATOM      1  C   UNL     1       8.598  -1.590  25.259  0.00  0.00    +0.135 A 
ATOM      2  S   UNL     1       9.624  -2.040  23.967  0.00  0.00    -0.069 S 
ATOM      3  C   UNL     1       9.901  -0.383  23.641  0.00  0.00    +0.076 A 
ATOM      4  C   UNL     1       9.216   0.401  24.549  0.00  0.00    +0.086 A 
ATOM      5  N   UNL     1       8.480  -0.300  25.487  0.00  0.00    -0.232 NA
ENDROOT
BRANCH   4   6
ATOM      6  C   UNL     1       9.223   1.900  24.509  0.00  0.00    +0.039 A 
ATOM      7  S   UNL     1      10.365   2.812  23.631  0.00  0.00    -0.082 S 
ATOM      8  C   UNL     1       9.612   4.294  24.029  0.00  0.00    +0.074 A 
ATOM      9  C   UNL     1       8.537   4.095  24.874  0.00  0.00    +0.021 A 
ATOM     10  C   UNL     1       8.308   2.706  25.148  0.00  0.00    +0.018 A 
BRANCH   8  11
ATOM     11  C   UNL     1      10.106   5.554  23.500  0.00  0.00    +0.248 C 
ATOM     12  O   UNL     1       9.443   6.582  23.439  0.00  0.00    -0.270 OA
ATOM     13  N   UNL     1      11.393   5.556  23.031  0.00  0.00    -0.325 N 
ATOM     14  H   UNL     1      11.759   6.409  22.632  0.00  0.00    +0.145 HD
ATOM     15  H   UNL     1      11.964   4.725  23.048  0.00  0.00    +0.145 HD
ENDBRANCH   8  11
ENDBRANCH   4   6
BRANCH   1  16
ATOM     16  S   UNL     1       7.699  -2.774  26.182  0.00  0.00    -0.096 S 
BRANCH  16  17
ATOM     17  C   UNL     1       8.989  -4.046  26.328  0.00  0.00    +0.109 C 
BRANCH  17  18
ATOM     18  C   UNL     1       8.618  -5.341  25.596  0.00  0.00    +0.138 C 
BRANCH  18  19
ATOM     19  O   UNL     1       9.665  -5.760  24.705  0.00  0.00    -0.390 OA
ATOM     20  H   UNL     1      10.313  -6.273  25.215  0.00  0.00    +0.210 HD
ENDBRANCH  18  19
BRANCH  18  21
ATOM     21  C   UNL     1       7.335  -5.082  24.777  0.00  0.00    +0.113 C 
BRANCH  21  22
ATOM     22  N   UNL     1       7.574  -5.247  23.341  0.00  0.00    -0.309 NA
ATOM     23  H   UNL     1       8.396  -4.692  23.085  0.00  0.00    +0.123 HD
BRANCH  22  25
ATOM     24  C   UNL     1       6.477  -5.722  21.145  0.00  0.00    +0.027 C 
ATOM     25  C   UNL     1       6.433  -4.934  22.464  0.00  0.00    +0.011 C 
ATOM     26  C   UNL     1       5.158  -5.340  23.228  0.00  0.00    +0.027 C 
ATOM     27  C   UNL     1       6.360  -3.424  22.174  0.00  0.00    +0.027 C 
ENDBRANCH  22  25
ENDBRANCH  21  22
ENDBRANCH  18  21
ENDBRANCH  17  18
ENDBRANCH  16  17
ENDBRANCH   1  16
TORSDOF 9
ENDMDL
MODEL 4
REMARK VINA RESULT:      -5.9      3.227      4.920
REMARK  Name = 
REMARK  12 active torsions:
REMARK  status: ('A' for Active; 'I' for Inactive)
REMARK    1  A    between atoms: C_1  and  C_2
REMARK    2  A    between atoms: C_2  and  C_3
REMARK    3  A    between atoms: C_2  and  C_4
REMARK    4  A    between atoms: C_2  and  N_5
REMARK    5  A    between atoms: N_5  and  C_6
REMARK    6  A    between atoms: C_6  and  C_7
REMARK    7  A    between atoms: C_7  and  O_8
REMARK    8  A    between atoms: C_7  and  C_9
REMARK    9  A    between atoms: C_9  and  S_10
REMARK   10  A    between atoms: S_10  and  C_11
REMARK   11  A    between atoms: C_13  and  C_16
REMARK   12  A    between atoms: C_19  and  C_21
REMARK                            x       y       z     vdW  Elec       q    Type
REMARK                         _______ _______ _______ _____ _____    ______ ____
ROOT
ATOM      1  C   UNL     1       8.585  -1.688  24.032  0.00  0.00    +0.135 A 
ATOM      2  S   UNL     1       9.950  -1.954  23.035  0.00  0.00    -0.069 S 
ATOM      3  C   UNL     1      10.288  -0.277  23.093  0.00  0.00    +0.076 A 
ATOM      4  C   UNL     1       9.358   0.369  23.885  0.00  0.00    +0.086 A 
ATOM      5  N   UNL     1       8.389  -0.452  24.434  0.00  0.00    -0.232 NA
ENDROOT
BRANCH   4   6
ATOM      6  C   UNL     1       9.356   1.852  24.106  0.00  0.00    +0.039 A 
ATOM      7  S   UNL     1      10.472   2.913  23.374  0.00  0.00    -0.082 S 
ATOM      8  C   UNL     1       9.723   4.296  24.042  0.00  0.00    +0.074 A 
ATOM      9  C   UNL     1       8.670   3.943  24.863  0.00  0.00    +0.021 A 
ATOM     10  C   UNL     1       8.454   2.527  24.897  0.00  0.00    +0.018 A 
BRANCH   8  11
ATOM     11  C   UNL     1      10.198   5.634  23.729  0.00  0.00    +0.248 C 
ATOM     12  O   UNL     1       9.613   6.663  24.043  0.00  0.00    -0.270 OA
ATOM     13  N   UNL     1      11.368   5.715  23.022  0.00  0.00    -0.325 N 
ATOM     14  H   UNL     1      11.713   6.629  22.764  0.00  0.00    +0.145 HD
ATOM     15  H   UNL     1      11.869   4.889  22.729  0.00  0.00    +0.145 HD
ENDBRANCH   8  11
ENDBRANCH   4   6
BRANCH   1  16
ATOM     16  S   UNL     1       7.472  -2.976  24.437  0.00  0.00    -0.096 S 
BRANCH  16  17
ATOM     17  C   UNL     1       8.598  -4.388  24.233  0.00  0.00    +0.109 C 
BRANCH  17  18
ATOM     18  C   UNL     1       9.384  -4.699  25.512  0.00  0.00    +0.138 C 
BRANCH  18  19
ATOM     19  O   UNL     1       9.864  -6.053  25.517  0.00  0.00    -0.390 OA
ATOM     20  H   UNL     1      10.130  -6.285  24.612  0.00  0.00    +0.210 HD
ENDBRANCH  18  19
BRANCH  18  21
ATOM     21  C   UNL     1       8.440  -4.497  26.719  0.00  0.00    +0.113 C 
BRANCH  21  22
ATOM     22  N   UNL     1       7.767  -5.745  27.086  0.00  0.00    -0.309 NA
ATOM     23  H   UNL     1       7.882  -6.412  26.318  0.00  0.00    +0.123 HD
BRANCH  22  25
ATOM     24  C   UNL     1       5.918  -4.151  27.627  0.00  0.00    +0.027 C 
ATOM     25  C   UNL     1       6.350  -5.617  27.466  0.00  0.00    +0.011 C 
ATOM     26  C   UNL     1       5.525  -6.242  26.324  0.00  0.00    +0.027 C 
ATOM     27  C   UNL     1       6.053  -6.400  28.757  0.00  0.00    +0.027 C 
ENDBRANCH  22  25
ENDBRANCH  21  22
ENDBRANCH  18  21
ENDBRANCH  17  18
ENDBRANCH  16  17
ENDBRANCH   1  16
TORSDOF 9
ENDMDL
MODEL 5
REMARK VINA RESULT:      -5.7      2.859      3.969
REMARK  Name = 
REMARK  12 active torsions:
REMARK  status: ('A' for Active; 'I' for Inactive)
REMARK    1  A    between atoms: C_1  and  C_2
REMARK    2  A    between atoms: C_2  and  C_3
REMARK    3  A    between atoms: C_2  and  C_4
REMARK    4  A    between atoms: C_2  and  N_5
REMARK    5  A    between atoms: N_5  and  C_6
REMARK    6  A    between atoms: C_6  and  C_7
REMARK    7  A    between atoms: C_7  and  O_8
REMARK    8  A    between atoms: C_7  and  C_9
REMARK    9  A    between atoms: C_9  and  S_10
REMARK   10  A    between atoms: S_10  and  C_11
REMARK   11  A    between atoms: C_13  and  C_16
REMARK   12  A    between atoms: C_19  and  C_21
REMARK                            x       y       z     vdW  Elec       q    Type
REMARK                         _______ _______ _______ _____ _____    ______ ____
ROOT
ATOM      1  C   UNL     1       8.900  -3.722  24.064  0.00  0.00    +0.135 A 
ATOM      2  S   UNL     1       7.641  -3.998  22.941  0.00  0.00    -0.069 S 
ATOM      3  C   UNL     1       7.797  -2.380  22.405  0.00  0.00    +0.076 A 
ATOM      4  C   UNL     1       8.811  -1.745  23.096  0.00  0.00    +0.086 A 
ATOM      5  N   UNL     1       9.452  -2.528  24.040  0.00  0.00    -0.232 NA
ENDROOT
BRANCH   4   6
ATOM      6  C   UNL     1       9.173  -0.306  22.886  0.00  0.00    +0.039 A 
ATOM      7  S   UNL     1       9.189   0.853  24.136  0.00  0.00    -0.082 S 
ATOM      8  C   UNL     1       9.772   2.083  23.103  0.00  0.00    +0.074 A 
ATOM      9  C   UNL     1       9.893   1.627  21.806  0.00  0.00    +0.021 A 
ATOM     10  C   UNL     1       9.551   0.240  21.679  0.00  0.00    +0.018 A 
BRANCH   8  11
ATOM     11  C   UNL     1      10.077   3.410  23.612  0.00  0.00    +0.248 C 
ATOM     12  O   UNL     1       9.328   4.062  24.328  0.00  0.00    -0.270 OA
ATOM     13  N   UNL     1      11.281   3.945  23.236  0.00  0.00    -0.325 N 
ATOM     14  H   UNL     1      11.513   4.877  23.550  0.00  0.00    +0.145 HD
ATOM     15  H   UNL     1      11.917   3.447  22.633  0.00  0.00    +0.145 HD
ENDBRANCH   8  11
ENDBRANCH   4   6
BRANCH   1  16
ATOM     16  S   UNL     1       9.383  -4.935  25.229  0.00  0.00    -0.096 S 
BRANCH  16  17
ATOM     17  C   UNL     1       7.733  -5.436  25.803  0.00  0.00    +0.109 C 
BRANCH  17  18
ATOM     18  C   UNL     1       7.483  -5.057  27.268  0.00  0.00    +0.138 C 
BRANCH  18  19
ATOM     19  O   UNL     1       7.342  -6.223  28.096  0.00  0.00    -0.390 OA
ATOM     20  H   UNL     1       7.125  -6.978  27.525  0.00  0.00    +0.210 HD
ENDBRANCH  18  19
BRANCH  18  21
ATOM     21  C   UNL     1       6.180  -4.232  27.337  0.00  0.00    +0.113 C 
BRANCH  21  22
ATOM     22  N   UNL     1       5.996  -3.419  26.132  0.00  0.00    -0.309 NA
ATOM     23  H   UNL     1       6.725  -3.673  25.458  0.00  0.00    +0.123 HD
BRANCH  22  25
ATOM     24  C   UNL     1       5.056  -1.566  27.523  0.00  0.00    +0.027 C 
ATOM     25  C   UNL     1       5.960  -1.962  26.345  0.00  0.00    +0.011 C 
ATOM     26  C   UNL     1       7.401  -1.523  26.672  0.00  0.00    +0.027 C 
ATOM     27  C   UNL     1       5.513  -1.230  25.067  0.00  0.00    +0.027 C 
ENDBRANCH  22  25
ENDBRANCH  21  22
ENDBRANCH  18  21
ENDBRANCH  17  18
ENDBRANCH  16  17
ENDBRANCH   1  16
TORSDOF 9
ENDMDL
MODEL 6
REMARK VINA RESULT:      -5.7      2.609      3.609
REMARK  Name = 
REMARK  12 active torsions:
REMARK  status: ('A' for Active; 'I' for Inactive)
REMARK    1  A    between atoms: C_1  and  C_2
REMARK    2  A    between atoms: C_2  and  C_3
REMARK    3  A    between atoms: C_2  and  C_4
REMARK    4  A    between atoms: C_2  and  N_5
REMARK    5  A    between atoms: N_5  and  C_6
REMARK    6  A    between atoms: C_6  and  C_7
REMARK    7  A    between atoms: C_7  and  O_8
REMARK    8  A    between atoms: C_7  and  C_9
REMARK    9  A    between atoms: C_9  and  S_10
REMARK   10  A    between atoms: S_10  and  C_11
REMARK   11  A    between atoms: C_13  and  C_16
REMARK   12  A    between atoms: C_19  and  C_21
REMARK                            x       y       z     vdW  Elec       q    Type
REMARK                         _______ _______ _______ _____ _____    ______ ____
ROOT
ATOM      1  C   UNL     1       8.933  -3.583  24.175  0.00  0.00    +0.135 A 
ATOM      2  S   UNL     1       7.679  -3.871  23.049  0.00  0.00    -0.069 S 
ATOM      3  C   UNL     1       7.850  -2.265  22.484  0.00  0.00    +0.076 A 
ATOM      4  C   UNL     1       8.864  -1.625  23.171  0.00  0.00    +0.086 A 
ATOM      5  N   UNL     1       9.493  -2.394  24.133  0.00  0.00    -0.232 NA
ENDROOT
BRANCH   4   6
ATOM      6  C   UNL     1       9.237  -0.192  22.936  0.00  0.00    +0.039 A 
ATOM      7  S   UNL     1       9.280   0.984  24.170  0.00  0.00    -0.082 S 
ATOM      8  C   UNL     1       9.862   2.194  23.113  0.00  0.00    +0.074 A 
ATOM      9  C   UNL     1       9.962   1.719  21.820  0.00  0.00    +0.021 A 
ATOM     10  C   UNL     1       9.605   0.334  21.717  0.00  0.00    +0.018 A 
BRANCH   8  11
ATOM     11  C   UNL     1      10.186   3.525  23.599  0.00  0.00    +0.248 C 
ATOM     12  O   UNL     1       9.445   4.200  24.302  0.00  0.00    -0.270 OA
ATOM     13  N   UNL     1      11.398   4.035  23.217  0.00  0.00    -0.325 N 
ATOM     14  H   UNL     1      11.644   4.968  23.516  0.00  0.00    +0.145 HD
ATOM     15  H   UNL     1      12.029   3.516  22.625  0.00  0.00    +0.145 HD
ENDBRANCH   8  11
ENDBRANCH   4   6
BRANCH   1  16
ATOM     16  S   UNL     1       9.400  -4.778  25.366  0.00  0.00    -0.096 S 
BRANCH  16  17
ATOM     17  C   UNL     1       7.755  -5.461  25.729  0.00  0.00    +0.109 C 
BRANCH  17  18
ATOM     18  C   UNL     1       7.277  -5.113  27.143  0.00  0.00    +0.138 C 
BRANCH  18  19
ATOM     19  O   UNL     1       7.472  -6.211  28.049  0.00  0.00    -0.390 OA
ATOM     20  H   UNL     1       7.611  -7.018  27.525  0.00  0.00    +0.210 HD
ENDBRANCH  18  19
BRANCH  18  21
ATOM     21  C   UNL     1       5.770  -4.781  27.075  0.00  0.00    +0.113 C 
BRANCH  21  22
ATOM     22  N   UNL     1       5.247  -4.945  25.716  0.00  0.00    -0.309 NA
ATOM     23  H   UNL     1       5.021  -4.018  25.344  0.00  0.00    +0.123 HD
BRANCH  22  25
ATOM     24  C   UNL     1       2.819  -5.133  25.152  0.00  0.00    +0.027 C 
ATOM     25  C   UNL     1       4.103  -5.862  25.579  0.00  0.00    +0.011 C 
ATOM     26  C   UNL     1       4.473  -6.874  24.478  0.00  0.00    +0.027 C 
ATOM     27  C   UNL     1       3.860  -6.639  26.885  0.00  0.00    +0.027 C 
ENDBRANCH  22  25
ENDBRANCH  21  22
ENDBRANCH  18  21
ENDBRANCH  17  18
ENDBRANCH  16  17
ENDBRANCH   1  16
TORSDOF 9
ENDMDL
MODEL 7
REMARK VINA RESULT:      -5.6      2.711      8.654
REMARK  Name = 
REMARK  12 active torsions:
REMARK  status: ('A' for Active; 'I' for Inactive)
REMARK    1  A    between atoms: C_1  and  C_2
REMARK    2  A    between atoms: C_2  and  C_3
REMARK    3  A    between atoms: C_2  and  C_4
REMARK    4  A    between atoms: C_2  and  N_5
REMARK    5  A    between atoms: N_5  and  C_6
REMARK    6  A    between atoms: C_6  and  C_7
REMARK    7  A    between atoms: C_7  and  O_8
REMARK    8  A    between atoms: C_7  and  C_9
REMARK    9  A    between atoms: C_9  and  S_10
REMARK   10  A    between atoms: S_10  and  C_11
REMARK   11  A    between atoms: C_13  and  C_16
REMARK   12  A    between atoms: C_19  and  C_21
REMARK                            x       y       z     vdW  Elec       q    Type
REMARK                         _______ _______ _______ _____ _____    ______ ____
ROOT
ATOM      1  C   UNL     1       8.879  -1.862  22.508  0.00  0.00    +0.135 A 
ATOM      2  S   UNL     1       9.915  -2.245  23.815  0.00  0.00    -0.069 S 
ATOM      3  C   UNL     1       8.877  -3.543  24.226  0.00  0.00    +0.076 A 
ATOM      4  C   UNL     1       7.828  -3.615  23.329  0.00  0.00    +0.086 A 
ATOM      5  N   UNL     1       7.843  -2.654  22.335  0.00  0.00    -0.232 NA
ENDROOT
BRANCH   4   6
ATOM      6  C   UNL     1       6.724  -4.623  23.438  0.00  0.00    +0.039 A 
ATOM      7  S   UNL     1       6.373  -5.483  24.868  0.00  0.00    -0.082 S 
ATOM      8  C   UNL     1       5.017  -6.255  24.171  0.00  0.00    +0.074 A 
ATOM      9  C   UNL     1       4.873  -5.904  22.843  0.00  0.00    +0.021 A 
ATOM     10  C   UNL     1       5.859  -4.954  22.419  0.00  0.00    +0.018 A 
BRANCH   8  11
ATOM     11  C   UNL     1       4.177  -7.148  24.951  0.00  0.00    +0.248 C 
ATOM     12  O   UNL     1       3.310  -7.870  24.474  0.00  0.00    -0.270 OA
ATOM     13  N   UNL     1       4.381  -7.149  26.305  0.00  0.00    -0.325 N 
ATOM     14  H   UNL     1       3.796  -7.739  26.880  0.00  0.00    +0.145 HD
ATOM     15  H   UNL     1       5.073  -6.556  26.738  0.00  0.00    +0.145 HD
ENDBRANCH   8  11
ENDBRANCH   4   6
BRANCH   1  16
ATOM     16  S   UNL     1       9.142  -0.457  21.500  0.00  0.00    -0.096 S 
BRANCH  16  17
ATOM     17  C   UNL     1       8.532   0.819  22.642  0.00  0.00    +0.109 C 
BRANCH  17  18
ATOM     18  C   UNL     1       9.099   2.208  22.325  0.00  0.00    +0.138 C 
BRANCH  18  19
ATOM     19  O   UNL     1      10.270   2.120  21.498  0.00  0.00    -0.390 OA
ATOM     20  H   UNL     1       9.998   2.219  20.571  0.00  0.00    +0.210 HD
ENDBRANCH  18  19
BRANCH  18  21
ATOM     21  C   UNL     1       9.475   2.891  23.657  0.00  0.00    +0.113 C 
BRANCH  21  22
ATOM     22  N   UNL     1       9.928   4.268  23.443  0.00  0.00    -0.309 NA
ATOM     23  H   UNL     1      10.897   4.342  23.765  0.00  0.00    +0.123 HD
BRANCH  22  25
ATOM     24  C   UNL     1       9.868   6.623  24.282  0.00  0.00    +0.027 C 
ATOM     25  C   UNL     1       9.091   5.317  24.049  0.00  0.00    +0.011 C 
ATOM     26  C   UNL     1       7.949   5.605  23.056  0.00  0.00    +0.027 C 
ATOM     27  C   UNL     1       8.468   4.831  25.370  0.00  0.00    +0.027 C 
ENDBRANCH  22  25
ENDBRANCH  21  22
ENDBRANCH  18  21
ENDBRANCH  17  18
ENDBRANCH  16  17
ENDBRANCH   1  16
TORSDOF 9
ENDMDL
MODEL 8
REMARK VINA RESULT:      -5.5      3.033      8.782
REMARK  Name = 
REMARK  12 active torsions:
REMARK  status: ('A' for Active; 'I' for Inactive)
REMARK    1  A    between atoms: C_1  and  C_2
REMARK    2  A    between atoms: C_2  and  C_3
REMARK    3  A    between atoms: C_2  and  C_4
REMARK    4  A    between atoms: C_2  and  N_5
REMARK    5  A    between atoms: N_5  and  C_6
REMARK    6  A    between atoms: C_6  and  C_7
REMARK    7  A    between atoms: C_7  and  O_8
REMARK    8  A    between atoms: C_7  and  C_9
REMARK    9  A    between atoms: C_9  and  S_10
REMARK   10  A    between atoms: S_10  and  C_11
REMARK   11  A    between atoms: C_13  and  C_16
REMARK   12  A    between atoms: C_19  and  C_21
REMARK                            x       y       z     vdW  Elec       q    Type
REMARK                         _______ _______ _______ _____ _____    ______ ____
ROOT
ATOM      1  C   UNL     1       8.948  -1.428  24.356  0.00  0.00    +0.135 A 
ATOM      2  S   UNL     1       8.978  -1.986  22.740  0.00  0.00    -0.069 S 
ATOM      3  C   UNL     1       8.016  -3.321  23.209  0.00  0.00    +0.076 A 
ATOM      4  C   UNL     1       7.715  -3.242  24.555  0.00  0.00    +0.086 A 
ATOM      5  N   UNL     1       8.243  -2.141  25.206  0.00  0.00    -0.232 NA
ENDROOT
BRANCH   4   6
ATOM      6  C   UNL     1       6.918  -4.283  25.281  0.00  0.00    +0.039 A 
ATOM      7  S   UNL     1       6.816  -4.374  26.980  0.00  0.00    -0.082 S 
ATOM      8  C   UNL     1       5.708  -5.675  26.928  0.00  0.00    +0.074 A 
ATOM      9  C   UNL     1       5.469  -6.072  25.627  0.00  0.00    +0.021 A 
ATOM     10  C   UNL     1       6.166  -5.263  24.671  0.00  0.00    +0.018 A 
BRANCH   8  11
ATOM     11  C   UNL     1       5.139  -6.227  28.146  0.00  0.00    +0.248 C 
ATOM     12  O   UNL     1       4.444  -5.593  28.930  0.00  0.00    -0.270 OA
ATOM     13  N   UNL     1       5.430  -7.538  28.415  0.00  0.00    -0.325 N 
ATOM     14  H   UNL     1       5.072  -7.946  29.267  0.00  0.00    +0.145 HD
ATOM     15  H   UNL     1       6.014  -8.088  27.802  0.00  0.00    +0.145 HD
ENDBRANCH   8  11
ENDBRANCH   4   6
BRANCH   1  16
ATOM     16  S   UNL     1       9.861  -0.025  24.867  0.00  0.00    -0.096 S 
BRANCH  16  17
ATOM     17  C   UNL     1      10.405   0.559  23.234  0.00  0.00    +0.109 C 
BRANCH  17  18
ATOM     18  C   UNL     1       9.635   1.802  22.771  0.00  0.00    +0.138 C 
BRANCH  18  19
ATOM     19  O   UNL     1      10.102   2.263  21.493  0.00  0.00    -0.390 OA
ATOM     20  H   UNL     1       9.783   1.649  20.812  0.00  0.00    +0.210 HD
ENDBRANCH  18  19
BRANCH  18  21
ATOM     21  C   UNL     1       9.848   2.918  23.817  0.00  0.00    +0.113 C 
BRANCH  21  22
ATOM     22  N   UNL     1       9.951   4.234  23.181  0.00  0.00    -0.309 NA
ATOM     23  H   UNL     1      10.924   4.377  22.894  0.00  0.00    +0.123 HD
BRANCH  22  25
ATOM     24  C   UNL     1      10.608   6.289  24.446  0.00  0.00    +0.027 C 
ATOM     25  C   UNL     1       9.466   5.370  23.983  0.00  0.00    +0.011 C 
ATOM     26  C   UNL     1       8.526   6.187  23.075  0.00  0.00    +0.027 C 
ATOM     27  C   UNL     1       8.657   4.881  25.197  0.00  0.00    +0.027 C 
ENDBRANCH  22  25
ENDBRANCH  21  22
ENDBRANCH  18  21
ENDBRANCH  17  18
ENDBRANCH  16  17
ENDBRANCH   1  16
TORSDOF 9
ENDMDL
MODEL 9
REMARK VINA RESULT:      -5.5      2.179      3.573
REMARK  Name = 
REMARK  12 active torsions:
REMARK  status: ('A' for Active; 'I' for Inactive)
REMARK    1  A    between atoms: C_1  and  C_2
REMARK    2  A    between atoms: C_2  and  C_3
REMARK    3  A    between atoms: C_2  and  C_4
REMARK    4  A    between atoms: C_2  and  N_5
REMARK    5  A    between atoms: N_5  and  C_6
REMARK    6  A    between atoms: C_6  and  C_7
REMARK    7  A    between atoms: C_7  and  O_8
REMARK    8  A    between atoms: C_7  and  C_9
REMARK    9  A    between atoms: C_9  and  S_10
REMARK   10  A    between atoms: S_10  and  C_11
REMARK   11  A    between atoms: C_13  and  C_16
REMARK   12  A    between atoms: C_19  and  C_21
REMARK                            x       y       z     vdW  Elec       q    Type
REMARK                         _______ _______ _______ _____ _____    ______ ____
ROOT
ATOM      1  C   UNL     1       7.505  -4.354  23.276  0.00  0.00    +0.135 A 
ATOM      2  S   UNL     1       8.657  -4.807  24.456  0.00  0.00    -0.069 S 
ATOM      3  C   UNL     1       9.344  -3.243  24.351  0.00  0.00    +0.076 A 
ATOM      4  C   UNL     1       8.638  -2.473  23.446  0.00  0.00    +0.086 A 
ATOM      5  N   UNL     1       7.572  -3.114  22.842  0.00  0.00    -0.232 NA
ENDROOT
BRANCH   4   6
ATOM      6  C   UNL     1       9.013  -1.063  23.100  0.00  0.00    +0.039 A 
ATOM      7  S   UNL     1       8.997   0.217  24.224  0.00  0.00    -0.082 S 
ATOM      8  C   UNL     1       9.617   1.334  23.088  0.00  0.00    +0.074 A 
ATOM      9  C   UNL     1       9.775   0.746  21.849  0.00  0.00    +0.021 A 
ATOM     10  C   UNL     1       9.429  -0.645  21.855  0.00  0.00    +0.018 A 
BRANCH   8  11
ATOM     11  C   UNL     1       9.913   2.706  23.467  0.00  0.00    +0.248 C 
ATOM     12  O   UNL     1       9.288   3.337  24.310  0.00  0.00    -0.270 OA
ATOM     13  N   UNL     1      10.952   3.309  22.809  0.00  0.00    -0.325 N 
ATOM     14  H   UNL     1      11.168   4.271  23.030  0.00  0.00    +0.145 HD
ATOM     15  H   UNL     1      11.479   2.828  22.096  0.00  0.00    +0.145 HD
ENDBRANCH   8  11
ENDBRANCH   4   6
BRANCH   1  16
ATOM     16  S   UNL     1       6.345  -5.494  22.629  0.00  0.00    -0.096 S 
BRANCH  16  17
ATOM     17  C   UNL     1       5.148  -5.473  23.997  0.00  0.00    +0.109 C 
BRANCH  17  18
ATOM     18  C   UNL     1       4.835  -6.879  24.521  0.00  0.00    +0.138 C 
BRANCH  18  19
ATOM     19  O   UNL     1       3.813  -7.517  23.738  0.00  0.00    -0.390 OA
ATOM     20  H   UNL     1       3.588  -8.362  24.160  0.00  0.00    +0.210 HD
ENDBRANCH  18  19
BRANCH  18  21
ATOM     21  C   UNL     1       4.343  -6.752  25.980  0.00  0.00    +0.113 C 
BRANCH  21  22
ATOM     22  N   UNL     1       5.453  -6.848  26.930  0.00  0.00    -0.309 NA
ATOM     23  H   UNL     1       5.423  -7.773  27.369  0.00  0.00    +0.123 HD
BRANCH  22  25
ATOM     24  C   UNL     1       6.397  -4.605  27.504  0.00  0.00    +0.027 C 
ATOM     25  C   UNL     1       5.517  -5.785  27.947  0.00  0.00    +0.011 C 
ATOM     26  C   UNL     1       4.079  -5.268  28.143  0.00  0.00    +0.027 C 
ATOM     27  C   UNL     1       6.017  -6.339  29.293  0.00  0.00    +0.027 C 
ENDBRANCH  22  25
ENDBRANCH  21  22
ENDBRANCH  18  21
ENDBRANCH  17  18
ENDBRANCH  16  17
ENDBRANCH   1  16
TORSDOF 9
ENDMDL
