MODEL 1
REMARK VINA RESULT:      -7.1      0.000      0.000
REMARK  Name = 
REMARK  17 active torsions:
REMARK  status: ('A' for Active; 'I' for Inactive)
REMARK    1  A    between atoms: C_1  and  O_2
REMARK    2  A    between atoms: O_2  and  C_3
REMARK    3  A    between atoms: C_6  and  C_7
REMARK    4  A    between atoms: C_7  and  N_8
REMARK    5  A    between atoms: N_8  and  C_9
REMARK    6  A    between atoms: C_9  and  C_11
REMARK    7  A    between atoms: C_9  and  C_12
REMARK    8  A    between atoms: C_14  and  C_17
REMARK    9  A    between atoms: C_23  and  C_25
REMARK   10  A    between atoms: C_25  and  N_27
REMARK   11  A    between atoms: C_25  and  C_28
REMARK   12  A    between atoms: C_28  and  C_29
REMARK   13  A    between atoms: C_30  and  C_31
REMARK   14  A    between atoms: C_33  and  C_37
REMARK   15  A    between atoms: C_35  and  C_36
REMARK   16  A    between atoms: C_41  and  C_42
REMARK   17  A    between atoms: C_42  and  O_43
REMARK                            x       y       z     vdW  Elec       q    Type
REMARK                         _______ _______ _______ _____ _____    ______ ____
ROOT
ATOM      1  N   UNL     1       6.940   0.087  25.679  0.00  0.00    -0.286 N 
ATOM      2  C   UNL     1       8.195  -0.442  26.032  0.00  0.00    +0.234 C 
ATOM      3  O   UNL     1       8.300  -1.116  27.068  0.00  0.00    -0.274 OA
ENDROOT
BRANCH   1   4
ATOM      4  C   UNL     1       5.772  -0.264  26.537  0.00  0.00    +0.139 C 
ATOM      5  C   UNL     1       4.462   0.481  26.241  0.00  0.00    +0.036 C 
BRANCH   4   6
ATOM      6  C   UNL     1       5.553  -1.752  26.425  0.00  0.00    +0.128 A 
ATOM      7  N   UNL     1       5.650  -2.568  27.524  0.00  0.00    -0.346 N 
ATOM      8  H   UNL     1       5.819  -2.241  28.467  0.00  0.00    +0.167 HD
ATOM      9  C   UNL     1       5.498  -3.860  27.101  0.00  0.00    +0.112 A 
ATOM     10  C   UNL     1       5.140  -3.764  25.774  0.00  0.00    +0.089 A 
ATOM     11  N   UNL     1       5.264  -2.458  25.348  0.00  0.00    -0.231 NA
BRANCH  10  12
ATOM     12  C   UNL     1       4.542  -4.811  24.955  0.00  0.00    +0.002 A 
ATOM     13  C   UNL     1       4.633  -6.165  25.313  0.00  0.00    +0.010 A 
ATOM     14  C   UNL     1       3.821  -7.120  24.695  0.00  0.00    +0.001 A 
ATOM     15  C   UNL     1       2.925  -6.737  23.699  0.00  0.00    +0.000 A 
ATOM     16  C   UNL     1       2.884  -5.411  23.277  0.00  0.00    +0.001 A 
ATOM     17  C   UNL     1       3.698  -4.455  23.893  0.00  0.00    +0.010 A 
ENDBRANCH  10  12
ENDBRANCH   4   6
ENDBRANCH   1   4
BRANCH   1  18
ATOM     18  C   UNL     1       6.634   0.556  24.337  0.00  0.00    +0.143 C 
BRANCH  18  22
ATOM     19  C   UNL     1       8.184   4.534  24.224  0.00  0.00    +0.134 A 
ATOM     20  C   UNL     1       8.932   3.507  23.639  0.00  0.00    +0.101 A 
ATOM     21  C   UNL     1       8.303   2.275  23.394  0.00  0.00    +0.023 A 
ATOM     22  C   UNL     1       7.075   1.971  24.007  0.00  0.00    -0.029 A 
ATOM     23  C   UNL     1       6.352   3.002  24.608  0.00  0.00    +0.009 A 
ATOM     24  C   UNL     1       6.897   4.275  24.705  0.00  0.00    +0.047 A 
BRANCH  19  26
ATOM     25  C   UNL     1       8.043   6.745  23.554  0.00  0.00    +0.277 C 
ATOM     26  O   UNL     1       8.739   5.784  24.358  0.00  0.00    -0.494 OA
ENDBRANCH  19  26
BRANCH  20  27
ATOM     27  C   UNL     1      10.416   3.563  23.429  0.00  0.00    +0.340 C 
ATOM     28  O   UNL     1      11.155   2.630  23.706  0.00  0.00    -0.245 OA
BRANCH  27  29
ATOM     29  O   UNL     1      10.905   4.758  23.030  0.00  0.00    -0.477 OA
ATOM     30  H   UNL     1      11.850   4.728  22.776  0.00  0.00    +0.295 HD
ENDBRANCH  27  29
ENDBRANCH  20  27
ENDBRANCH  18  22
ENDBRANCH   1  18
BRANCH   2  31
ATOM     31  C   UNL     1       9.403  -0.364  25.033  0.00  0.00    +0.142 C 
BRANCH  31  32
ATOM     32  N   UNL     1      10.546   0.453  25.481  0.00  0.00    -0.320 NA
ATOM     33  H   UNL     1      10.437   0.638  26.478  0.00  0.00    +0.119 HD
ATOM     34  H   UNL     1      11.425  -0.045  25.429  0.00  0.00    +0.119 HD
ENDBRANCH  31  32
BRANCH  31  35
ATOM     35  C   UNL     1       9.900  -1.745  24.507  0.00  0.00    +0.063 C 
BRANCH  35  36
ATOM     36  C   UNL     1       8.976  -2.702  23.754  0.00  0.00    -0.040 A 
ATOM     37  C   UNL     1       8.664  -4.004  24.245  0.00  0.00    -0.046 A 
ATOM     38  C   UNL     1       9.201  -4.623  25.508  0.00  0.00    +0.044 C 
ATOM     39  C   UNL     1       7.798  -4.847  23.521  0.00  0.00    +0.016 A 
ATOM     40  C   UNL     1       7.272  -4.483  22.289  0.00  0.00    +0.037 A 
ATOM     41  C   UNL     1       7.622  -3.240  21.765  0.00  0.00    +0.016 A 
ATOM     42  C   UNL     1       8.465  -2.346  22.472  0.00  0.00    -0.046 A 
ATOM     43  C   UNL     1       8.765  -1.065  21.726  0.00  0.00    +0.044 C 
BRANCH  40  44
ATOM     44  C   UNL     1       6.386  -5.471  21.596  0.00  0.00    +0.242 C 
ATOM     45  O   UNL     1       5.770  -5.165  20.567  0.00  0.00    -0.270 OA
ATOM     46  N   UNL     1       6.241  -6.706  22.127  0.00  0.00    -0.325 N 
ATOM     47  H   UNL     1       5.634  -7.341  21.636  0.00  0.00    +0.145 HD
ATOM     48  H   UNL     1       6.693  -7.044  22.969  0.00  0.00    +0.145 HD
ENDBRANCH  40  44
ENDBRANCH  35  36
ENDBRANCH  31  35
ENDBRANCH   2  31
TORSDOF 13
ENDMDL
MODEL 2
REMARK VINA RESULT:      -7.1      0.482      1.435
REMARK  Name = 
REMARK  17 active torsions:
REMARK  status: ('A' for Active; 'I' for Inactive)
REMARK    1  A    between atoms: C_1  and  O_2
REMARK    2  A    between atoms: O_2  and  C_3
REMARK    3  A    between atoms: C_6  and  C_7
REMARK    4  A    between atoms: C_7  and  N_8
REMARK    5  A    between atoms: N_8  and  C_9
REMARK    6  A    between atoms: C_9  and  C_11
REMARK    7  A    between atoms: C_9  and  C_12
REMARK    8  A    between atoms: C_14  and  C_17
REMARK    9  A    between atoms: C_23  and  C_25
REMARK   10  A    between atoms: C_25  and  N_27
REMARK   11  A    between atoms: C_25  and  C_28
REMARK   12  A    between atoms: C_28  and  C_29
REMARK   13  A    between atoms: C_30  and  C_31
REMARK   14  A    between atoms: C_33  and  C_37
REMARK   15  A    between atoms: C_35  and  C_36
REMARK   16  A    between atoms: C_41  and  C_42
REMARK   17  A    between atoms: C_42  and  O_43
REMARK                            x       y       z     vdW  Elec       q    Type
REMARK                         _______ _______ _______ _____ _____    ______ ____
ROOT
ATOM      1  N   UNL     1       6.926   0.083  25.554  0.00  0.00    -0.286 N 
ATOM      2  C   UNL     1       8.200  -0.319  25.997  0.00  0.00    +0.234 C 
ATOM      3  O   UNL     1       8.322  -0.802  27.134  0.00  0.00    -0.274 OA
ENDROOT
BRANCH   1   4
ATOM      4  C   UNL     1       5.765  -0.172  26.453  0.00  0.00    +0.139 C 
ATOM      5  C   UNL     1       4.481   0.614  26.145  0.00  0.00    +0.036 C 
BRANCH   4   6
ATOM      6  C   UNL     1       5.479  -1.653  26.424  0.00  0.00    +0.128 A 
ATOM      7  N   UNL     1       5.413  -2.385  27.582  0.00  0.00    -0.346 N 
ATOM      8  H   UNL     1       5.497  -1.994  28.513  0.00  0.00    +0.167 HD
ATOM      9  C   UNL     1       5.238  -3.698  27.239  0.00  0.00    +0.112 A 
ATOM     10  C   UNL     1       5.032  -3.688  25.877  0.00  0.00    +0.089 A 
ATOM     11  N   UNL     1       5.270  -2.426  25.375  0.00  0.00    -0.231 NA
BRANCH  10  12
ATOM     12  C   UNL     1       4.470  -4.767  25.073  0.00  0.00    +0.002 A 
ATOM     13  C   UNL     1       4.559  -6.107  25.479  0.00  0.00    +0.010 A 
ATOM     14  C   UNL     1       3.776  -7.090  24.866  0.00  0.00    +0.001 A 
ATOM     15  C   UNL     1       2.912  -6.748  23.828  0.00  0.00    +0.000 A 
ATOM     16  C   UNL     1       2.875  -5.436  23.361  0.00  0.00    +0.001 A 
ATOM     17  C   UNL     1       3.661  -4.454  23.972  0.00  0.00    +0.010 A 
ENDBRANCH  10  12
ENDBRANCH   4   6
ENDBRANCH   1   4
BRANCH   1  18
ATOM     18  C   UNL     1       6.616   0.302  24.149  0.00  0.00    +0.143 C 
BRANCH  18  22
ATOM     19  C   UNL     1       7.648   4.386  23.440  0.00  0.00    +0.134 A 
ATOM     20  C   UNL     1       8.638   3.409  23.292  0.00  0.00    +0.101 A 
ATOM     21  C   UNL     1       8.246   2.063  23.214  0.00  0.00    +0.023 A 
ATOM     22  C   UNL     1       6.950   1.677  23.599  0.00  0.00    -0.029 A 
ATOM     23  C   UNL     1       5.979   2.665  23.767  0.00  0.00    +0.009 A 
ATOM     24  C   UNL     1       6.322   4.007  23.676  0.00  0.00    +0.047 A 
BRANCH  19  26
ATOM     25  C   UNL     1       7.502   6.332  22.196  0.00  0.00    +0.277 C 
ATOM     26  O   UNL     1       7.995   5.715  23.392  0.00  0.00    -0.494 OA
ENDBRANCH  19  26
BRANCH  20  27
ATOM     27  C   UNL     1      10.109   3.680  23.404  0.00  0.00    +0.340 C 
ATOM     28  O   UNL     1      10.927   2.798  23.615  0.00  0.00    -0.245 OA
BRANCH  27  29
ATOM     29  O   UNL     1      10.466   4.984  23.382  0.00  0.00    -0.477 OA
ATOM     30  H   UNL     1       9.764   5.586  23.705  0.00  0.00    +0.295 HD
ENDBRANCH  27  29
ENDBRANCH  20  27
ENDBRANCH  18  22
ENDBRANCH   1  18
BRANCH   2  31
ATOM     31  C   UNL     1       9.415  -0.356  25.005  0.00  0.00    +0.142 C 
BRANCH  31  32
ATOM     32  N   UNL     1      10.568   0.482  25.383  0.00  0.00    -0.320 NA
ATOM     33  H   UNL     1      10.310   1.460  25.256  0.00  0.00    +0.119 HD
ATOM     34  H   UNL     1      10.786   0.422  26.370  0.00  0.00    +0.119 HD
ENDBRANCH  31  32
BRANCH  31  35
ATOM     35  C   UNL     1       9.892  -1.788  24.617  0.00  0.00    +0.063 C 
BRANCH  35  36
ATOM     36  C   UNL     1       8.991  -2.762  23.857  0.00  0.00    -0.040 A 
ATOM     37  C   UNL     1       8.524  -2.495  22.536  0.00  0.00    -0.046 A 
ATOM     38  C   UNL     1       8.806  -1.252  21.734  0.00  0.00    +0.044 C 
ATOM     39  C   UNL     1       7.705  -3.429  21.871  0.00  0.00    +0.016 A 
ATOM     40  C   UNL     1       7.268  -4.596  22.483  0.00  0.00    +0.037 A 
ATOM     41  C   UNL     1       7.661  -4.836  23.797  0.00  0.00    +0.016 A 
ATOM     42  C   UNL     1       8.510  -3.942  24.496  0.00  0.00    -0.046 A 
ATOM     43  C   UNL     1       8.794  -4.351  25.924  0.00  0.00    +0.044 C 
BRANCH  40  44
ATOM     44  C   UNL     1       6.376  -5.500  21.690  0.00  0.00    +0.242 C 
ATOM     45  O   UNL     1       5.833  -5.109  20.649  0.00  0.00    -0.270 OA
ATOM     46  N   UNL     1       6.145  -6.753  22.143  0.00  0.00    -0.325 N 
ATOM     47  H   UNL     1       5.536  -7.329  21.586  0.00  0.00    +0.145 HD
ATOM     48  H   UNL     1       6.534  -7.157  22.987  0.00  0.00    +0.145 HD
ENDBRANCH  40  44
ENDBRANCH  35  36
ENDBRANCH  31  35
ENDBRANCH   2  31
TORSDOF 13
ENDMDL
MODEL 3
REMARK VINA RESULT:      -7.0      1.274      2.110
REMARK  Name = 
REMARK  17 active torsions:
REMARK  status: ('A' for Active; 'I' for Inactive)
REMARK    1  A    between atoms: C_1  and  O_2
REMARK    2  A    between atoms: O_2  and  C_3
REMARK    3  A    between atoms: C_6  and  C_7
REMARK    4  A    between atoms: C_7  and  N_8
REMARK    5  A    between atoms: N_8  and  C_9
REMARK    6  A    between atoms: C_9  and  C_11
REMARK    7  A    between atoms: C_9  and  C_12
REMARK    8  A    between atoms: C_14  and  C_17
REMARK    9  A    between atoms: C_23  and  C_25
REMARK   10  A    between atoms: C_25  and  N_27
REMARK   11  A    between atoms: C_25  and  C_28
REMARK   12  A    between atoms: C_28  and  C_29
REMARK   13  A    between atoms: C_30  and  C_31
REMARK   14  A    between atoms: C_33  and  C_37
REMARK   15  A    between atoms: C_35  and  C_36
REMARK   16  A    between atoms: C_41  and  C_42
REMARK   17  A    between atoms: C_42  and  O_43
REMARK                            x       y       z     vdW  Elec       q    Type
REMARK                         _______ _______ _______ _____ _____    ______ ____
ROOT
ATOM      1  N   UNL     1       7.448   0.455  26.107  0.00  0.00    -0.286 N 
ATOM      2  C   UNL     1       8.675  -0.222  26.239  0.00  0.00    +0.234 C 
ATOM      3  O   UNL     1       8.908  -0.857  27.279  0.00  0.00    -0.274 OA
ENDROOT
BRANCH   1   4
ATOM      4  C   UNL     1       6.449   0.303  27.204  0.00  0.00    +0.139 C 
ATOM      5  C   UNL     1       5.577   1.533  27.504  0.00  0.00    +0.036 C 
BRANCH   4   6
ATOM      6  C   UNL     1       5.573  -0.877  26.866  0.00  0.00    +0.128 A 
ATOM      7  N   UNL     1       4.217  -0.732  26.711  0.00  0.00    -0.346 N 
ATOM      8  H   UNL     1       3.726   0.153  26.760  0.00  0.00    +0.167 HD
ATOM      9  C   UNL     1       3.684  -1.975  26.507  0.00  0.00    +0.112 A 
ATOM     10  C   UNL     1       4.768  -2.814  26.373  0.00  0.00    +0.089 A 
ATOM     11  N   UNL     1       5.928  -2.135  26.684  0.00  0.00    -0.231 NA
BRANCH  10  12
ATOM     12  C   UNL     1       4.764  -4.160  25.815  0.00  0.00    +0.002 A 
ATOM     13  C   UNL     1       5.421  -5.222  26.457  0.00  0.00    +0.010 A 
ATOM     14  C   UNL     1       5.170  -6.545  26.081  0.00  0.00    +0.001 A 
ATOM     15  C   UNL     1       4.278  -6.820  25.047  0.00  0.00    +0.000 A 
ATOM     16  C   UNL     1       3.684  -5.773  24.347  0.00  0.00    +0.001 A 
ATOM     17  C   UNL     1       3.937  -4.449  24.721  0.00  0.00    +0.010 A 
ENDBRANCH  10  12
ENDBRANCH   4   6
ENDBRANCH   1   4
BRANCH   1  18
ATOM     18  C   UNL     1       6.930   0.900  24.822  0.00  0.00    +0.143 C 
BRANCH  18  22
ATOM     19  C   UNL     1       8.008   4.737  23.287  0.00  0.00    +0.134 A 
ATOM     20  C   UNL     1       8.398   4.402  24.589  0.00  0.00    +0.101 A 
ATOM     21  C   UNL     1       8.327   3.056  24.985  0.00  0.00    +0.023 A 
ATOM     22  C   UNL     1       7.589   2.131  24.227  0.00  0.00    -0.029 A 
ATOM     23  C   UNL     1       7.186   2.488  22.939  0.00  0.00    +0.009 A 
ATOM     24  C   UNL     1       7.405   3.776  22.470  0.00  0.00    +0.047 A 
BRANCH  19  26
ATOM     25  C   UNL     1       7.216   6.356  21.836  0.00  0.00    +0.277 C 
ATOM     26  O   UNL     1       8.186   6.023  22.837  0.00  0.00    -0.494 OA
ENDBRANCH  19  26
BRANCH  20  27
ATOM     27  C   UNL     1       8.705   5.407  25.659  0.00  0.00    +0.340 C 
ATOM     28  O   UNL     1       8.130   5.417  26.737  0.00  0.00    -0.245 OA
BRANCH  27  29
ATOM     29  O   UNL     1       9.571   6.384  25.311  0.00  0.00    -0.477 OA
ATOM     30  H   UNL     1      10.185   6.636  26.031  0.00  0.00    +0.295 HD
ENDBRANCH  27  29
ENDBRANCH  20  27
ENDBRANCH  18  22
ENDBRANCH   1  18
BRANCH   2  31
ATOM     31  C   UNL     1       9.649  -0.353  25.016  0.00  0.00    +0.142 C 
BRANCH  31  32
ATOM     32  N   UNL     1      10.857   0.490  25.074  0.00  0.00    -0.320 NA
ATOM     33  H   UNL     1      11.602  -0.047  25.520  0.00  0.00    +0.119 HD
ATOM     34  H   UNL     1      11.233   0.697  24.158  0.00  0.00    +0.119 HD
ENDBRANCH  31  32
BRANCH  31  35
ATOM     35  C   UNL     1      10.030  -1.818  24.645  0.00  0.00    +0.063 C 
BRANCH  35  36
ATOM     36  C   UNL     1       9.077  -2.730  23.871  0.00  0.00    -0.040 A 
ATOM     37  C   UNL     1       8.485  -2.338  22.634  0.00  0.00    -0.046 A 
ATOM     38  C   UNL     1       8.671  -1.011  21.947  0.00  0.00    +0.044 C 
ATOM     39  C   UNL     1       7.622  -3.217  21.950  0.00  0.00    +0.016 A 
ATOM     40  C   UNL     1       7.263  -4.453  22.471  0.00  0.00    +0.037 A 
ATOM     41  C   UNL     1       7.780  -4.820  23.711  0.00  0.00    +0.016 A 
ATOM     42  C   UNL     1       8.676  -3.982  24.421  0.00  0.00    -0.046 A 
ATOM     43  C   UNL     1       9.098  -4.532  25.765  0.00  0.00    +0.044 C 
BRANCH  40  44
ATOM     44  C   UNL     1       6.315  -5.291  21.671  0.00  0.00    +0.242 C 
ATOM     45  O   UNL     1       5.669  -4.807  20.733  0.00  0.00    -0.270 OA
ATOM     46  N   UNL     1       6.148  -6.591  22.005  0.00  0.00    -0.325 N 
ATOM     47  H   UNL     1       5.499  -7.121  21.447  0.00  0.00    +0.145 HD
ATOM     48  H   UNL     1       6.622  -7.072  22.760  0.00  0.00    +0.145 HD
ENDBRANCH  40  44
ENDBRANCH  35  36
ENDBRANCH  31  35
ENDBRANCH   2  31
TORSDOF 13
ENDMDL
MODEL 4
REMARK VINA RESULT:      -7.0      2.958      8.319
REMARK  Name = 
REMARK  17 active torsions:
REMARK  status: ('A' for Active; 'I' for Inactive)
REMARK    1  A    between atoms: C_1  and  O_2
REMARK    2  A    between atoms: O_2  and  C_3
REMARK    3  A    between atoms: C_6  and  C_7
REMARK    4  A    between atoms: C_7  and  N_8
REMARK    5  A    between atoms: N_8  and  C_9
REMARK    6  A    between atoms: C_9  and  C_11
REMARK    7  A    between atoms: C_9  and  C_12
REMARK    8  A    between atoms: C_14  and  C_17
REMARK    9  A    between atoms: C_23  and  C_25
REMARK   10  A    between atoms: C_25  and  N_27
REMARK   11  A    between atoms: C_25  and  C_28
REMARK   12  A    between atoms: C_28  and  C_29
REMARK   13  A    between atoms: C_30  and  C_31
REMARK   14  A    between atoms: C_33  and  C_37
REMARK   15  A    between atoms: C_35  and  C_36
REMARK   16  A    between atoms: C_41  and  C_42
REMARK   17  A    between atoms: C_42  and  O_43
REMARK                            x       y       z     vdW  Elec       q    Type
REMARK                         _______ _______ _______ _____ _____    ______ ____
ROOT
ATOM      1  N   UNL     1       7.280  -1.017  24.389  0.00  0.00    -0.286 N 
ATOM      2  C   UNL     1       8.000  -2.101  23.853  0.00  0.00    +0.234 C 
ATOM      3  O   UNL     1       9.216  -2.193  24.078  0.00  0.00    -0.274 OA
ENDROOT
BRANCH   1   4
ATOM      4  C   UNL     1       8.012  -0.070  25.279  0.00  0.00    +0.139 C 
ATOM      5  C   UNL     1       9.012  -0.697  26.263  0.00  0.00    +0.036 C 
BRANCH   4   6
ATOM      6  C   UNL     1       8.717   0.932  24.400  0.00  0.00    +0.128 A 
ATOM      7  N   UNL     1       8.590   0.891  23.035  0.00  0.00    -0.346 N 
ATOM      8  H   UNL     1       7.996   0.242  22.534  0.00  0.00    +0.167 HD
ATOM      9  C   UNL     1       9.411   1.852  22.509  0.00  0.00    +0.112 A 
ATOM     10  C   UNL     1       9.878   2.559  23.595  0.00  0.00    +0.089 A 
ATOM     11  N   UNL     1       9.509   1.924  24.762  0.00  0.00    -0.231 NA
BRANCH  10  12
ATOM     12  C   UNL     1      10.507   3.873  23.573  0.00  0.00    +0.002 A 
ATOM     13  C   UNL     1       9.850   5.010  24.070  0.00  0.00    +0.010 A 
ATOM     14  C   UNL     1      10.558   6.191  24.314  0.00  0.00    +0.001 A 
ATOM     15  C   UNL     1      11.923   6.256  24.045  0.00  0.00    +0.000 A 
ATOM     16  C   UNL     1      12.569   5.162  23.475  0.00  0.00    +0.001 A 
ATOM     17  C   UNL     1      11.861   3.982  23.227  0.00  0.00    +0.010 A 
ENDBRANCH  10  12
ENDBRANCH   4   6
ENDBRANCH   1   4
BRANCH   1  18
ATOM     18  C   UNL     1       5.830  -1.014  24.501  0.00  0.00    +0.143 C 
BRANCH  18  22
ATOM     19  C   UNL     1       3.668  -3.086  27.547  0.00  0.00    +0.134 A 
ATOM     20  C   UNL     1       3.275  -3.253  26.215  0.00  0.00    +0.101 A 
ATOM     21  C   UNL     1       4.153  -2.839  25.200  0.00  0.00    +0.023 A 
ATOM     22  C   UNL     1       5.235  -1.993  25.497  0.00  0.00    -0.029 A 
ATOM     23  C   UNL     1       5.601  -1.817  26.833  0.00  0.00    +0.009 A 
ATOM     24  C   UNL     1       4.831  -2.369  27.848  0.00  0.00    +0.047 A 
BRANCH  19  26
ATOM     25  C   UNL     1       3.629  -3.721  29.772  0.00  0.00    +0.277 C 
ATOM     26  O   UNL     1       2.884  -3.596  28.554  0.00  0.00    -0.494 OA
ENDBRANCH  19  26
BRANCH  20  27
ATOM     27  C   UNL     1       1.897  -3.666  25.791  0.00  0.00    +0.340 C 
ATOM     28  O   UNL     1       1.132  -2.910  25.213  0.00  0.00    -0.245 OA
BRANCH  27  29
ATOM     29  O   UNL     1       1.504  -4.892  26.202  0.00  0.00    -0.477 OA
ATOM     30  H   UNL     1       1.758  -5.610  25.586  0.00  0.00    +0.295 HD
ENDBRANCH  27  29
ENDBRANCH  20  27
ENDBRANCH  18  22
ENDBRANCH   1  18
BRANCH   2  31
ATOM     31  C   UNL     1       7.248  -3.289  23.156  0.00  0.00    +0.142 C 
BRANCH  31  32
ATOM     32  N   UNL     1       7.343  -3.324  21.685  0.00  0.00    -0.320 NA
ATOM     33  H   UNL     1       8.233  -3.753  21.430  0.00  0.00    +0.119 HD
ATOM     34  H   UNL     1       6.657  -3.939  21.264  0.00  0.00    +0.119 HD
ENDBRANCH  31  32
BRANCH  31  35
ATOM     35  C   UNL     1       7.565  -4.695  23.751  0.00  0.00    +0.063 C 
BRANCH  35  36
ATOM     36  C   UNL     1       6.743  -5.292  24.894  0.00  0.00    -0.040 A 
ATOM     37  C   UNL     1       5.489  -5.934  24.676  0.00  0.00    -0.046 A 
ATOM     38  C   UNL     1       4.793  -6.084  23.349  0.00  0.00    +0.044 C 
ATOM     39  C   UNL     1       4.773  -6.480  25.759  0.00  0.00    +0.016 A 
ATOM     40  C   UNL     1       5.215  -6.363  27.070  0.00  0.00    +0.037 A 
ATOM     41  C   UNL     1       6.406  -5.680  27.305  0.00  0.00    +0.016 A 
ATOM     42  C   UNL     1       7.176  -5.140  26.244  0.00  0.00    -0.046 A 
ATOM     43  C   UNL     1       8.414  -4.399  26.697  0.00  0.00    +0.044 C 
BRANCH  40  44
ATOM     44  C   UNL     1       4.358  -6.957  28.145  0.00  0.00    +0.242 C 
ATOM     45  O   UNL     1       4.845  -7.321  29.222  0.00  0.00    -0.270 OA
ATOM     46  N   UNL     1       3.036  -7.120  27.912  0.00  0.00    -0.325 N 
ATOM     47  H   UNL     1       2.493  -7.527  28.656  0.00  0.00    +0.145 HD
ATOM     48  H   UNL     1       2.550  -6.864  27.061  0.00  0.00    +0.145 HD
ENDBRANCH  40  44
ENDBRANCH  35  36
ENDBRANCH  31  35
ENDBRANCH   2  31
TORSDOF 13
ENDMDL
MODEL 5
REMARK VINA RESULT:      -6.9      2.909      8.076
REMARK  Name = 
REMARK  17 active torsions:
REMARK  status: ('A' for Active; 'I' for Inactive)
REMARK    1  A    between atoms: C_1  and  O_2
REMARK    2  A    between atoms: O_2  and  C_3
REMARK    3  A    between atoms: C_6  and  C_7
REMARK    4  A    between atoms: C_7  and  N_8
REMARK    5  A    between atoms: N_8  and  C_9
REMARK    6  A    between atoms: C_9  and  C_11
REMARK    7  A    between atoms: C_9  and  C_12
REMARK    8  A    between atoms: C_14  and  C_17
REMARK    9  A    between atoms: C_23  and  C_25
REMARK   10  A    between atoms: C_25  and  N_27
REMARK   11  A    between atoms: C_25  and  C_28
REMARK   12  A    between atoms: C_28  and  C_29
REMARK   13  A    between atoms: C_30  and  C_31
REMARK   14  A    between atoms: C_33  and  C_37
REMARK   15  A    between atoms: C_35  and  C_36
REMARK   16  A    between atoms: C_41  and  C_42
REMARK   17  A    between atoms: C_42  and  O_43
REMARK                            x       y       z     vdW  Elec       q    Type
REMARK                         _______ _______ _______ _____ _____    ______ ____
ROOT
ATOM      1  N   UNL     1       7.221  -0.996  24.827  0.00  0.00    -0.286 N 
ATOM      2  C   UNL     1       7.970  -2.011  24.204  0.00  0.00    +0.234 C 
ATOM      3  O   UNL     1       9.174  -2.133  24.477  0.00  0.00    -0.274 OA
ENDROOT
BRANCH   1   4
ATOM      4  C   UNL     1       7.905  -0.161  25.856  0.00  0.00    +0.139 C 
ATOM      5  C   UNL     1       8.936  -0.880  26.740  0.00  0.00    +0.036 C 
BRANCH   4   6
ATOM      6  C   UNL     1       8.559   0.998  25.146  0.00  0.00    +0.128 A 
ATOM      7  N   UNL     1       9.827   0.891  24.633  0.00  0.00    -0.346 N 
ATOM      8  H   UNL     1      10.381   0.043  24.646  0.00  0.00    +0.167 HD
ATOM      9  C   UNL     1      10.184   2.116  24.140  0.00  0.00    +0.112 A 
ATOM     10  C   UNL     1       9.042   2.882  24.219  0.00  0.00    +0.089 A 
ATOM     11  N   UNL     1       8.070   2.203  24.924  0.00  0.00    -0.231 NA
BRANCH  10  12
ATOM     12  C   UNL     1       8.786   4.139  23.527  0.00  0.00    +0.002 A 
ATOM     13  C   UNL     1       7.679   4.297  22.678  0.00  0.00    +0.010 A 
ATOM     14  C   UNL     1       7.281   5.570  22.258  0.00  0.00    +0.001 A 
ATOM     15  C   UNL     1       7.995   6.695  22.665  0.00  0.00    +0.000 A 
ATOM     16  C   UNL     1       9.143   6.545  23.439  0.00  0.00    +0.001 A 
ATOM     17  C   UNL     1       9.544   5.272  23.856  0.00  0.00    +0.010 A 
ENDBRANCH  10  12
ENDBRANCH   4   6
ENDBRANCH   1   4
BRANCH   1  18
ATOM     18  C   UNL     1       5.767  -1.002  24.866  0.00  0.00    +0.143 C 
BRANCH  18  22
ATOM     19  C   UNL     1       3.521  -3.397  27.597  0.00  0.00    +0.134 A 
ATOM     20  C   UNL     1       3.105  -3.333  26.263  0.00  0.00    +0.101 A 
ATOM     21  C   UNL     1       3.995  -2.816  25.307  0.00  0.00    +0.023 A 
ATOM     22  C   UNL     1       5.127  -2.089  25.711  0.00  0.00    -0.029 A 
ATOM     23  C   UNL     1       5.516  -2.142  27.050  0.00  0.00    +0.009 A 
ATOM     24  C   UNL     1       4.726  -2.801  27.982  0.00  0.00    +0.047 A 
BRANCH  19  26
ATOM     25  C   UNL     1       2.639  -3.238  29.731  0.00  0.00    +0.277 C 
ATOM     26  O   UNL     1       2.719  -4.013  28.528  0.00  0.00    -0.494 OA
ENDBRANCH  19  26
BRANCH  20  27
ATOM     27  C   UNL     1       1.700  -3.598  25.807  0.00  0.00    +0.340 C 
ATOM     28  O   UNL     1       1.086  -2.828  25.085  0.00  0.00    -0.245 OA
BRANCH  27  29
ATOM     29  O   UNL     1       1.107  -4.686  26.348  0.00  0.00    -0.477 OA
ATOM     30  H   UNL     1       0.369  -5.036  25.808  0.00  0.00    +0.295 HD
ENDBRANCH  27  29
ENDBRANCH  20  27
ENDBRANCH  18  22
ENDBRANCH   1  18
BRANCH   2  31
ATOM     31  C   UNL     1       7.258  -3.109  23.337  0.00  0.00    +0.142 C 
BRANCH  31  32
ATOM     32  N   UNL     1       7.450  -2.989  21.880  0.00  0.00    -0.320 NA
ATOM     33  H   UNL     1       8.451  -2.950  21.690  0.00  0.00    +0.119 HD
ATOM     34  H   UNL     1       7.148  -3.814  21.378  0.00  0.00    +0.119 HD
ENDBRANCH  31  32
BRANCH  31  35
ATOM     35  C   UNL     1       7.525  -4.574  23.798  0.00  0.00    +0.063 C 
BRANCH  35  36
ATOM     36  C   UNL     1       6.829  -5.175  25.019  0.00  0.00    -0.040 A 
ATOM     37  C   UNL     1       7.423  -5.166  26.316  0.00  0.00    -0.046 A 
ATOM     38  C   UNL     1       8.783  -4.619  26.661  0.00  0.00    +0.044 C 
ATOM     39  C   UNL     1       6.738  -5.722  27.415  0.00  0.00    +0.016 A 
ATOM     40  C   UNL     1       5.508  -6.351  27.276  0.00  0.00    +0.037 A 
ATOM     41  C   UNL     1       4.947  -6.427  26.003  0.00  0.00    +0.016 A 
ATOM     42  C   UNL     1       5.585  -5.854  24.874  0.00  0.00    -0.046 A 
ATOM     43  C   UNL     1       4.844  -6.073  23.573  0.00  0.00    +0.044 C 
BRANCH  40  44
ATOM     44  C   UNL     1       4.886  -6.932  28.508  0.00  0.00    +0.242 C 
ATOM     45  O   UNL     1       5.576  -7.230  29.491  0.00  0.00    -0.270 OA
ATOM     46  N   UNL     1       3.553  -7.157  28.524  0.00  0.00    -0.325 N 
ATOM     47  H   UNL     1       3.172  -7.553  29.368  0.00  0.00    +0.145 HD
ATOM     48  H   UNL     1       2.911  -6.957  27.767  0.00  0.00    +0.145 HD
ENDBRANCH  40  44
ENDBRANCH  35  36
ENDBRANCH  31  35
ENDBRANCH   2  31
TORSDOF 13
ENDMDL
MODEL 6
REMARK VINA RESULT:      -6.8      2.306      3.433
REMARK  Name = 
REMARK  17 active torsions:
REMARK  status: ('A' for Active; 'I' for Inactive)
REMARK    1  A    between atoms: C_1  and  O_2
REMARK    2  A    between atoms: O_2  and  C_3
REMARK    3  A    between atoms: C_6  and  C_7
REMARK    4  A    between atoms: C_7  and  N_8
REMARK    5  A    between atoms: N_8  and  C_9
REMARK    6  A    between atoms: C_9  and  C_11
REMARK    7  A    between atoms: C_9  and  C_12
REMARK    8  A    between atoms: C_14  and  C_17
REMARK    9  A    between atoms: C_23  and  C_25
REMARK   10  A    between atoms: C_25  and  N_27
REMARK   11  A    between atoms: C_25  and  C_28
REMARK   12  A    between atoms: C_28  and  C_29
REMARK   13  A    between atoms: C_30  and  C_31
REMARK   14  A    between atoms: C_33  and  C_37
REMARK   15  A    between atoms: C_35  and  C_36
REMARK   16  A    between atoms: C_41  and  C_42
REMARK   17  A    between atoms: C_42  and  O_43
REMARK                            x       y       z     vdW  Elec       q    Type
REMARK                         _______ _______ _______ _____ _____    ______ ____
ROOT
ATOM      1  N   UNL     1       7.035  -1.185  25.841  0.00  0.00    -0.286 N 
ATOM      2  C   UNL     1       8.136  -2.061  25.817  0.00  0.00    +0.234 C 
ATOM      3  O   UNL     1       8.693  -2.366  26.883  0.00  0.00    -0.274 OA
ENDROOT
BRANCH   1   4
ATOM      4  C   UNL     1       6.539  -0.729  27.172  0.00  0.00    +0.139 C 
ATOM      5  C   UNL     1       6.375   0.788  27.354  0.00  0.00    +0.036 C 
BRANCH   4   6
ATOM      6  C   UNL     1       5.225  -1.422  27.433  0.00  0.00    +0.128 A 
ATOM      7  N   UNL     1       4.036  -0.744  27.347  0.00  0.00    -0.346 N 
ATOM      8  H   UNL     1       3.948   0.225  27.062  0.00  0.00    +0.167 HD
ATOM      9  C   UNL     1       3.037  -1.598  27.726  0.00  0.00    +0.112 A 
ATOM     10  C   UNL     1       3.647  -2.825  27.864  0.00  0.00    +0.089 A 
ATOM     11  N   UNL     1       5.016  -2.682  27.765  0.00  0.00    -0.231 NA
BRANCH  10  12
ATOM     12  C   UNL     1       2.989  -4.124  27.923  0.00  0.00    +0.002 A 
ATOM     13  C   UNL     1       1.955  -4.464  27.036  0.00  0.00    +0.010 A 
ATOM     14  C   UNL     1       1.538  -5.792  26.906  0.00  0.00    +0.001 A 
ATOM     15  C   UNL     1       2.133  -6.790  27.674  0.00  0.00    +0.000 A 
ATOM     16  C   UNL     1       3.101  -6.454  28.616  0.00  0.00    +0.001 A 
ATOM     17  C   UNL     1       3.517  -5.126  28.749  0.00  0.00    +0.010 A 
ENDBRANCH  10  12
ENDBRANCH   4   6
ENDBRANCH   1   4
BRANCH   1  18
ATOM     18  C   UNL     1       6.103  -1.063  24.731  0.00  0.00    +0.143 C 
BRANCH  18  22
ATOM     19  C   UNL     1       7.367   2.424  22.613  0.00  0.00    +0.134 A 
ATOM     20  C   UNL     1       8.013   1.211  22.352  0.00  0.00    +0.101 A 
ATOM     21  C   UNL     1       7.412   0.022  22.798  0.00  0.00    +0.023 A 
ATOM     22  C   UNL     1       6.378   0.061  23.749  0.00  0.00    -0.029 A 
ATOM     23  C   UNL     1       5.759   1.283  24.016  0.00  0.00    +0.009 A 
ATOM     24  C   UNL     1       6.242   2.452  23.443  0.00  0.00    +0.047 A 
BRANCH  19  26
ATOM     25  C   UNL     1       7.913   4.627  23.065  0.00  0.00    +0.277 C 
ATOM     26  O   UNL     1       7.869   3.587  22.080  0.00  0.00    -0.494 OA
ENDBRANCH  19  26
BRANCH  20  27
ATOM     27  C   UNL     1       9.403   1.101  21.799  0.00  0.00    +0.340 C 
ATOM     28  O   UNL     1      10.018   0.046  21.771  0.00  0.00    -0.245 OA
BRANCH  27  29
ATOM     29  O   UNL     1       9.985   2.269  21.447  0.00  0.00    -0.477 OA
ATOM     30  H   UNL     1      10.327   2.274  20.530  0.00  0.00    +0.295 HD
ENDBRANCH  27  29
ENDBRANCH  20  27
ENDBRANCH  18  22
ENDBRANCH   1  18
BRANCH   2  31
ATOM     31  C   UNL     1       8.530  -2.809  24.495  0.00  0.00    +0.142 C 
BRANCH  31  32
ATOM     32  N   UNL     1       9.813  -2.401  23.893  0.00  0.00    -0.320 NA
ATOM     33  H   UNL     1      10.554  -2.975  24.295  0.00  0.00    +0.119 HD
ATOM     34  H   UNL     1       9.863  -2.610  22.904  0.00  0.00    +0.119 HD
ENDBRANCH  31  32
BRANCH  31  35
ATOM     35  C   UNL     1       8.444  -4.363  24.579  0.00  0.00    +0.063 C 
BRANCH  35  36
ATOM     36  C   UNL     1       7.112  -5.106  24.465  0.00  0.00    -0.040 A 
ATOM     37  C   UNL     1       6.445  -5.286  23.218  0.00  0.00    -0.046 A 
ATOM     38  C   UNL     1       6.910  -4.763  21.884  0.00  0.00    +0.044 C 
ATOM     39  C   UNL     1       5.225  -5.988  23.160  0.00  0.00    +0.016 A 
ATOM     40  C   UNL     1       4.596  -6.470  24.300  0.00  0.00    +0.037 A 
ATOM     41  C   UNL     1       5.203  -6.242  25.533  0.00  0.00    +0.016 A 
ATOM     42  C   UNL     1       6.446  -5.568  25.637  0.00  0.00    -0.046 A 
ATOM     43  C   UNL     1       6.926  -5.380  27.059  0.00  0.00    +0.044 C 
BRANCH  40  44
ATOM     44  C   UNL     1       3.287  -7.175  24.122  0.00  0.00    +0.242 C 
ATOM     45  O   UNL     1       3.102  -8.305  24.592  0.00  0.00    -0.270 OA
ATOM     46  N   UNL     1       2.309  -6.571  23.410  0.00  0.00    -0.325 N 
ATOM     47  H   UNL     1       1.446  -7.079  23.308  0.00  0.00    +0.145 HD
ATOM     48  H   UNL     1       2.371  -5.656  22.980  0.00  0.00    +0.145 HD
ENDBRANCH  40  44
ENDBRANCH  35  36
ENDBRANCH  31  35
ENDBRANCH   2  31
TORSDOF 13
ENDMDL
MODEL 7
REMARK VINA RESULT:      -6.7      2.279      4.235
REMARK  Name = 
REMARK  17 active torsions:
REMARK  status: ('A' for Active; 'I' for Inactive)
REMARK    1  A    between atoms: C_1  and  O_2
REMARK    2  A    between atoms: O_2  and  C_3
REMARK    3  A    between atoms: C_6  and  C_7
REMARK    4  A    between atoms: C_7  and  N_8
REMARK    5  A    between atoms: N_8  and  C_9
REMARK    6  A    between atoms: C_9  and  C_11
REMARK    7  A    between atoms: C_9  and  C_12
REMARK    8  A    between atoms: C_14  and  C_17
REMARK    9  A    between atoms: C_23  and  C_25
REMARK   10  A    between atoms: C_25  and  N_27
REMARK   11  A    between atoms: C_25  and  C_28
REMARK   12  A    between atoms: C_28  and  C_29
REMARK   13  A    between atoms: C_30  and  C_31
REMARK   14  A    between atoms: C_33  and  C_37
REMARK   15  A    between atoms: C_35  and  C_36
REMARK   16  A    between atoms: C_41  and  C_42
REMARK   17  A    between atoms: C_42  and  O_43
REMARK                            x       y       z     vdW  Elec       q    Type
REMARK                         _______ _______ _______ _____ _____    ______ ____
ROOT
ATOM      1  N   UNL     1       7.449   1.408  24.010  0.00  0.00    -0.286 N 
ATOM      2  C   UNL     1       6.366   1.442  24.908  0.00  0.00    +0.234 C 
ATOM      3  O   UNL     1       5.223   1.200  24.490  0.00  0.00    -0.274 OA
ENDROOT
BRANCH   1   4
ATOM      4  C   UNL     1       7.171   1.000  22.603  0.00  0.00    +0.139 C 
ATOM      5  C   UNL     1       8.017   1.683  21.517  0.00  0.00    +0.036 C 
BRANCH   4   6
ATOM      6  C   UNL     1       7.340  -0.496  22.518  0.00  0.00    +0.128 A 
ATOM      7  N   UNL     1       8.583  -1.064  22.391  0.00  0.00    -0.346 N 
ATOM      8  H   UNL     1       9.453  -0.545  22.395  0.00  0.00    +0.167 HD
ATOM      9  C   UNL     1       8.414  -2.413  22.243  0.00  0.00    +0.112 A 
ATOM     10  C   UNL     1       7.072  -2.634  22.461  0.00  0.00    +0.089 A 
ATOM     11  N   UNL     1       6.406  -1.428  22.543  0.00  0.00    -0.231 NA
BRANCH  10  12
ATOM     12  C   UNL     1       6.434  -3.912  22.751  0.00  0.00    +0.002 A 
ATOM     13  C   UNL     1       5.100  -3.986  23.179  0.00  0.00    +0.010 A 
ATOM     14  C   UNL     1       4.417  -5.206  23.170  0.00  0.00    +0.001 A 
ATOM     15  C   UNL     1       5.065  -6.366  22.754  0.00  0.00    +0.000 A 
ATOM     16  C   UNL     1       6.412  -6.321  22.406  0.00  0.00    +0.001 A 
ATOM     17  C   UNL     1       7.097  -5.102  22.418  0.00  0.00    +0.010 A 
ENDBRANCH  10  12
ENDBRANCH   4   6
ENDBRANCH   1   4
BRANCH   1  18
ATOM     18  C   UNL     1       8.832   1.305  24.449  0.00  0.00    +0.143 C 
BRANCH  18  22
ATOM     19  C   UNL     1      11.005   4.827  23.391  0.00  0.00    +0.134 A 
ATOM     20  C   UNL     1       9.697   4.964  23.870  0.00  0.00    +0.101 A 
ATOM     21  C   UNL     1       9.096   3.865  24.505  0.00  0.00    +0.023 A 
ATOM     22  C   UNL     1       9.652   2.581  24.378  0.00  0.00    -0.029 A 
ATOM     23  C   UNL     1      10.948   2.457  23.876  0.00  0.00    +0.009 A 
ATOM     24  C   UNL     1      11.623   3.572  23.398  0.00  0.00    +0.047 A 
BRANCH  19  26
ATOM     25  C   UNL     1      13.003   5.594  22.512  0.00  0.00    +0.277 C 
ATOM     26  O   UNL     1      11.657   5.922  22.879  0.00  0.00    -0.494 OA
ENDBRANCH  19  26
BRANCH  20  27
ATOM     27  C   UNL     1       8.816   6.144  23.580  0.00  0.00    +0.340 C 
ATOM     28  O   UNL     1       8.292   6.806  24.463  0.00  0.00    -0.245 OA
BRANCH  27  29
ATOM     29  O   UNL     1       8.534   6.355  22.276  0.00  0.00    -0.477 OA
ATOM     30  H   UNL     1       9.330   6.441  21.713  0.00  0.00    +0.295 HD
ENDBRANCH  27  29
ENDBRANCH  20  27
ENDBRANCH  18  22
ENDBRANCH   1  18
BRANCH   2  31
ATOM     31  C   UNL     1       6.615   1.573  26.452  0.00  0.00    +0.142 C 
BRANCH  31  32
ATOM     32  N   UNL     1       6.245   2.871  27.046  0.00  0.00    -0.320 NA
ATOM     33  H   UNL     1       5.328   2.774  27.483  0.00  0.00    +0.119 HD
ATOM     34  H   UNL     1       6.847   3.132  27.817  0.00  0.00    +0.119 HD
ENDBRANCH  31  32
BRANCH  31  35
ATOM     35  C   UNL     1       6.035   0.404  27.304  0.00  0.00    +0.063 C 
BRANCH  35  36
ATOM     36  C   UNL     1       6.350  -1.059  26.990  0.00  0.00    -0.040 A 
ATOM     37  C   UNL     1       5.330  -2.048  26.867  0.00  0.00    -0.046 A 
ATOM     38  C   UNL     1       3.853  -1.823  27.055  0.00  0.00    +0.044 C 
ATOM     39  C   UNL     1       5.668  -3.382  26.564  0.00  0.00    +0.016 A 
ATOM     40  C   UNL     1       6.986  -3.800  26.440  0.00  0.00    +0.037 A 
ATOM     41  C   UNL     1       7.995  -2.857  26.624  0.00  0.00    +0.016 A 
ATOM     42  C   UNL     1       7.703  -1.498  26.899  0.00  0.00    -0.046 A 
ATOM     43  C   UNL     1       8.928  -0.635  27.108  0.00  0.00    +0.044 C 
BRANCH  40  44
ATOM     44  C   UNL     1       7.228  -5.248  26.145  0.00  0.00    +0.242 C 
ATOM     45  O   UNL     1       6.286  -6.043  26.036  0.00  0.00    -0.270 OA
ATOM     46  N   UNL     1       8.501  -5.688  26.027  0.00  0.00    -0.325 N 
ATOM     47  H   UNL     1       8.624  -6.669  25.834  0.00  0.00    +0.145 HD
ATOM     48  H   UNL     1       9.334  -5.117  26.111  0.00  0.00    +0.145 HD
ENDBRANCH  40  44
ENDBRANCH  35  36
ENDBRANCH  31  35
ENDBRANCH   2  31
TORSDOF 13
ENDMDL
MODEL 8
REMARK VINA RESULT:      -6.7      2.574      6.909
REMARK  Name = 
REMARK  17 active torsions:
REMARK  status: ('A' for Active; 'I' for Inactive)
REMARK    1  A    between atoms: C_1  and  O_2
REMARK    2  A    between atoms: O_2  and  C_3
REMARK    3  A    between atoms: C_6  and  C_7
REMARK    4  A    between atoms: C_7  and  N_8
REMARK    5  A    between atoms: N_8  and  C_9
REMARK    6  A    between atoms: C_9  and  C_11
REMARK    7  A    between atoms: C_9  and  C_12
REMARK    8  A    between atoms: C_14  and  C_17
REMARK    9  A    between atoms: C_23  and  C_25
REMARK   10  A    between atoms: C_25  and  N_27
REMARK   11  A    between atoms: C_25  and  C_28
REMARK   12  A    between atoms: C_28  and  C_29
REMARK   13  A    between atoms: C_30  and  C_31
REMARK   14  A    between atoms: C_33  and  C_37
REMARK   15  A    between atoms: C_35  and  C_36
REMARK   16  A    between atoms: C_41  and  C_42
REMARK   17  A    between atoms: C_42  and  O_43
REMARK                            x       y       z     vdW  Elec       q    Type
REMARK                         _______ _______ _______ _____ _____    ______ ____
ROOT
ATOM      1  N   UNL     1       8.070  -1.566  24.071  0.00  0.00    -0.286 N 
ATOM      2  C   UNL     1       7.611  -2.279  22.948  0.00  0.00    +0.234 C 
ATOM      3  O   UNL     1       8.374  -2.452  21.985  0.00  0.00    -0.274 OA
ENDROOT
BRANCH   1   4
ATOM      4  C   UNL     1       9.493  -1.121  24.077  0.00  0.00    +0.139 C 
ATOM      5  C   UNL     1      10.494  -2.033  23.351  0.00  0.00    +0.036 C 
BRANCH   4   6
ATOM      6  C   UNL     1       9.541   0.266  23.486  0.00  0.00    +0.128 A 
ATOM      7  N   UNL     1       9.755   0.459  22.145  0.00  0.00    -0.346 N 
ATOM      8  H   UNL     1       9.841  -0.288  21.465  0.00  0.00    +0.167 HD
ATOM      9  C   UNL     1       9.842   1.806  21.923  0.00  0.00    +0.112 A 
ATOM     10  C   UNL     1       9.505   2.390  23.124  0.00  0.00    +0.089 A 
ATOM     11  N   UNL     1       9.407   1.425  24.104  0.00  0.00    -0.231 NA
BRANCH  10  12
ATOM     12  C   UNL     1       9.119   3.779  23.339  0.00  0.00    +0.002 A 
ATOM     13  C   UNL     1      10.011   4.710  23.895  0.00  0.00    +0.010 A 
ATOM     14  C   UNL     1       9.742   6.080  23.827  0.00  0.00    +0.001 A 
ATOM     15  C   UNL     1       8.573   6.534  23.221  0.00  0.00    +0.000 A 
ATOM     16  C   UNL     1       7.641   5.617  22.740  0.00  0.00    +0.001 A 
ATOM     17  C   UNL     1       7.908   4.247  22.811  0.00  0.00    +0.010 A 
ENDBRANCH  10  12
ENDBRANCH   4   6
ENDBRANCH   1   4
BRANCH   1  18
ATOM     18  C   UNL     1       7.411  -1.629  25.366  0.00  0.00    +0.143 C 
BRANCH  18  22
ATOM     19  C   UNL     1       6.138   2.356  26.225  0.00  0.00    +0.134 A 
ATOM     20  C   UNL     1       5.468   1.639  25.228  0.00  0.00    +0.101 A 
ATOM     21  C   UNL     1       5.663   0.250  25.155  0.00  0.00    +0.023 A 
ATOM     22  C   UNL     1       6.735  -0.353  25.835  0.00  0.00    -0.029 A 
ATOM     23  C   UNL     1       7.410   0.383  26.810  0.00  0.00    +0.009 A 
ATOM     24  C   UNL     1       7.105   1.723  27.011  0.00  0.00    +0.047 A 
BRANCH  19  26
ATOM     25  C   UNL     1       7.076   4.458  26.464  0.00  0.00    +0.277 C 
ATOM     26  O   UNL     1       5.866   3.692  26.396  0.00  0.00    -0.494 OA
ENDBRANCH  19  26
BRANCH  20  27
ATOM     27  C   UNL     1       4.702   2.274  24.106  0.00  0.00    +0.340 C 
ATOM     28  O   UNL     1       3.568   2.708  24.245  0.00  0.00    -0.245 OA
BRANCH  27  29
ATOM     29  O   UNL     1       5.297   2.226  22.893  0.00  0.00    -0.477 OA
ATOM     30  H   UNL     1       5.078   2.989  22.320  0.00  0.00    +0.295 HD
ENDBRANCH  27  29
ENDBRANCH  20  27
ENDBRANCH  18  22
ENDBRANCH   1  18
BRANCH   2  31
ATOM     31  C   UNL     1       6.233  -3.028  22.989  0.00  0.00    +0.142 C 
BRANCH  31  32
ATOM     32  N   UNL     1       5.401  -2.892  21.778  0.00  0.00    -0.320 NA
ATOM     33  H   UNL     1       4.463  -2.612  22.063  0.00  0.00    +0.119 HD
ATOM     34  H   UNL     1       5.703  -2.131  21.182  0.00  0.00    +0.119 HD
ENDBRANCH  31  32
BRANCH  31  35
ATOM     35  C   UNL     1       6.320  -4.524  23.417  0.00  0.00    +0.063 C 
BRANCH  35  36
ATOM     36  C   UNL     1       6.293  -4.946  24.887  0.00  0.00    -0.040 A 
ATOM     37  C   UNL     1       7.485  -5.177  25.635  0.00  0.00    -0.046 A 
ATOM     38  C   UNL     1       8.892  -5.080  25.107  0.00  0.00    +0.044 C 
ATOM     39  C   UNL     1       7.411  -5.553  26.991  0.00  0.00    +0.016 A 
ATOM     40  C   UNL     1       6.198  -5.776  27.629  0.00  0.00    +0.037 A 
ATOM     41  C   UNL     1       5.027  -5.620  26.892  0.00  0.00    +0.016 A 
ATOM     42  C   UNL     1       5.052  -5.213  25.534  0.00  0.00    -0.046 A 
ATOM     43  C   UNL     1       3.685  -5.138  24.889  0.00  0.00    +0.044 C 
BRANCH  40  44
ATOM     44  C   UNL     1       6.241  -6.201  29.064  0.00  0.00    +0.242 C 
ATOM     45  O   UNL     1       5.957  -5.411  29.973  0.00  0.00    -0.270 OA
ATOM     46  N   UNL     1       6.625  -7.463  29.362  0.00  0.00    -0.325 N 
ATOM     47  H   UNL     1       6.646  -7.710  30.338  0.00  0.00    +0.145 HD
ATOM     48  H   UNL     1       6.886  -8.175  28.691  0.00  0.00    +0.145 HD
ENDBRANCH  40  44
ENDBRANCH  35  36
ENDBRANCH  31  35
ENDBRANCH   2  31
TORSDOF 13
ENDMDL
MODEL 9
REMARK VINA RESULT:      -6.6      2.760      7.583
REMARK  Name = 
REMARK  17 active torsions:
REMARK  status: ('A' for Active; 'I' for Inactive)
REMARK    1  A    between atoms: C_1  and  O_2
REMARK    2  A    between atoms: O_2  and  C_3
REMARK    3  A    between atoms: C_6  and  C_7
REMARK    4  A    between atoms: C_7  and  N_8
REMARK    5  A    between atoms: N_8  and  C_9
REMARK    6  A    between atoms: C_9  and  C_11
REMARK    7  A    between atoms: C_9  and  C_12
REMARK    8  A    between atoms: C_14  and  C_17
REMARK    9  A    between atoms: C_23  and  C_25
REMARK   10  A    between atoms: C_25  and  N_27
REMARK   11  A    between atoms: C_25  and  C_28
REMARK   12  A    between atoms: C_28  and  C_29
REMARK   13  A    between atoms: C_30  and  C_31
REMARK   14  A    between atoms: C_33  and  C_37
REMARK   15  A    between atoms: C_35  and  C_36
REMARK   16  A    between atoms: C_41  and  C_42
REMARK   17  A    between atoms: C_42  and  O_43
REMARK                            x       y       z     vdW  Elec       q    Type
REMARK                         _______ _______ _______ _____ _____    ______ ____
ROOT
ATOM      1  N   UNL     1       8.748  -1.372  24.065  0.00  0.00    -0.286 N 
ATOM      2  C   UNL     1       8.001  -1.930  23.011  0.00  0.00    +0.234 C 
ATOM      3  O   UNL     1       8.485  -1.951  21.869  0.00  0.00    -0.274 OA
ENDROOT
BRANCH   1   4
ATOM      4  C   UNL     1      10.131  -0.904  23.764  0.00  0.00    +0.139 C 
ATOM      5  C   UNL     1      10.882  -1.665  22.661  0.00  0.00    +0.036 C 
BRANCH   4   6
ATOM      6  C   UNL     1      10.052   0.561  23.413  0.00  0.00    +0.128 A 
ATOM      7  N   UNL     1       9.859   0.971  22.119  0.00  0.00    -0.346 N 
ATOM      8  H   UNL     1       9.708   0.346  21.336  0.00  0.00    +0.167 HD
ATOM      9  C   UNL     1       9.928   2.337  22.096  0.00  0.00    +0.112 A 
ATOM     10  C   UNL     1       9.990   2.715  23.419  0.00  0.00    +0.089 A 
ATOM     11  N   UNL     1      10.154   1.603  24.218  0.00  0.00    -0.231 NA
BRANCH  10  12
ATOM     12  C   UNL     1       9.741   4.046  23.958  0.00  0.00    +0.002 A 
ATOM     13  C   UNL     1       8.694   4.289  24.861  0.00  0.00    +0.010 A 
ATOM     14  C   UNL     1       8.645   5.482  25.588  0.00  0.00    +0.001 A 
ATOM     15  C   UNL     1       9.627   6.453  25.407  0.00  0.00    +0.000 A 
ATOM     16  C   UNL     1      10.625   6.259  24.455  0.00  0.00    +0.001 A 
ATOM     17  C   UNL     1      10.673   5.068  23.724  0.00  0.00    +0.010 A 
ENDBRANCH  10  12
ENDBRANCH   4   6
ENDBRANCH   1   4
BRANCH   1  18
ATOM     18  C   UNL     1       8.445  -1.629  25.465  0.00  0.00    +0.143 C 
BRANCH  18  22
ATOM     19  C   UNL     1       4.772   0.379  26.312  0.00  0.00    +0.134 A 
ATOM     20  C   UNL     1       4.943  -0.930  26.775  0.00  0.00    +0.101 A 
ATOM     21  C   UNL     1       6.236  -1.477  26.778  0.00  0.00    +0.023 A 
ATOM     22  C   UNL     1       7.268  -0.867  26.044  0.00  0.00    -0.029 A 
ATOM     23  C   UNL     1       7.074   0.431  25.568  0.00  0.00    +0.009 A 
ATOM     24  C   UNL     1       5.841   1.053  25.712  0.00  0.00    +0.047 A 
BRANCH  19  26
ATOM     25  C   UNL     1       3.466   1.799  27.589  0.00  0.00    +0.277 C 
ATOM     26  O   UNL     1       3.540   0.979  26.416  0.00  0.00    -0.494 OA
ENDBRANCH  19  26
BRANCH  20  27
ATOM     27  C   UNL     1       3.812  -1.864  27.089  0.00  0.00    +0.340 C 
ATOM     28  O   UNL     1       3.805  -2.580  28.079  0.00  0.00    -0.245 OA
BRANCH  27  29
ATOM     29  O   UNL     1       2.854  -1.960  26.141  0.00  0.00    -0.477 OA
ATOM     30  H   UNL     1       2.373  -1.121  25.985  0.00  0.00    +0.295 HD
ENDBRANCH  27  29
ENDBRANCH  20  27
ENDBRANCH  18  22
ENDBRANCH   1  18
BRANCH   2  31
ATOM     31  C   UNL     1       6.667  -2.705  23.302  0.00  0.00    +0.142 C 
BRANCH  31  32
ATOM     32  N   UNL     1       5.604  -2.538  22.294  0.00  0.00    -0.320 NA
ATOM     33  H   UNL     1       5.936  -1.888  21.581  0.00  0.00    +0.119 HD
ATOM     34  H   UNL     1       5.424  -3.386  21.773  0.00  0.00    +0.119 HD
ENDBRANCH  31  32
BRANCH  31  35
ATOM     35  C   UNL     1       6.855  -4.214  23.643  0.00  0.00    +0.063 C 
BRANCH  35  36
ATOM     36  C   UNL     1       6.542  -4.773  25.032  0.00  0.00    -0.040 A 
ATOM     37  C   UNL     1       7.566  -5.144  25.952  0.00  0.00    -0.046 A 
ATOM     38  C   UNL     1       9.049  -5.079  25.697  0.00  0.00    +0.044 C 
ATOM     39  C   UNL     1       7.229  -5.643  27.226  0.00  0.00    +0.016 A 
ATOM     40  C   UNL     1       5.913  -5.856  27.611  0.00  0.00    +0.037 A 
ATOM     41  C   UNL     1       4.904  -5.561  26.696  0.00  0.00    +0.016 A 
ATOM     42  C   UNL     1       5.193  -5.027  25.415  0.00  0.00    -0.046 A 
ATOM     43  C   UNL     1       3.972  -4.811  24.549  0.00  0.00    +0.044 C 
BRANCH  40  44
ATOM     44  C   UNL     1       5.674  -6.418  28.977  0.00  0.00    +0.242 C 
ATOM     45  O   UNL     1       6.336  -6.035  29.950  0.00  0.00    -0.270 OA
ATOM     46  N   UNL     1       4.738  -7.382  29.135  0.00  0.00    -0.325 N 
ATOM     47  H   UNL     1       4.610  -7.739  30.067  0.00  0.00    +0.145 HD
ATOM     48  H   UNL     1       4.157  -7.766  28.399  0.00  0.00    +0.145 HD
ENDBRANCH  40  44
ENDBRANCH  35  36
ENDBRANCH  31  35
ENDBRANCH   2  31
TORSDOF 13
ENDMDL
