MODEL 1
REMARK VINA RESULT:      -7.2      0.000      0.000
REMARK  Name = 
REMARK  4 active torsions:
REMARK  status: ('A' for Active; 'I' for Inactive)
REMARK    1  A    between atoms: C_2  and  C_3
REMARK    2  A    between atoms: C_3  and  C_4
REMARK    3  A    between atoms: N_14  and  C_15
REMARK    4  A    between atoms: C_17  and  C_20
REMARK                            x       y       z     vdW  Elec       q    Type
REMARK                         _______ _______ _______ _____ _____    ______ ____
ROOT
ATOM      1  O   UNL     1       9.113   0.623  21.433  0.00  0.00    -0.275 OA
ATOM      2  C   UNL     1       9.813   0.079  22.273  0.00  0.00    +0.223 C 
ATOM      3  N   UNL     1      10.363   0.816  23.385  0.00  0.00    -0.270 N 
ATOM      4  H   UNL     1      10.907   0.308  24.071  0.00  0.00    +0.156 HD
ENDROOT
BRANCH   3   5
ATOM      5  C   UNL     1      10.188   2.183  23.571  0.00  0.00    +0.120 A 
ATOM      6  N   UNL     1       9.038   2.776  24.034  0.00  0.00    -0.264 N 
ATOM      7  H   UNL     1       8.161   2.338  24.290  0.00  0.00    +0.190 HD
ATOM      8  N   UNL     1       9.124   4.108  24.159  0.00  0.00    -0.177 NA
ATOM      9  C   UNL     1      10.357   4.382  23.731  0.00  0.00    +0.068 A 
ATOM     10  C   UNL     1      11.066   3.220  23.358  0.00  0.00    +0.068 A 
BRANCH   9  11
ATOM     11  C   UNL     1      10.943   5.785  23.644  0.00  0.00    +0.040 C 
ATOM     12  C   UNL     1      12.440   5.967  23.787  0.00  0.00    +0.010 C 
ATOM     13  C   UNL     1      11.541   6.400  24.894  0.00  0.00    +0.010 C 
ENDBRANCH   9  11
ENDBRANCH   3   5
BRANCH   2  14
ATOM     14  C   UNL     1      10.170  -1.390  22.244  0.00  0.00    +0.131 C 
BRANCH  14  15
ATOM     15  C   UNL     1       9.165  -2.270  22.942  0.00  0.00    -0.038 A 
ATOM     16  C   UNL     1       7.968  -2.621  22.305  0.00  0.00    +0.005 A 
ATOM     17  C   UNL     1       7.070  -3.500  22.913  0.00  0.00    +0.009 A 
ATOM     18  C   UNL     1       7.349  -4.059  24.169  0.00  0.00    -0.018 A 
ATOM     19  C   UNL     1       6.471  -4.975  24.770  0.00  0.00    +0.008 A 
ATOM     20  C   UNL     1       6.769  -5.539  26.011  0.00  0.00    +0.001 A 
ATOM     21  C   UNL     1       7.943  -5.185  26.670  0.00  0.00    +0.001 A 
ATOM     22  C   UNL     1       8.824  -4.272  26.086  0.00  0.00    +0.008 A 
ATOM     23  C   UNL     1       8.546  -3.704  24.830  0.00  0.00    -0.018 A 
ATOM     24  C   UNL     1       9.439  -2.810  24.209  0.00  0.00    +0.012 A 
ENDBRANCH  14  15
ENDBRANCH   2  14
TORSDOF 4
ENDMDL
MODEL 2
REMARK VINA RESULT:      -7.0      2.700      8.207
REMARK  Name = 
REMARK  4 active torsions:
REMARK  status: ('A' for Active; 'I' for Inactive)
REMARK    1  A    between atoms: C_2  and  C_3
REMARK    2  A    between atoms: C_3  and  C_4
REMARK    3  A    between atoms: N_14  and  C_15
REMARK    4  A    between atoms: C_17  and  C_20
REMARK                            x       y       z     vdW  Elec       q    Type
REMARK                         _______ _______ _______ _____ _____    ______ ____
ROOT
ATOM      1  O   UNL     1      10.306  -2.092  22.501  0.00  0.00    -0.275 OA
ATOM      2  C   UNL     1       9.350  -1.444  22.104  0.00  0.00    +0.223 C 
ATOM      3  N   UNL     1       7.996  -1.849  22.396  0.00  0.00    -0.270 N 
ATOM      4  H   UNL     1       7.241  -1.256  22.072  0.00  0.00    +0.156 HD
ENDROOT
BRANCH   3   5
ATOM      5  C   UNL     1       7.666  -3.003  23.097  0.00  0.00    +0.120 A 
ATOM      6  N   UNL     1       7.652  -4.272  22.569  0.00  0.00    -0.264 N 
ATOM      7  H   UNL     1       7.855  -4.562  21.620  0.00  0.00    +0.190 HD
ATOM      8  N   UNL     1       7.331  -5.227  23.453  0.00  0.00    -0.177 NA
ATOM      9  C   UNL     1       7.099  -4.546  24.577  0.00  0.00    +0.068 A 
ATOM     10  C   UNL     1       7.298  -3.159  24.414  0.00  0.00    +0.068 A 
BRANCH   9  11
ATOM     11  C   UNL     1       6.662  -5.181  25.890  0.00  0.00    +0.040 C 
ATOM     12  C   UNL     1       6.607  -4.325  27.138  0.00  0.00    +0.010 C 
ATOM     13  C   UNL     1       7.687  -5.340  26.995  0.00  0.00    +0.010 C 
ENDBRANCH   9  11
ENDBRANCH   3   5
BRANCH   2  14
ATOM     14  C   UNL     1       9.474  -0.179  21.285  0.00  0.00    +0.131 C 
BRANCH  14  15
ATOM     15  C   UNL     1       9.324   1.083  22.097  0.00  0.00    -0.038 A 
ATOM     16  C   UNL     1      10.253   1.395  23.097  0.00  0.00    +0.005 A 
ATOM     17  C   UNL     1      10.164   2.600  23.798  0.00  0.00    +0.009 A 
ATOM     18  C   UNL     1       9.153   3.527  23.509  0.00  0.00    -0.018 A 
ATOM     19  C   UNL     1       9.080   4.759  24.179  0.00  0.00    +0.008 A 
ATOM     20  C   UNL     1       8.081   5.682  23.870  0.00  0.00    +0.001 A 
ATOM     21  C   UNL     1       7.135   5.379  22.894  0.00  0.00    +0.001 A 
ATOM     22  C   UNL     1       7.192   4.156  22.223  0.00  0.00    +0.008 A 
ATOM     23  C   UNL     1       8.200   3.220  22.512  0.00  0.00    -0.018 A 
ATOM     24  C   UNL     1       8.296   1.998  21.820  0.00  0.00    +0.012 A 
ENDBRANCH  14  15
ENDBRANCH   2  14
TORSDOF 4
ENDMDL
MODEL 3
REMARK VINA RESULT:      -7.0      2.801      8.469
REMARK  Name = 
REMARK  4 active torsions:
REMARK  status: ('A' for Active; 'I' for Inactive)
REMARK    1  A    between atoms: C_2  and  C_3
REMARK    2  A    between atoms: C_3  and  C_4
REMARK    3  A    between atoms: N_14  and  C_15
REMARK    4  A    between atoms: C_17  and  C_20
REMARK                            x       y       z     vdW  Elec       q    Type
REMARK                         _______ _______ _______ _____ _____    ______ ____
ROOT
ATOM      1  O   UNL     1      10.378  -1.150  22.984  0.00  0.00    -0.275 OA
ATOM      2  C   UNL     1       9.889  -0.865  24.066  0.00  0.00    +0.223 C 
ATOM      3  N   UNL     1       9.100  -1.819  24.808  0.00  0.00    -0.270 N 
ATOM      4  H   UNL     1       8.748  -1.542  25.716  0.00  0.00    +0.156 HD
ENDROOT
BRANCH   3   5
ATOM      5  C   UNL     1       8.795  -3.096  24.350  0.00  0.00    +0.120 A 
ATOM      6  N   UNL     1       9.298  -4.263  24.872  0.00  0.00    -0.264 N 
ATOM      7  H   UNL     1       9.957  -4.381  25.632  0.00  0.00    +0.190 HD
ATOM      8  N   UNL     1       8.830  -5.371  24.280  0.00  0.00    -0.177 NA
ATOM      9  C   UNL     1       8.026  -4.899  23.326  0.00  0.00    +0.068 A 
ATOM     10  C   UNL     1       7.963  -3.490  23.328  0.00  0.00    +0.068 A 
BRANCH   9  11
ATOM     11  C   UNL     1       7.264  -5.771  22.338  0.00  0.00    +0.040 C 
ATOM     12  C   UNL     1       6.251  -5.125  21.416  0.00  0.00    +0.010 C 
ATOM     13  C   UNL     1       5.776  -5.972  22.546  0.00  0.00    +0.010 C 
ENDBRANCH   9  11
ENDBRANCH   3   5
BRANCH   2  14
ATOM     14  C   UNL     1      10.055   0.481  24.734  0.00  0.00    +0.131 C 
BRANCH  14  15
ATOM     15  C   UNL     1       9.354   1.604  24.012  0.00  0.00    -0.038 A 
ATOM     16  C   UNL     1       8.212   1.347  23.244  0.00  0.00    +0.005 A 
ATOM     17  C   UNL     1       7.513   2.393  22.638  0.00  0.00    +0.009 A 
ATOM     18  C   UNL     1       7.930   3.723  22.795  0.00  0.00    -0.018 A 
ATOM     19  C   UNL     1       7.210   4.785  22.224  0.00  0.00    +0.008 A 
ATOM     20  C   UNL     1       7.623   6.105  22.403  0.00  0.00    +0.001 A 
ATOM     21  C   UNL     1       8.769   6.378  23.146  0.00  0.00    +0.001 A 
ATOM     22  C   UNL     1       9.498   5.332  23.715  0.00  0.00    +0.008 A 
ATOM     23  C   UNL     1       9.088   3.997  23.556  0.00  0.00    -0.018 A 
ATOM     24  C   UNL     1       9.788   2.932  24.154  0.00  0.00    +0.012 A 
ENDBRANCH  14  15
ENDBRANCH   2  14
TORSDOF 4
ENDMDL
MODEL 4
REMARK VINA RESULT:      -6.9      3.936      9.082
REMARK  Name = 
REMARK  4 active torsions:
REMARK  status: ('A' for Active; 'I' for Inactive)
REMARK    1  A    between atoms: C_2  and  C_3
REMARK    2  A    between atoms: C_3  and  C_4
REMARK    3  A    between atoms: N_14  and  C_15
REMARK    4  A    between atoms: C_17  and  C_20
REMARK                            x       y       z     vdW  Elec       q    Type
REMARK                         _______ _______ _______ _____ _____    ______ ____
ROOT
ATOM      1  O   UNL     1       8.317  -5.579  23.356  0.00  0.00    -0.275 OA
ATOM      2  C   UNL     1       8.084  -4.674  24.142  0.00  0.00    +0.223 C 
ATOM      3  N   UNL     1       6.742  -4.402  24.597  0.00  0.00    -0.270 N 
ATOM      4  H   UNL     1       6.609  -3.663  25.275  0.00  0.00    +0.156 HD
ENDROOT
BRANCH   3   5
ATOM      5  C   UNL     1       5.619  -5.097  24.159  0.00  0.00    +0.120 A 
ATOM      6  N   UNL     1       5.014  -4.930  22.936  0.00  0.00    -0.264 N 
ATOM      7  H   UNL     1       5.264  -4.291  22.191  0.00  0.00    +0.190 HD
ATOM      8  N   UNL     1       3.964  -5.738  22.733  0.00  0.00    -0.177 NA
ATOM      9  C   UNL     1       3.872  -6.422  23.875  0.00  0.00    +0.068 A 
ATOM     10  C   UNL     1       4.880  -6.067  24.795  0.00  0.00    +0.068 A 
BRANCH   9  11
ATOM     11  C   UNL     1       2.801  -7.465  24.166  0.00  0.00    +0.040 C 
ATOM     12  C   UNL     1       1.630  -7.600  23.215  0.00  0.00    +0.010 C 
ATOM     13  C   UNL     1       1.415  -6.991  24.557  0.00  0.00    +0.010 C 
ENDBRANCH   9  11
ENDBRANCH   3   5
BRANCH   2  14
ATOM     14  C   UNL     1       9.147  -3.763  24.714  0.00  0.00    +0.131 C 
BRANCH  14  15
ATOM     15  C   UNL     1       9.357  -2.503  23.915  0.00  0.00    -0.038 A 
ATOM     16  C   UNL     1       8.966  -2.444  22.572  0.00  0.00    +0.005 A 
ATOM     17  C   UNL     1       9.084  -1.255  21.848  0.00  0.00    +0.009 A 
ATOM     18  C   UNL     1       9.586  -0.093  22.452  0.00  0.00    -0.018 A 
ATOM     19  C   UNL     1       9.670   1.117  21.745  0.00  0.00    +0.008 A 
ATOM     20  C   UNL     1      10.153   2.271  22.362  0.00  0.00    +0.001 A 
ATOM     21  C   UNL     1      10.568   2.226  23.690  0.00  0.00    +0.001 A 
ATOM     22  C   UNL     1      10.494   1.029  24.405  0.00  0.00    +0.008 A 
ATOM     23  C   UNL     1       9.997  -0.141  23.803  0.00  0.00    -0.018 A 
ATOM     24  C   UNL     1       9.880  -1.348  24.518  0.00  0.00    +0.012 A 
ENDBRANCH  14  15
ENDBRANCH   2  14
TORSDOF 4
ENDMDL
MODEL 5
REMARK VINA RESULT:      -6.9      2.960      8.621
REMARK  Name = 
REMARK  4 active torsions:
REMARK  status: ('A' for Active; 'I' for Inactive)
REMARK    1  A    between atoms: C_2  and  C_3
REMARK    2  A    between atoms: C_3  and  C_4
REMARK    3  A    between atoms: N_14  and  C_15
REMARK    4  A    between atoms: C_17  and  C_20
REMARK                            x       y       z     vdW  Elec       q    Type
REMARK                         _______ _______ _______ _____ _____    ______ ____
ROOT
ATOM      1  O   UNL     1      10.036  -2.291  23.466  0.00  0.00    -0.275 OA
ATOM      2  C   UNL     1       9.391  -1.838  22.534  0.00  0.00    +0.223 C 
ATOM      3  N   UNL     1       8.114  -2.398  22.162  0.00  0.00    -0.270 N 
ATOM      4  H   UNL     1       7.605  -1.961  21.403  0.00  0.00    +0.156 HD
ENDROOT
BRANCH   3   5
ATOM      5  C   UNL     1       7.540  -3.501  22.784  0.00  0.00    +0.120 A 
ATOM      6  N   UNL     1       8.031  -4.116  23.911  0.00  0.00    -0.264 N 
ATOM      7  H   UNL     1       8.863  -3.889  24.441  0.00  0.00    +0.190 HD
ATOM      8  N   UNL     1       7.283  -5.142  24.341  0.00  0.00    -0.177 NA
ATOM      9  C   UNL     1       6.298  -5.209  23.442  0.00  0.00    +0.068 A 
ATOM     10  C   UNL     1       6.406  -4.207  22.455  0.00  0.00    +0.068 A 
BRANCH   9  11
ATOM     11  C   UNL     1       5.185  -6.246  23.466  0.00  0.00    +0.040 C 
ATOM     12  C   UNL     1       3.767  -5.810  23.158  0.00  0.00    +0.010 C 
ATOM     13  C   UNL     1       4.136  -6.159  24.558  0.00  0.00    +0.010 C 
ENDBRANCH   9  11
ENDBRANCH   3   5
BRANCH   2  14
ATOM     14  C   UNL     1       9.844  -0.668  21.689  0.00  0.00    +0.131 C 
BRANCH  14  15
ATOM     15  C   UNL     1       9.563   0.674  22.316  0.00  0.00    -0.038 A 
ATOM     16  C   UNL     1      10.424   1.194  23.290  0.00  0.00    +0.005 A 
ATOM     17  C   UNL     1      10.214   2.471  23.816  0.00  0.00    +0.009 A 
ATOM     18  C   UNL     1       9.145   3.263  23.374  0.00  0.00    -0.018 A 
ATOM     19  C   UNL     1       8.949   4.564  23.866  0.00  0.00    +0.008 A 
ATOM     20  C   UNL     1       7.893   5.350  23.405  0.00  0.00    +0.001 A 
ATOM     21  C   UNL     1       7.013   4.841  22.454  0.00  0.00    +0.001 A 
ATOM     22  C   UNL     1       7.193   3.548  21.958  0.00  0.00    +0.008 A 
ATOM     23  C   UNL     1       8.259   2.747  22.402  0.00  0.00    -0.018 A 
ATOM     24  C   UNL     1       8.478   1.455  21.886  0.00  0.00    +0.012 A 
ENDBRANCH  14  15
ENDBRANCH   2  14
TORSDOF 4
ENDMDL
MODEL 6
REMARK VINA RESULT:      -6.7      3.649      8.298
REMARK  Name = 
REMARK  4 active torsions:
REMARK  status: ('A' for Active; 'I' for Inactive)
REMARK    1  A    between atoms: C_2  and  C_3
REMARK    2  A    between atoms: C_3  and  C_4
REMARK    3  A    between atoms: N_14  and  C_15
REMARK    4  A    between atoms: C_17  and  C_20
REMARK                            x       y       z     vdW  Elec       q    Type
REMARK                         _______ _______ _______ _____ _____    ______ ____
ROOT
ATOM      1  O   UNL     1       8.199  -4.221  23.715  0.00  0.00    -0.275 OA
ATOM      2  C   UNL     1       8.945  -3.508  24.369  0.00  0.00    +0.223 C 
ATOM      3  N   UNL     1       8.901  -3.498  25.811  0.00  0.00    -0.270 N 
ATOM      4  H   UNL     1       9.566  -2.914  26.304  0.00  0.00    +0.156 HD
ENDROOT
BRANCH   3   5
ATOM      5  C   UNL     1       8.000  -4.242  26.564  0.00  0.00    +0.120 A 
ATOM      6  N   UNL     1       8.218  -5.521  27.018  0.00  0.00    -0.264 N 
ATOM      7  H   UNL     1       9.026  -6.113  26.872  0.00  0.00    +0.190 HD
ATOM      8  N   UNL     1       7.212  -6.018  27.752  0.00  0.00    -0.177 NA
ATOM      9  C   UNL     1       6.305  -5.039  27.741  0.00  0.00    +0.068 A 
ATOM     10  C   UNL     1       6.746  -3.908  27.021  0.00  0.00    +0.068 A 
BRANCH   9  11
ATOM     11  C   UNL     1       4.945  -5.122  28.419  0.00  0.00    +0.040 C 
ATOM     12  C   UNL     1       4.345  -3.869  29.021  0.00  0.00    +0.010 C 
ATOM     13  C   UNL     1       4.870  -4.933  29.921  0.00  0.00    +0.010 C 
ENDBRANCH   9  11
ENDBRANCH   3   5
BRANCH   2  14
ATOM     14  C   UNL     1       9.974  -2.584  23.756  0.00  0.00    +0.131 C 
BRANCH  14  15
ATOM     15  C   UNL     1       9.596  -1.127  23.830  0.00  0.00    -0.038 A 
ATOM     16  C   UNL     1      10.262  -0.268  24.714  0.00  0.00    +0.005 A 
ATOM     17  C   UNL     1       9.972   1.099  24.730  0.00  0.00    +0.009 A 
ATOM     18  C   UNL     1       9.019   1.642  23.857  0.00  0.00    -0.018 A 
ATOM     19  C   UNL     1       8.751   3.020  23.837  0.00  0.00    +0.008 A 
ATOM     20  C   UNL     1       7.815   3.552  22.950  0.00  0.00    +0.001 A 
ATOM     21  C   UNL     1       7.128   2.711  22.080  0.00  0.00    +0.001 A 
ATOM     22  C   UNL     1       7.381   1.338  22.091  0.00  0.00    +0.008 A 
ATOM     23  C   UNL     1       8.330   0.786  22.969  0.00  0.00    -0.018 A 
ATOM     24  C   UNL     1       8.626  -0.590  22.969  0.00  0.00    +0.012 A 
ENDBRANCH  14  15
ENDBRANCH   2  14
TORSDOF 4
ENDMDL
MODEL 7
REMARK VINA RESULT:      -6.6      2.356      3.514
REMARK  Name = 
REMARK  4 active torsions:
REMARK  status: ('A' for Active; 'I' for Inactive)
REMARK    1  A    between atoms: C_2  and  C_3
REMARK    2  A    between atoms: C_3  and  C_4
REMARK    3  A    between atoms: N_14  and  C_15
REMARK    4  A    between atoms: C_17  and  C_20
REMARK                            x       y       z     vdW  Elec       q    Type
REMARK                         _______ _______ _______ _____ _____    ______ ____
ROOT
ATOM      1  O   UNL     1      10.319  -2.573  23.150  0.00  0.00    -0.275 OA
ATOM      2  C   UNL     1       9.782  -2.811  24.221  0.00  0.00    +0.223 C 
ATOM      3  N   UNL     1       9.348  -1.748  25.095  0.00  0.00    -0.270 N 
ATOM      4  H   UNL     1       8.877  -2.001  25.954  0.00  0.00    +0.156 HD
ENDROOT
BRANCH   3   5
ATOM      5  C   UNL     1       9.537  -0.397  24.826  0.00  0.00    +0.120 A 
ATOM      6  N   UNL     1      10.702   0.159  24.353  0.00  0.00    -0.264 N 
ATOM      7  H   UNL     1      11.580  -0.299  24.146  0.00  0.00    +0.190 HD
ATOM      8  N   UNL     1      10.628   1.481  24.142  0.00  0.00    -0.177 NA
ATOM      9  C   UNL     1       9.387   1.789  24.523  0.00  0.00    +0.068 A 
ATOM     10  C   UNL     1       8.662   0.657  24.952  0.00  0.00    +0.068 A 
BRANCH   9  11
ATOM     11  C   UNL     1       8.809   3.198  24.507  0.00  0.00    +0.040 C 
ATOM     12  C   UNL     1       7.326   3.382  24.263  0.00  0.00    +0.010 C 
ATOM     13  C   UNL     1       8.294   3.755  23.195  0.00  0.00    +0.010 C 
ENDBRANCH   9  11
ENDBRANCH   3   5
BRANCH   2  14
ATOM     14  C   UNL     1       9.516  -4.208  24.735  0.00  0.00    +0.131 C 
BRANCH  14  15
ATOM     15  C   UNL     1       8.109  -4.686  24.483  0.00  0.00    -0.038 A 
ATOM     16  C   UNL     1       7.580  -4.677  23.187  0.00  0.00    +0.005 A 
ATOM     17  C   UNL     1       6.307  -5.193  22.935  0.00  0.00    +0.009 A 
ATOM     18  C   UNL     1       5.535  -5.741  23.970  0.00  0.00    -0.018 A 
ATOM     19  C   UNL     1       4.272  -6.300  23.720  0.00  0.00    +0.008 A 
ATOM     20  C   UNL     1       3.522  -6.860  24.755  0.00  0.00    +0.001 A 
ATOM     21  C   UNL     1       4.022  -6.857  26.054  0.00  0.00    +0.001 A 
ATOM     22  C   UNL     1       5.276  -6.302  26.318  0.00  0.00    +0.008 A 
ATOM     23  C   UNL     1       6.050  -5.745  25.286  0.00  0.00    -0.018 A 
ATOM     24  C   UNL     1       7.332  -5.214  25.527  0.00  0.00    +0.012 A 
ENDBRANCH  14  15
ENDBRANCH   2  14
TORSDOF 4
ENDMDL
MODEL 8
REMARK VINA RESULT:      -6.6      1.742      2.132
REMARK  Name = 
REMARK  4 active torsions:
REMARK  status: ('A' for Active; 'I' for Inactive)
REMARK    1  A    between atoms: C_2  and  C_3
REMARK    2  A    between atoms: C_3  and  C_4
REMARK    3  A    between atoms: N_14  and  C_15
REMARK    4  A    between atoms: C_17  and  C_20
REMARK                            x       y       z     vdW  Elec       q    Type
REMARK                         _______ _______ _______ _____ _____    ______ ____
ROOT
ATOM      1  O   UNL     1      10.970   0.342  24.386  0.00  0.00    -0.275 OA
ATOM      2  C   UNL     1      10.387   0.010  23.366  0.00  0.00    +0.223 C 
ATOM      3  N   UNL     1       9.616   0.957  22.599  0.00  0.00    -0.270 N 
ATOM      4  H   UNL     1       9.181   0.636  21.743  0.00  0.00    +0.156 HD
ENDROOT
BRANCH   3   5
ATOM      5  C   UNL     1       9.434   2.287  22.966  0.00  0.00    +0.120 A 
ATOM      6  N   UNL     1      10.397   3.089  23.529  0.00  0.00    -0.264 N 
ATOM      7  H   UNL     1      11.350   2.853  23.774  0.00  0.00    +0.190 HD
ATOM      8  N   UNL     1       9.990   4.345  23.765  0.00  0.00    -0.177 NA
ATOM      9  C   UNL     1       8.715   4.339  23.371  0.00  0.00    +0.068 A 
ATOM     10  C   UNL     1       8.318   3.085  22.860  0.00  0.00    +0.068 A 
BRANCH   9  11
ATOM     11  C   UNL     1       7.783   5.539  23.463  0.00  0.00    +0.040 C 
ATOM     12  C   UNL     1       6.514   5.550  22.636  0.00  0.00    +0.010 C 
ATOM     13  C   UNL     1       7.643   6.443  22.254  0.00  0.00    +0.010 C 
ENDBRANCH   9  11
ENDBRANCH   3   5
BRANCH   2  14
ATOM     14  C   UNL     1      10.411  -1.395  22.806  0.00  0.00    +0.131 C 
BRANCH  14  15
ATOM     15  C   UNL     1       9.330  -2.285  23.363  0.00  0.00    -0.038 A 
ATOM     16  C   UNL     1       8.215  -2.617  22.583  0.00  0.00    +0.005 A 
ATOM     17  C   UNL     1       7.250  -3.505  23.064  0.00  0.00    +0.009 A 
ATOM     18  C   UNL     1       7.381  -4.093  24.330  0.00  0.00    -0.018 A 
ATOM     19  C   UNL     1       6.438  -5.018  24.805  0.00  0.00    +0.008 A 
ATOM     20  C   UNL     1       6.589  -5.611  26.059  0.00  0.00    +0.001 A 
ATOM     21  C   UNL     1       7.679  -5.277  26.857  0.00  0.00    +0.001 A 
ATOM     22  C   UNL     1       8.623  -4.354  26.400  0.00  0.00    +0.008 A 
ATOM     23  C   UNL     1       8.493  -3.758  25.134  0.00  0.00    -0.018 A 
ATOM     24  C   UNL     1       9.454  -2.854  24.640  0.00  0.00    +0.012 A 
ENDBRANCH  14  15
ENDBRANCH   2  14
TORSDOF 4
ENDMDL
MODEL 9
REMARK VINA RESULT:      -6.6      1.333      2.175
REMARK  Name = 
REMARK  4 active torsions:
REMARK  status: ('A' for Active; 'I' for Inactive)
REMARK    1  A    between atoms: C_2  and  C_3
REMARK    2  A    between atoms: C_3  and  C_4
REMARK    3  A    between atoms: N_14  and  C_15
REMARK    4  A    between atoms: C_17  and  C_20
REMARK                            x       y       z     vdW  Elec       q    Type
REMARK                         _______ _______ _______ _____ _____    ______ ____
ROOT
ATOM      1  O   UNL     1       9.522  -0.269  25.201  0.00  0.00    -0.275 OA
ATOM      2  C   UNL     1       9.910  -0.434  24.054  0.00  0.00    +0.223 C 
ATOM      3  N   UNL     1      10.168   0.685  23.181  0.00  0.00    -0.270 N 
ATOM      4  H   UNL     1      10.522   0.493  22.252  0.00  0.00    +0.156 HD
ENDROOT
BRANCH   3   5
ATOM      5  C   UNL     1       9.961   2.012  23.539  0.00  0.00    +0.120 A 
ATOM      6  N   UNL     1       8.952   2.462  24.357  0.00  0.00    -0.264 N 
ATOM      7  H   UNL     1       8.215   1.927  24.802  0.00  0.00    +0.190 HD
ATOM      8  N   UNL     1       8.979   3.783  24.581  0.00  0.00    -0.177 NA
ATOM      9  C   UNL     1      10.019   4.201  23.857  0.00  0.00    +0.068 A 
ATOM     10  C   UNL     1      10.670   3.139  23.193  0.00  0.00    +0.068 A 
BRANCH   9  11
ATOM     11  C   UNL     1      10.460   5.654  23.747  0.00  0.00    +0.040 C 
ATOM     12  C   UNL     1      11.917   6.000  23.973  0.00  0.00    +0.010 C 
ATOM     13  C   UNL     1      10.909   6.372  25.004  0.00  0.00    +0.010 C 
ENDBRANCH   9  11
ENDBRANCH   3   5
BRANCH   2  14
ATOM     14  C   UNL     1      10.161  -1.793  23.440  0.00  0.00    +0.131 C 
BRANCH  14  15
ATOM     15  C   UNL     1       9.075  -2.797  23.732  0.00  0.00    -0.038 A 
ATOM     16  C   UNL     1       9.272  -3.790  24.700  0.00  0.00    +0.005 A 
ATOM     17  C   UNL     1       8.242  -4.673  25.032  0.00  0.00    +0.009 A 
ATOM     18  C   UNL     1       6.987  -4.579  24.414  0.00  0.00    -0.018 A 
ATOM     19  C   UNL     1       5.933  -5.435  24.771  0.00  0.00    +0.008 A 
ATOM     20  C   UNL     1       4.683  -5.319  24.163  0.00  0.00    +0.001 A 
ATOM     21  C   UNL     1       4.475  -4.353  23.183  0.00  0.00    +0.001 A 
ATOM     22  C   UNL     1       5.515  -3.497  22.815  0.00  0.00    +0.008 A 
ATOM     23  C   UNL     1       6.777  -3.591  23.427  0.00  0.00    -0.018 A 
ATOM     24  C   UNL     1       7.826  -2.713  23.095  0.00  0.00    +0.012 A 
ENDBRANCH  14  15
ENDBRANCH   2  14
TORSDOF 4
ENDMDL
