MODEL 1
REMARK VINA RESULT:      -6.4      0.000      0.000
REMARK  Name = 
REMARK  12 active torsions:
REMARK  status: ('A' for Active; 'I' for Inactive)
REMARK    1  A    between atoms: C_10  and  C_11
REMARK    2  A    between atoms: C_10  and  C_12
REMARK    3  A    between atoms: C_16  and  C_21
REMARK    4  A    between atoms: C_18  and  O_19
REMARK    5  A    between atoms: C_21  and  C_22
REMARK    6  A    between atoms: C_21  and  C_23
REMARK    7  A    between atoms: C_21  and  C_24
REMARK    8  A    between atoms: C_24  and  C_25
REMARK    9  A    between atoms: C_25  and  C_26
REMARK   10  A    between atoms: C_26  and  C_27
REMARK   11  A    between atoms: C_27  and  C_28
REMARK   12  A    between atoms: C_28  and  C_29
REMARK                            x       y       z     vdW  Elec       q    Type
REMARK                         _______ _______ _______ _____ _____    ______ ____
ROOT
ATOM      1  C   UNL     1       8.390   1.457  25.180  0.00  0.00    +0.040 C 
ATOM      2  C   UNL     1       8.453  -0.063  25.211  0.00  0.00    +0.040 A 
ATOM      3  C   UNL     1       8.513  -0.779  24.008  0.00  0.00    +0.128 A 
ATOM      4  C   UNL     1       8.501  -2.183  23.991  0.00  0.00    +0.050 A 
ATOM      5  C   UNL     1       8.476  -2.937  25.172  0.00  0.00    -0.035 A 
ATOM      6  C   UNL     1       8.492  -2.217  26.377  0.00  0.00    +0.050 A 
ATOM      7  O   UNL     1       8.583  -0.211  22.761  0.00  0.00    -0.486 OA
ATOM      8  C   UNL     1       8.796   1.212  22.697  0.00  0.00    +0.108 C 
ATOM      9  C   UNL     1      10.306   1.492  22.819  0.00  0.00    +0.055 C 
ATOM     10  C   UNL     1       8.366   1.617  21.275  0.00  0.00    +0.055 C 
ATOM     11  C   UNL     1       8.492  -0.817  26.391  0.00  0.00    +0.124 A 
ATOM     12  C   UNL     1       7.911   1.899  23.770  0.00  0.00    +0.041 C 
ATOM     13  C   UNL     1       7.813   3.428  23.637  0.00  0.00    +0.015 C 
ATOM     14  C   UNL     1       6.916   4.028  24.708  0.00  0.00    +0.075 C 
ATOM     15  C   UNL     1       7.404   3.588  26.058  0.00  0.00    +0.134 C 
ATOM     16  O   UNL     1       7.630   4.394  26.957  0.00  0.00    -0.297 OA
ATOM     17  C   UNL     1       7.509   2.098  26.268  0.00  0.00    +0.083 C 
ENDROOT
BRANCH   5  18
ATOM     18  C   UNL     1       8.470  -4.484  25.187  0.00  0.00    -0.010 C 
ATOM     19  C   UNL     1       7.526  -4.955  26.319  0.00  0.00    +0.016 C 
ATOM     20  C   UNL     1       9.868  -5.077  25.484  0.00  0.00    +0.016 C 
BRANCH  18  21
ATOM     21  C   UNL     1       7.972  -5.006  23.797  0.00  0.00    +0.011 C 
BRANCH  21  22
ATOM     22  C   UNL     1       6.482  -5.374  23.731  0.00  0.00    +0.001 C 
BRANCH  22  23
ATOM     23  C   UNL     1       5.755  -4.671  22.582  0.00  0.00    +0.000 C 
BRANCH  23  24
ATOM     24  C   UNL     1       5.254  -3.299  23.043  0.00  0.00    -0.000 C 
BRANCH  24  25
ATOM     25  C   UNL     1       4.612  -3.358  24.427  0.00  0.00    -0.003 C 
ATOM     26  C   UNL     1       4.934  -2.107  25.230  0.00  0.00    +0.004 C 
ENDBRANCH  24  25
ENDBRANCH  23  24
ENDBRANCH  22  23
ENDBRANCH  21  22
ENDBRANCH  18  21
ENDBRANCH   5  18
BRANCH  11  27
ATOM     27  O   UNL     1       8.553  -0.185  27.601  0.00  0.00    -0.506 OA
ATOM     28  H   UNL     1       7.726  -0.331  28.086  0.00  0.00    +0.292 HD
ENDBRANCH  11  27
TORSDOF 7
ENDMDL
MODEL 2
REMARK VINA RESULT:      -6.2      0.543      1.326
REMARK  Name = 
REMARK  12 active torsions:
REMARK  status: ('A' for Active; 'I' for Inactive)
REMARK    1  A    between atoms: C_10  and  C_11
REMARK    2  A    between atoms: C_10  and  C_12
REMARK    3  A    between atoms: C_16  and  C_21
REMARK    4  A    between atoms: C_18  and  O_19
REMARK    5  A    between atoms: C_21  and  C_22
REMARK    6  A    between atoms: C_21  and  C_23
REMARK    7  A    between atoms: C_21  and  C_24
REMARK    8  A    between atoms: C_24  and  C_25
REMARK    9  A    between atoms: C_25  and  C_26
REMARK   10  A    between atoms: C_26  and  C_27
REMARK   11  A    between atoms: C_27  and  C_28
REMARK   12  A    between atoms: C_28  and  C_29
REMARK                            x       y       z     vdW  Elec       q    Type
REMARK                         _______ _______ _______ _____ _____    ______ ____
ROOT
ATOM      1  C   UNL     1       8.401   1.406  25.166  0.00  0.00    +0.040 C 
ATOM      2  C   UNL     1       8.445  -0.115  25.197  0.00  0.00    +0.040 A 
ATOM      3  C   UNL     1       8.505  -0.832  23.994  0.00  0.00    +0.128 A 
ATOM      4  C   UNL     1       8.476  -2.235  23.977  0.00  0.00    +0.050 A 
ATOM      5  C   UNL     1       8.434  -2.989  25.157  0.00  0.00    -0.035 A 
ATOM      6  C   UNL     1       8.449  -2.269  26.362  0.00  0.00    +0.050 A 
ATOM      7  O   UNL     1       8.590  -0.264  22.747  0.00  0.00    -0.486 OA
ATOM      8  C   UNL     1       8.821   1.156  22.685  0.00  0.00    +0.108 C 
ATOM      9  C   UNL     1      10.334   1.418  22.818  0.00  0.00    +0.055 C 
ATOM     10  C   UNL     1       8.407   1.566  21.261  0.00  0.00    +0.055 C 
ATOM     11  C   UNL     1       8.466  -0.869  26.377  0.00  0.00    +0.124 A 
ATOM     12  C   UNL     1       7.937   1.854  23.752  0.00  0.00    +0.041 C 
ATOM     13  C   UNL     1       7.859   3.384  23.619  0.00  0.00    +0.015 C 
ATOM     14  C   UNL     1       6.962   3.995  24.683  0.00  0.00    +0.075 C 
ATOM     15  C   UNL     1       7.435   3.549  26.036  0.00  0.00    +0.134 C 
ATOM     16  O   UNL     1       7.665   4.352  26.937  0.00  0.00    -0.297 OA
ATOM     17  C   UNL     1       7.521   2.057  26.247  0.00  0.00    +0.083 C 
ENDROOT
BRANCH   5  18
ATOM     18  C   UNL     1       8.408  -4.535  25.173  0.00  0.00    -0.010 C 
ATOM     19  C   UNL     1       9.801  -5.041  25.616  0.00  0.00    +0.016 C 
ATOM     20  C   UNL     1       8.130  -5.135  23.773  0.00  0.00    +0.016 C 
BRANCH  18  21
ATOM     21  C   UNL     1       7.301  -5.018  26.170  0.00  0.00    +0.011 C 
BRANCH  21  22
ATOM     22  C   UNL     1       5.936  -5.324  25.535  0.00  0.00    +0.001 C 
BRANCH  22  23
ATOM     23  C   UNL     1       4.889  -4.253  25.851  0.00  0.00    +0.000 C 
BRANCH  23  24
ATOM     24  C   UNL     1       4.824  -3.234  24.709  0.00  0.00    -0.000 C 
BRANCH  24  25
ATOM     25  C   UNL     1       4.682  -3.907  23.347  0.00  0.00    -0.003 C 
ATOM     26  C   UNL     1       5.494  -3.174  22.290  0.00  0.00    +0.004 C 
ENDBRANCH  24  25
ENDBRANCH  23  24
ENDBRANCH  22  23
ENDBRANCH  21  22
ENDBRANCH  18  21
ENDBRANCH   5  18
BRANCH  11  27
ATOM     27  O   UNL     1       8.527  -0.238  27.587  0.00  0.00    -0.506 OA
ATOM     28  H   UNL     1       7.879   0.483  27.611  0.00  0.00    +0.292 HD
ENDBRANCH  11  27
TORSDOF 7
ENDMDL
MODEL 3
REMARK VINA RESULT:      -6.1      2.692      7.339
REMARK  Name = 
REMARK  12 active torsions:
REMARK  status: ('A' for Active; 'I' for Inactive)
REMARK    1  A    between atoms: C_10  and  C_11
REMARK    2  A    between atoms: C_10  and  C_12
REMARK    3  A    between atoms: C_16  and  C_21
REMARK    4  A    between atoms: C_18  and  O_19
REMARK    5  A    between atoms: C_21  and  C_22
REMARK    6  A    between atoms: C_21  and  C_23
REMARK    7  A    between atoms: C_21  and  C_24
REMARK    8  A    between atoms: C_24  and  C_25
REMARK    9  A    between atoms: C_25  and  C_26
REMARK   10  A    between atoms: C_26  and  C_27
REMARK   11  A    between atoms: C_27  and  C_28
REMARK   12  A    between atoms: C_28  and  C_29
REMARK                            x       y       z     vdW  Elec       q    Type
REMARK                         _______ _______ _______ _____ _____    ______ ____
ROOT
ATOM      1  C   UNL     1       5.262  -2.822  24.149  0.00  0.00    +0.040 C 
ATOM      2  C   UNL     1       6.356  -1.774  24.009  0.00  0.00    +0.040 A 
ATOM      3  C   UNL     1       7.584  -2.125  23.432  0.00  0.00    +0.128 A 
ATOM      4  C   UNL     1       8.643  -1.207  23.351  0.00  0.00    +0.050 A 
ATOM      5  C   UNL     1       8.512   0.116  23.794  0.00  0.00    -0.035 A 
ATOM      6  C   UNL     1       7.257   0.486  24.302  0.00  0.00    +0.050 A 
ATOM      7  O   UNL     1       7.879  -3.359  22.910  0.00  0.00    -0.486 OA
ATOM      8  C   UNL     1       6.792  -4.295  22.777  0.00  0.00    +0.108 C 
ATOM      9  C   UNL     1       6.048  -4.005  21.460  0.00  0.00    +0.055 C 
ATOM     10  C   UNL     1       7.466  -5.672  22.632  0.00  0.00    +0.055 C 
ATOM     11  C   UNL     1       6.206  -0.436  24.394  0.00  0.00    +0.124 A 
ATOM     12  C   UNL     1       5.916  -4.228  24.056  0.00  0.00    +0.041 C 
ATOM     13  C   UNL     1       4.887  -5.363  24.187  0.00  0.00    +0.015 C 
ATOM     14  C   UNL     1       4.080  -5.243  25.470  0.00  0.00    +0.075 C 
ATOM     15  C   UNL     1       3.458  -3.878  25.531  0.00  0.00    +0.134 C 
ATOM     16  O   UNL     1       2.255  -3.725  25.730  0.00  0.00    -0.297 OA
ATOM     17  C   UNL     1       4.410  -2.713  25.426  0.00  0.00    +0.083 C 
ENDROOT
BRANCH   5  18
ATOM     18  C   UNL     1       9.656   1.153  23.711  0.00  0.00    -0.010 C 
ATOM     19  C   UNL     1       9.992   1.389  22.220  0.00  0.00    +0.016 C 
ATOM     20  C   UNL     1      10.952   0.658  24.396  0.00  0.00    +0.016 C 
BRANCH  18  21
ATOM     21  C   UNL     1       9.189   2.484  24.391  0.00  0.00    +0.011 C 
BRANCH  21  22
ATOM     22  C   UNL     1       9.242   3.731  23.496  0.00  0.00    +0.001 C 
BRANCH  22  23
ATOM     23  C   UNL     1      10.268   4.758  23.982  0.00  0.00    +0.000 C 
BRANCH  23  24
ATOM     24  C   UNL     1      11.634   4.470  23.353  0.00  0.00    -0.000 C 
BRANCH  24  25
ATOM     25  C   UNL     1      12.512   5.717  23.293  0.00  0.00    -0.003 C 
ATOM     26  C   UNL     1      13.485   5.642  22.126  0.00  0.00    +0.004 C 
ENDBRANCH  24  25
ENDBRANCH  23  24
ENDBRANCH  22  23
ENDBRANCH  21  22
ENDBRANCH  18  21
ENDBRANCH   5  18
BRANCH  11  27
ATOM     27  O   UNL     1       4.999   0.008  24.856  0.00  0.00    -0.506 OA
ATOM     28  H   UNL     1       4.710  -0.547  25.597  0.00  0.00    +0.292 HD
ENDBRANCH  11  27
TORSDOF 7
ENDMDL
MODEL 4
REMARK VINA RESULT:      -6.1      1.877      6.584
REMARK  Name = 
REMARK  12 active torsions:
REMARK  status: ('A' for Active; 'I' for Inactive)
REMARK    1  A    between atoms: C_10  and  C_11
REMARK    2  A    between atoms: C_10  and  C_12
REMARK    3  A    between atoms: C_16  and  C_21
REMARK    4  A    between atoms: C_18  and  O_19
REMARK    5  A    between atoms: C_21  and  C_22
REMARK    6  A    between atoms: C_21  and  C_23
REMARK    7  A    between atoms: C_21  and  C_24
REMARK    8  A    between atoms: C_24  and  C_25
REMARK    9  A    between atoms: C_25  and  C_26
REMARK   10  A    between atoms: C_26  and  C_27
REMARK   11  A    between atoms: C_27  and  C_28
REMARK   12  A    between atoms: C_28  and  C_29
REMARK                            x       y       z     vdW  Elec       q    Type
REMARK                         _______ _______ _______ _____ _____    ______ ____
ROOT
ATOM      1  C   UNL     1       6.854  -3.029  25.238  0.00  0.00    +0.040 C 
ATOM      2  C   UNL     1       6.813  -1.572  24.799  0.00  0.00    +0.040 A 
ATOM      3  C   UNL     1       6.766  -1.261  23.433  0.00  0.00    +0.128 A 
ATOM      4  C   UNL     1       6.799   0.069  22.985  0.00  0.00    +0.050 A 
ATOM      5  C   UNL     1       6.832   1.150  23.876  0.00  0.00    -0.035 A 
ATOM      6  C   UNL     1       6.803   0.837  25.244  0.00  0.00    +0.050 A 
ATOM      7  O   UNL     1       6.692  -2.185  22.421  0.00  0.00    -0.486 OA
ATOM      8  C   UNL     1       6.458  -3.555  22.797  0.00  0.00    +0.108 C 
ATOM      9  C   UNL     1       4.943  -3.764  22.990  0.00  0.00    +0.055 C 
ATOM     10  C   UNL     1       6.885  -4.384  21.572  0.00  0.00    +0.055 C 
ATOM     11  C   UNL     1       6.783  -0.492  25.689  0.00  0.00    +0.124 A 
ATOM     12  C   UNL     1       7.330  -3.890  24.036  0.00  0.00    +0.041 C 
ATOM     13  C   UNL     1       7.406  -5.387  24.381  0.00  0.00    +0.015 C 
ATOM     14  C   UNL     1       8.291  -5.640  25.590  0.00  0.00    +0.075 C 
ATOM     15  C   UNL     1       7.807  -4.799  26.735  0.00  0.00    +0.134 C 
ATOM     16  O   UNL     1       7.566  -5.285  27.837  0.00  0.00    -0.297 OA
ATOM     17  C   UNL     1       7.723  -3.315  26.476  0.00  0.00    +0.083 C 
ENDROOT
BRANCH   5  18
ATOM     18  C   UNL     1       6.861   2.626  23.415  0.00  0.00    -0.010 C 
ATOM     19  C   UNL     1       6.914   3.528  24.670  0.00  0.00    +0.016 C 
ATOM     20  C   UNL     1       5.592   3.022  22.623  0.00  0.00    +0.016 C 
BRANCH  18  21
ATOM     21  C   UNL     1       8.123   2.855  22.515  0.00  0.00    +0.011 C 
BRANCH  21  22
ATOM     22  C   UNL     1       9.450   3.006  23.274  0.00  0.00    +0.001 C 
BRANCH  22  23
ATOM     23  C   UNL     1      10.353   1.779  23.124  0.00  0.00    +0.000 C 
BRANCH  23  24
ATOM     24  C   UNL     1      10.547   1.103  24.485  0.00  0.00    -0.000 C 
BRANCH  24  25
ATOM     25  C   UNL     1      10.248  -0.392  24.430  0.00  0.00    -0.003 C 
ATOM     26  C   UNL     1      10.312  -0.909  23.001  0.00  0.00    +0.004 C 
ENDBRANCH  24  25
ENDBRANCH  23  24
ENDBRANCH  22  23
ENDBRANCH  21  22
ENDBRANCH  18  21
ENDBRANCH   5  18
BRANCH  11  27
ATOM     27  O   UNL     1       6.709  -0.719  27.034  0.00  0.00    -0.506 OA
ATOM     28  H   UNL     1       6.888  -1.655  27.215  0.00  0.00    +0.292 HD
ENDBRANCH  11  27
TORSDOF 7
ENDMDL
MODEL 5
REMARK VINA RESULT:      -6.1      2.216      7.641
REMARK  Name = 
REMARK  12 active torsions:
REMARK  status: ('A' for Active; 'I' for Inactive)
REMARK    1  A    between atoms: C_10  and  C_11
REMARK    2  A    between atoms: C_10  and  C_12
REMARK    3  A    between atoms: C_16  and  C_21
REMARK    4  A    between atoms: C_18  and  O_19
REMARK    5  A    between atoms: C_21  and  C_22
REMARK    6  A    between atoms: C_21  and  C_23
REMARK    7  A    between atoms: C_21  and  C_24
REMARK    8  A    between atoms: C_24  and  C_25
REMARK    9  A    between atoms: C_25  and  C_26
REMARK   10  A    between atoms: C_26  and  C_27
REMARK   11  A    between atoms: C_27  and  C_28
REMARK   12  A    between atoms: C_28  and  C_29
REMARK                            x       y       z     vdW  Elec       q    Type
REMARK                         _______ _______ _______ _____ _____    ______ ____
ROOT
ATOM      1  C   UNL     1       7.746  -3.285  23.506  0.00  0.00    +0.040 C 
ATOM      2  C   UNL     1       8.072  -1.798  23.552  0.00  0.00    +0.040 A 
ATOM      3  C   UNL     1       7.764  -1.056  24.700  0.00  0.00    +0.128 A 
ATOM      4  C   UNL     1       7.983   0.330  24.755  0.00  0.00    +0.050 A 
ATOM      5  C   UNL     1       8.562   1.031  23.689  0.00  0.00    -0.035 A 
ATOM      6  C   UNL     1       8.938   0.272  22.569  0.00  0.00    +0.050 A 
ATOM      7  O   UNL     1       7.230  -1.578  25.851  0.00  0.00    -0.486 OA
ATOM      8  C   UNL     1       7.156  -3.014  25.950  0.00  0.00    +0.108 C 
ATOM      9  C   UNL     1       8.518  -3.547  26.436  0.00  0.00    +0.055 C 
ATOM     10  C   UNL     1       6.131  -3.285  27.066  0.00  0.00    +0.055 C 
ATOM     11  C   UNL     1       8.707  -1.109  22.512  0.00  0.00    +0.124 A 
ATOM     12  C   UNL     1       6.674  -3.584  24.590  0.00  0.00    +0.041 C 
ATOM     13  C   UNL     1       6.274  -5.069  24.624  0.00  0.00    +0.015 C 
ATOM     14  C   UNL     1       5.795  -5.552  23.265  0.00  0.00    +0.075 C 
ATOM     15  C   UNL     1       6.850  -5.253  22.240  0.00  0.00    +0.134 C 
ATOM     16  O   UNL     1       7.279  -6.120  21.482  0.00  0.00    -0.297 OA
ATOM     17  C   UNL     1       7.281  -3.811  22.137  0.00  0.00    +0.083 C 
ENDROOT
BRANCH   5  18
ATOM     18  C   UNL     1       8.824   2.555  23.721  0.00  0.00    -0.010 C 
ATOM     19  C   UNL     1      10.348   2.790  23.610  0.00  0.00    +0.016 C 
ATOM     20  C   UNL     1       8.358   3.205  25.045  0.00  0.00    +0.016 C 
BRANCH  18  21
ATOM     21  C   UNL     1       8.071   3.227  22.523  0.00  0.00    +0.011 C 
BRANCH  21  22
ATOM     22  C   UNL     1       7.134   4.383  22.905  0.00  0.00    +0.001 C 
BRANCH  22  23
ATOM     23  C   UNL     1       7.548   5.709  22.262  0.00  0.00    +0.000 C 
BRANCH  23  24
ATOM     24  C   UNL     1       8.125   6.648  23.326  0.00  0.00    -0.000 C 
BRANCH  24  25
ATOM     25  C   UNL     1       9.623   6.437  23.525  0.00  0.00    -0.003 C 
ATOM     26  C   UNL     1       9.991   6.501  25.000  0.00  0.00    +0.004 C 
ENDBRANCH  24  25
ENDBRANCH  23  24
ENDBRANCH  22  23
ENDBRANCH  21  22
ENDBRANCH  18  21
ENDBRANCH   5  18
BRANCH  11  27
ATOM     27  O   UNL     1       9.141  -1.789  21.410  0.00  0.00    -0.506 OA
ATOM     28  H   UNL     1       9.973  -1.400  21.095  0.00  0.00    +0.292 HD
ENDBRANCH  11  27
TORSDOF 7
ENDMDL
MODEL 6
REMARK VINA RESULT:      -6.0      1.888      3.731
REMARK  Name = 
REMARK  12 active torsions:
REMARK  status: ('A' for Active; 'I' for Inactive)
REMARK    1  A    between atoms: C_10  and  C_11
REMARK    2  A    between atoms: C_10  and  C_12
REMARK    3  A    between atoms: C_16  and  C_21
REMARK    4  A    between atoms: C_18  and  O_19
REMARK    5  A    between atoms: C_21  and  C_22
REMARK    6  A    between atoms: C_21  and  C_23
REMARK    7  A    between atoms: C_21  and  C_24
REMARK    8  A    between atoms: C_24  and  C_25
REMARK    9  A    between atoms: C_25  and  C_26
REMARK   10  A    between atoms: C_26  and  C_27
REMARK   11  A    between atoms: C_27  and  C_28
REMARK   12  A    between atoms: C_28  and  C_29
REMARK                            x       y       z     vdW  Elec       q    Type
REMARK                         _______ _______ _______ _____ _____    ______ ____
ROOT
ATOM      1  C   UNL     1       8.519   1.308  22.983  0.00  0.00    +0.040 C 
ATOM      2  C   UNL     1       7.982  -0.115  22.921  0.00  0.00    +0.040 A 
ATOM      3  C   UNL     1       6.737  -0.413  23.492  0.00  0.00    +0.128 A 
ATOM      4  C   UNL     1       6.240  -1.725  23.519  0.00  0.00    +0.050 A 
ATOM      5  C   UNL     1       6.936  -2.793  22.936  0.00  0.00    -0.035 A 
ATOM      6  C   UNL     1       8.147  -2.479  22.299  0.00  0.00    +0.050 A 
ATOM      7  O   UNL     1       5.901   0.508  24.072  0.00  0.00    -0.486 OA
ATOM      8  C   UNL     1       6.244   1.899  23.914  0.00  0.00    +0.108 C 
ATOM      9  C   UNL     1       5.709   2.389  22.555  0.00  0.00    +0.055 C 
ATOM     10  C   UNL     1       5.452   2.632  25.012  0.00  0.00    +0.055 C 
ATOM     11  C   UNL     1       8.647  -1.171  22.284  0.00  0.00    +0.124 A 
ATOM     12  C   UNL     1       7.773   2.063  24.117  0.00  0.00    +0.041 C 
ATOM     13  C   UNL     1       8.248   3.519  24.261  0.00  0.00    +0.015 C 
ATOM     14  C   UNL     1       9.750   3.601  24.476  0.00  0.00    +0.075 C 
ATOM     15  C   UNL     1      10.443   2.867  23.365  0.00  0.00    +0.134 C 
ATOM     16  O   UNL     1      11.337   3.390  22.704  0.00  0.00    -0.297 OA
ATOM     17  C   UNL     1      10.041   1.425  23.174  0.00  0.00    +0.083 C 
ENDROOT
BRANCH   5  18
ATOM     18  C   UNL     1       6.412  -4.248  22.942  0.00  0.00    -0.010 C 
ATOM     19  C   UNL     1       6.599  -4.839  21.525  0.00  0.00    +0.016 C 
ATOM     20  C   UNL     1       4.903  -4.330  23.274  0.00  0.00    +0.016 C 
BRANCH  18  21
ATOM     21  C   UNL     1       7.218  -5.077  23.998  0.00  0.00    +0.011 C 
BRANCH  21  22
ATOM     22  C   UNL     1       6.561  -5.191  25.382  0.00  0.00    +0.001 C 
BRANCH  22  23
ATOM     23  C   UNL     1       7.470  -4.688  26.506  0.00  0.00    +0.000 C 
BRANCH  23  24
ATOM     24  C   UNL     1       7.324  -3.172  26.658  0.00  0.00    -0.000 C 
BRANCH  24  25
ATOM     25  C   UNL     1       8.592  -2.429  26.246  0.00  0.00    -0.003 C 
ATOM     26  C   UNL     1       8.503  -0.955  26.610  0.00  0.00    +0.004 C 
ENDBRANCH  24  25
ENDBRANCH  23  24
ENDBRANCH  22  23
ENDBRANCH  21  22
ENDBRANCH  18  21
ENDBRANCH   5  18
BRANCH  11  27
ATOM     27  O   UNL     1       9.808  -0.933  21.605  0.00  0.00    -0.506 OA
ATOM     28  H   UNL     1       9.660  -1.056  20.654  0.00  0.00    +0.292 HD
ENDBRANCH  11  27
TORSDOF 7
ENDMDL
MODEL 7
REMARK VINA RESULT:      -5.9      2.234      3.081
REMARK  Name = 
REMARK  12 active torsions:
REMARK  status: ('A' for Active; 'I' for Inactive)
REMARK    1  A    between atoms: C_10  and  C_11
REMARK    2  A    between atoms: C_10  and  C_12
REMARK    3  A    between atoms: C_16  and  C_21
REMARK    4  A    between atoms: C_18  and  O_19
REMARK    5  A    between atoms: C_21  and  C_22
REMARK    6  A    between atoms: C_21  and  C_23
REMARK    7  A    between atoms: C_21  and  C_24
REMARK    8  A    between atoms: C_24  and  C_25
REMARK    9  A    between atoms: C_25  and  C_26
REMARK   10  A    between atoms: C_26  and  C_27
REMARK   11  A    between atoms: C_27  and  C_28
REMARK   12  A    between atoms: C_28  and  C_29
REMARK                            x       y       z     vdW  Elec       q    Type
REMARK                         _______ _______ _______ _____ _____    ______ ____
ROOT
ATOM      1  C   UNL     1       7.422   0.323  23.846  0.00  0.00    +0.040 C 
ATOM      2  C   UNL     1       6.963  -0.950  24.543  0.00  0.00    +0.040 A 
ATOM      3  C   UNL     1       7.799  -2.075  24.556  0.00  0.00    +0.128 A 
ATOM      4  C   UNL     1       7.384  -3.289  25.125  0.00  0.00    +0.050 A 
ATOM      5  C   UNL     1       6.137  -3.425  25.750  0.00  0.00    -0.035 A 
ATOM      6  C   UNL     1       5.332  -2.276  25.802  0.00  0.00    +0.050 A 
ATOM      7  O   UNL     1       9.066  -2.115  24.028  0.00  0.00    -0.486 OA
ATOM      8  C   UNL     1       9.640  -0.865  23.601  0.00  0.00    +0.108 C 
ATOM      9  C   UNL     1      10.260  -0.162  24.825  0.00  0.00    +0.055 C 
ATOM     10  C   UNL     1      10.795  -1.257  22.662  0.00  0.00    +0.055 C 
ATOM     11  C   UNL     1       5.744  -1.069  25.222  0.00  0.00    +0.124 A 
ATOM     12  C   UNL     1       8.557  -0.046  22.852  0.00  0.00    +0.041 C 
ATOM     13  C   UNL     1       9.092   1.180  22.092  0.00  0.00    +0.015 C 
ATOM     14  C   UNL     1       7.979   1.920  21.367  0.00  0.00    +0.075 C 
ATOM     15  C   UNL     1       6.900   2.266  22.352  0.00  0.00    +0.134 C 
ATOM     16  O   UNL     1       6.472   3.412  22.465  0.00  0.00    -0.297 OA
ATOM     17  C   UNL     1       6.314   1.109  23.123  0.00  0.00    +0.083 C 
ENDROOT
BRANCH   5  18
ATOM     18  C   UNL     1       5.653  -4.745  26.393  0.00  0.00    -0.010 C 
ATOM     19  C   UNL     1       4.288  -4.485  27.073  0.00  0.00    +0.016 C 
ATOM     20  C   UNL     1       6.618  -5.256  27.490  0.00  0.00    +0.016 C 
BRANCH  18  21
ATOM     21  C   UNL     1       5.516  -5.837  25.278  0.00  0.00    +0.011 C 
BRANCH  21  22
ATOM     22  C   UNL     1       4.205  -5.796  24.479  0.00  0.00    +0.001 C 
BRANCH  22  23
ATOM     23  C   UNL     1       4.435  -5.523  22.990  0.00  0.00    +0.000 C 
BRANCH  23  24
ATOM     24  C   UNL     1       5.915  -5.714  22.646  0.00  0.00    -0.000 C 
BRANCH  24  25
ATOM     25  C   UNL     1       6.475  -4.541  21.847  0.00  0.00    -0.003 C 
ATOM     26  C   UNL     1       5.561  -3.329  21.946  0.00  0.00    +0.004 C 
ENDBRANCH  24  25
ENDBRANCH  23  24
ENDBRANCH  22  23
ENDBRANCH  21  22
ENDBRANCH  18  21
ENDBRANCH   5  18
BRANCH  11  27
ATOM     27  O   UNL     1       4.928   0.019  25.352  0.00  0.00    -0.506 OA
ATOM     28  H   UNL     1       4.047  -0.268  25.641  0.00  0.00    +0.292 HD
ENDBRANCH  11  27
TORSDOF 7
ENDMDL
MODEL 8
REMARK VINA RESULT:      -5.9      1.890      3.505
REMARK  Name = 
REMARK  12 active torsions:
REMARK  status: ('A' for Active; 'I' for Inactive)
REMARK    1  A    between atoms: C_10  and  C_11
REMARK    2  A    between atoms: C_10  and  C_12
REMARK    3  A    between atoms: C_16  and  C_21
REMARK    4  A    between atoms: C_18  and  O_19
REMARK    5  A    between atoms: C_21  and  C_22
REMARK    6  A    between atoms: C_21  and  C_23
REMARK    7  A    between atoms: C_21  and  C_24
REMARK    8  A    between atoms: C_24  and  C_25
REMARK    9  A    between atoms: C_25  and  C_26
REMARK   10  A    between atoms: C_26  and  C_27
REMARK   11  A    between atoms: C_27  and  C_28
REMARK   12  A    between atoms: C_28  and  C_29
REMARK                            x       y       z     vdW  Elec       q    Type
REMARK                         _______ _______ _______ _____ _____    ______ ____
ROOT
ATOM      1  C   UNL     1       7.059   0.365  23.979  0.00  0.00    +0.040 C 
ATOM      2  C   UNL     1       6.456  -1.023  24.137  0.00  0.00    +0.040 A 
ATOM      3  C   UNL     1       7.015  -2.105  23.442  0.00  0.00    +0.128 A 
ATOM      4  C   UNL     1       6.445  -3.387  23.504  0.00  0.00    +0.050 A 
ATOM      5  C   UNL     1       5.323  -3.660  24.298  0.00  0.00    -0.035 A 
ATOM      6  C   UNL     1       4.811  -2.592  25.050  0.00  0.00    +0.050 A 
ATOM      7  O   UNL     1       8.133  -2.034  22.650  0.00  0.00    -0.486 OA
ATOM      8  C   UNL     1       8.888  -0.807  22.687  0.00  0.00    +0.108 C 
ATOM      9  C   UNL     1       9.845  -0.851  23.894  0.00  0.00    +0.055 C 
ATOM     10  C   UNL     1       9.753  -0.832  21.413  0.00  0.00    +0.055 C 
ATOM     11  C   UNL     1       5.374  -1.311  24.977  0.00  0.00    +0.124 A 
ATOM     12  C   UNL     1       7.900   0.389  22.674  0.00  0.00    +0.041 C 
ATOM     13  C   UNL     1       8.555   1.758  22.423  0.00  0.00    +0.015 C 
ATOM     14  C   UNL     1       7.526   2.877  22.405  0.00  0.00    +0.075 C 
ATOM     15  C   UNL     1       6.731   2.831  23.678  0.00  0.00    +0.134 C 
ATOM     16  O   UNL     1       6.590   3.825  24.387  0.00  0.00    -0.297 OA
ATOM     17  C   UNL     1       6.045   1.523  23.982  0.00  0.00    +0.083 C 
ENDROOT
BRANCH   5  18
ATOM     18  C   UNL     1       4.677  -5.062  24.394  0.00  0.00    -0.010 C 
ATOM     19  C   UNL     1       4.560  -5.644  22.965  0.00  0.00    +0.016 C 
ATOM     20  C   UNL     1       3.247  -5.014  24.983  0.00  0.00    +0.016 C 
BRANCH  18  21
ATOM     21  C   UNL     1       5.575  -5.978  25.292  0.00  0.00    +0.011 C 
BRANCH  21  22
ATOM     22  C   UNL     1       5.360  -5.824  26.805  0.00  0.00    +0.001 C 
BRANCH  22  23
ATOM     23  C   UNL     1       6.443  -4.965  27.466  0.00  0.00    +0.000 C 
BRANCH  23  24
ATOM     24  C   UNL     1       7.814  -5.311  26.879  0.00  0.00    -0.000 C 
BRANCH  24  25
ATOM     25  C   UNL     1       8.553  -4.073  26.379  0.00  0.00    -0.003 C 
ATOM     26  C   UNL     1       9.450  -4.414  25.199  0.00  0.00    +0.004 C 
ENDBRANCH  24  25
ENDBRANCH  23  24
ENDBRANCH  22  23
ENDBRANCH  21  22
ENDBRANCH  18  21
ENDBRANCH   5  18
BRANCH  11  27
ATOM     27  O   UNL     1       4.850  -0.332  25.774  0.00  0.00    -0.506 OA
ATOM     28  H   UNL     1       4.168  -0.712  26.349  0.00  0.00    +0.292 HD
ENDBRANCH  11  27
TORSDOF 7
ENDMDL
MODEL 9
REMARK VINA RESULT:      -5.9      2.378      7.149
REMARK  Name = 
REMARK  12 active torsions:
REMARK  status: ('A' for Active; 'I' for Inactive)
REMARK    1  A    between atoms: C_10  and  C_11
REMARK    2  A    between atoms: C_10  and  C_12
REMARK    3  A    between atoms: C_16  and  C_21
REMARK    4  A    between atoms: C_18  and  O_19
REMARK    5  A    between atoms: C_21  and  C_22
REMARK    6  A    between atoms: C_21  and  C_23
REMARK    7  A    between atoms: C_21  and  C_24
REMARK    8  A    between atoms: C_24  and  C_25
REMARK    9  A    between atoms: C_25  and  C_26
REMARK   10  A    between atoms: C_26  and  C_27
REMARK   11  A    between atoms: C_27  and  C_28
REMARK   12  A    between atoms: C_28  and  C_29
REMARK                            x       y       z     vdW  Elec       q    Type
REMARK                         _______ _______ _______ _____ _____    ______ ____
ROOT
ATOM      1  C   UNL     1       5.671  -4.147  24.313  0.00  0.00    +0.040 C 
ATOM      2  C   UNL     1       6.192  -2.725  24.472  0.00  0.00    +0.040 A 
ATOM      3  C   UNL     1       6.760  -2.327  25.690  0.00  0.00    +0.128 A 
ATOM      4  C   UNL     1       7.187  -1.006  25.900  0.00  0.00    +0.050 A 
ATOM      5  C   UNL     1       7.112  -0.035  24.893  0.00  0.00    -0.035 A 
ATOM      6  C   UNL     1       6.612  -0.456  23.651  0.00  0.00    +0.050 A 
ATOM      7  O   UNL     1       6.950  -3.150  26.772  0.00  0.00    -0.486 OA
ATOM      8  C   UNL     1       6.721  -4.558  26.575  0.00  0.00    +0.108 C 
ATOM      9  C   UNL     1       7.994  -5.188  25.977  0.00  0.00    +0.055 C 
ATOM     10  C   UNL     1       6.545  -5.135  27.992  0.00  0.00    +0.055 C 
ATOM     11  C   UNL     1       6.175  -1.771  23.447  0.00  0.00    +0.124 A 
ATOM     12  C   UNL     1       5.435  -4.743  25.728  0.00  0.00    +0.041 C 
ATOM     13  C   UNL     1       4.904  -6.185  25.674  0.00  0.00    +0.015 C 
ATOM     14  C   UNL     1       3.634  -6.286  24.845  0.00  0.00    +0.075 C 
ATOM     15  C   UNL     1       3.893  -5.706  23.484  0.00  0.00    +0.134 C 
ATOM     16  O   UNL     1       3.634  -6.329  22.457  0.00  0.00    -0.297 OA
ATOM     17  C   UNL     1       4.399  -4.285  23.457  0.00  0.00    +0.083 C 
ENDROOT
BRANCH   5  18
ATOM     18  C   UNL     1       7.580   1.426  25.091  0.00  0.00    -0.010 C 
ATOM     19  C   UNL     1       7.412   1.794  26.584  0.00  0.00    +0.016 C 
ATOM     20  C   UNL     1       6.733   2.432  24.276  0.00  0.00    +0.016 C 
BRANCH  18  21
ATOM     21  C   UNL     1       9.081   1.544  24.657  0.00  0.00    +0.011 C 
BRANCH  21  22
ATOM     22  C   UNL     1       9.310   2.043  23.223  0.00  0.00    +0.001 C 
BRANCH  22  23
ATOM     23  C   UNL     1      10.053   1.020  22.359  0.00  0.00    +0.000 C 
BRANCH  23  24
ATOM     24  C   UNL     1      10.495  -0.167  23.219  0.00  0.00    -0.000 C 
BRANCH  24  25
ATOM     25  C   UNL     1       9.950  -1.492  22.690  0.00  0.00    -0.003 C 
ATOM     26  C   UNL     1       9.901  -2.539  23.793  0.00  0.00    +0.004 C 
ENDBRANCH  24  25
ENDBRANCH  23  24
ENDBRANCH  22  23
ENDBRANCH  21  22
ENDBRANCH  18  21
ENDBRANCH   5  18
BRANCH  11  27
ATOM     27  O   UNL     1       5.744  -2.120  22.199  0.00  0.00    -0.506 OA
ATOM     28  H   UNL     1       5.201  -1.405  21.831  0.00  0.00    +0.292 HD
ENDBRANCH  11  27
TORSDOF 7
ENDMDL
