MODEL 1
REMARK VINA RESULT:      -6.5      0.000      0.000
REMARK  Name = 
REMARK  8 active torsions:
REMARK  status: ('A' for Active; 'I' for Inactive)
REMARK    1  A    between atoms: O_1  and  C_2
REMARK    2  A    between atoms: C_2  and  C_3
REMARK    3  A    between atoms: C_6  and  O_8
REMARK    4  A    between atoms: O_8  and  C_9
REMARK    5  A    between atoms: C_13  and  N_15
REMARK    6  A    between atoms: C_18  and  O_20
REMARK    7  A    between atoms: C_21  and  O_23
REMARK    8  A    between atoms: C_24  and  O_26
REMARK                            x       y       z     vdW  Elec       q    Type
REMARK                         _______ _______ _______ _____ _____    ______ ____
ROOT
ATOM      1  C   UNL     1       6.677  -4.466  26.029  0.00  0.00    +0.179 C 
ATOM      2  C   UNL     1       7.868  -5.420  26.178  0.00  0.00    +0.177 C 
ATOM      3  C   UNL     1       9.158  -4.702  25.748  0.00  0.00    +0.180 C 
ATOM      4  C   UNL     1       9.025  -4.047  24.366  0.00  0.00    +0.214 C 
ATOM      5  C   UNL     1       7.766  -3.158  24.368  0.00  0.00    +0.339 C 
ATOM      6  O   UNL     1       6.629  -3.952  24.692  0.00  0.00    -0.331 OA
ENDROOT
BRANCH   2   7
ATOM      7  O   UNL     1       7.954  -5.846  27.541  0.00  0.00    -0.386 OA
ATOM      8  H   UNL     1       8.782  -6.351  27.642  0.00  0.00    +0.210 HD
ENDBRANCH   2   7
BRANCH   3   9
ATOM      9  O   UNL     1      10.259  -5.622  25.761  0.00  0.00    -0.386 OA
ATOM     10  H   UNL     1       9.939  -6.418  26.223  0.00  0.00    +0.210 HD
ENDBRANCH   3   9
BRANCH   4  11
ATOM     11  O   UNL     1      10.247  -3.330  24.111  0.00  0.00    -0.383 OA
ATOM     12  H   UNL     1      10.612  -3.019  24.959  0.00  0.00    +0.210 HD
ENDBRANCH   4  11
BRANCH   1  13
ATOM     13  C   UNL     1       5.348  -5.170  26.318  0.00  0.00    +0.190 C 
BRANCH  13  14
ATOM     14  O   UNL     1       5.567  -6.583  26.370  0.00  0.00    -0.392 OA
ATOM     15  H   UNL     1       5.858  -6.789  27.274  0.00  0.00    +0.210 HD
ENDBRANCH  13  14
ENDBRANCH   1  13
BRANCH   5  16
ATOM     16  O   UNL     1       7.588  -2.544  23.082  0.00  0.00    -0.461 OA
BRANCH  16  17
ATOM     17  C   UNL     1       8.188  -1.317  22.934  0.00  0.00    +0.130 A 
ATOM     18  C   UNL     1       8.117  -0.284  23.871  0.00  0.00    +0.130 A 
ATOM     19  C   UNL     1       8.785   0.926  23.627  0.00  0.00    +0.277 A 
ATOM     20  C   UNL     1       9.524   1.114  22.451  0.00  0.00    +0.084 A 
ATOM     21  C   UNL     1       9.590   0.072  21.522  0.00  0.00    +0.010 A 
ATOM     22  C   UNL     1       8.935  -1.135  21.767  0.00  0.00    +0.046 A 
BRANCH  19  23
ATOM     23  N   UNL     1       8.704   2.003  24.623  0.00  0.00    +0.080 N 
ATOM     24  O   UNL     1       9.365   3.034  24.416  0.00  0.00    +0.041 OA
ATOM     25  O   UNL     1       7.955   1.835  25.602  0.00  0.00    -0.576 OA
ENDBRANCH  19  23
ENDBRANCH  16  17
ENDBRANCH   5  16
TORSDOF 8
ENDMDL
MODEL 2
REMARK VINA RESULT:      -6.4      3.079      6.653
REMARK  Name = 
REMARK  8 active torsions:
REMARK  status: ('A' for Active; 'I' for Inactive)
REMARK    1  A    between atoms: O_1  and  C_2
REMARK    2  A    between atoms: C_2  and  C_3
REMARK    3  A    between atoms: C_6  and  O_8
REMARK    4  A    between atoms: O_8  and  C_9
REMARK    5  A    between atoms: C_13  and  N_15
REMARK    6  A    between atoms: C_18  and  O_20
REMARK    7  A    between atoms: C_21  and  O_23
REMARK    8  A    between atoms: C_24  and  O_26
REMARK                            x       y       z     vdW  Elec       q    Type
REMARK                         _______ _______ _______ _____ _____    ______ ____
ROOT
ATOM      1  C   UNL     1       7.932   1.441  24.409  0.00  0.00    +0.179 C 
ATOM      2  C   UNL     1       8.757   2.306  23.451  0.00  0.00    +0.177 C 
ATOM      3  C   UNL     1       9.175   1.468  22.232  0.00  0.00    +0.180 C 
ATOM      4  C   UNL     1       9.837   0.143  22.638  0.00  0.00    +0.214 C 
ATOM      5  C   UNL     1       8.905  -0.583  23.628  0.00  0.00    +0.339 C 
ATOM      6  O   UNL     1       8.664   0.259  24.752  0.00  0.00    -0.331 OA
ENDROOT
BRANCH   2   7
ATOM      7  O   UNL     1       7.971   3.432  23.048  0.00  0.00    -0.386 OA
ATOM      8  H   UNL     1       8.536   4.225  23.109  0.00  0.00    +0.210 HD
ENDBRANCH   2   7
BRANCH   3   9
ATOM      9  O   UNL     1      10.054   2.229  21.391  0.00  0.00    -0.386 OA
ATOM     10  H   UNL     1      10.957   2.029  21.695  0.00  0.00    +0.210 HD
ENDBRANCH   3   9
BRANCH   4  11
ATOM     11  O   UNL     1      10.096  -0.595  21.430  0.00  0.00    -0.383 OA
ATOM     12  H   UNL     1       9.249  -0.782  20.987  0.00  0.00    +0.210 HD
ENDBRANCH   4  11
BRANCH   1  13
ATOM     13  C   UNL     1       7.599   2.188  25.705  0.00  0.00    +0.190 C 
BRANCH  13  14
ATOM     14  O   UNL     1       8.382   3.384  25.770  0.00  0.00    -0.392 OA
ATOM     15  H   UNL     1       7.759   4.129  25.727  0.00  0.00    +0.210 HD
ENDBRANCH  13  14
ENDBRANCH   1  13
BRANCH   5  16
ATOM     16  O   UNL     1       9.498  -1.819  24.054  0.00  0.00    -0.461 OA
BRANCH  16  17
ATOM     17  C   UNL     1       8.761  -2.944  23.782  0.00  0.00    +0.130 A 
ATOM     18  C   UNL     1       7.806  -3.038  22.767  0.00  0.00    +0.130 A 
ATOM     19  C   UNL     1       7.122  -4.246  22.562  0.00  0.00    +0.277 A 
ATOM     20  C   UNL     1       7.382  -5.364  23.366  0.00  0.00    +0.084 A 
ATOM     21  C   UNL     1       8.341  -5.260  24.376  0.00  0.00    +0.010 A 
ATOM     22  C   UNL     1       9.030  -4.063  24.575  0.00  0.00    +0.046 A 
BRANCH  19  23
ATOM     23  N   UNL     1       6.122  -4.330  21.489  0.00  0.00    +0.080 N 
ATOM     24  O   UNL     1       5.378  -3.352  21.311  0.00  0.00    +0.041 OA
ATOM     25  O   UNL     1       6.096  -5.366  20.798  0.00  0.00    -0.576 OA
ENDBRANCH  19  23
ENDBRANCH  16  17
ENDBRANCH   5  16
TORSDOF 8
ENDMDL
MODEL 3
REMARK VINA RESULT:      -6.4      2.685      6.459
REMARK  Name = 
REMARK  8 active torsions:
REMARK  status: ('A' for Active; 'I' for Inactive)
REMARK    1  A    between atoms: O_1  and  C_2
REMARK    2  A    between atoms: C_2  and  C_3
REMARK    3  A    between atoms: C_6  and  O_8
REMARK    4  A    between atoms: O_8  and  C_9
REMARK    5  A    between atoms: C_13  and  N_15
REMARK    6  A    between atoms: C_18  and  O_20
REMARK    7  A    between atoms: C_21  and  O_23
REMARK    8  A    between atoms: C_24  and  O_26
REMARK                            x       y       z     vdW  Elec       q    Type
REMARK                         _______ _______ _______ _____ _____    ______ ____
ROOT
ATOM      1  C   UNL     1       6.760   0.510  23.433  0.00  0.00    +0.179 C 
ATOM      2  C   UNL     1       7.690   1.583  22.859  0.00  0.00    +0.177 C 
ATOM      3  C   UNL     1       8.582   0.962  21.771  0.00  0.00    +0.180 C 
ATOM      4  C   UNL     1       9.289  -0.311  22.257  0.00  0.00    +0.214 C 
ATOM      5  C   UNL     1       8.226  -1.265  22.838  0.00  0.00    +0.339 C 
ATOM      6  O   UNL     1       7.530  -0.607  23.893  0.00  0.00    -0.331 OA
ENDROOT
BRANCH   2   7
ATOM      7  O   UNL     1       6.897   2.646  22.321  0.00  0.00    -0.386 OA
ATOM      8  H   UNL     1       7.011   2.640  21.352  0.00  0.00    +0.210 HD
ENDBRANCH   2   7
BRANCH   3   9
ATOM      9  O   UNL     1       9.544   1.925  21.317  0.00  0.00    -0.386 OA
ATOM     10  H   UNL     1       9.426   2.710  21.881  0.00  0.00    +0.210 HD
ENDBRANCH   3   9
BRANCH   4  11
ATOM     11  O   UNL     1      10.012  -0.854  21.138  0.00  0.00    -0.383 OA
ATOM     12  H   UNL     1       9.975  -1.827  21.182  0.00  0.00    +0.210 HD
ENDBRANCH   4  11
BRANCH   1  13
ATOM     13  C   UNL     1       5.940   1.042  24.613  0.00  0.00    +0.190 C 
BRANCH  13  14
ATOM     14  O   UNL     1       4.773   1.703  24.112  0.00  0.00    -0.392 OA
ATOM     15  H   UNL     1       4.718   2.558  24.571  0.00  0.00    +0.210 HD
ENDBRANCH  13  14
ENDBRANCH   1  13
BRANCH   5  16
ATOM     16  O   UNL     1       8.848  -2.462  23.330  0.00  0.00    -0.461 OA
BRANCH  16  17
ATOM     17  C   UNL     1       7.981  -3.466  23.685  0.00  0.00    +0.130 A 
ATOM     18  C   UNL     1       7.883  -4.011  24.967  0.00  0.00    +0.130 A 
ATOM     19  C   UNL     1       6.947  -5.023  25.225  0.00  0.00    +0.277 A 
ATOM     20  C   UNL     1       6.105  -5.499  24.211  0.00  0.00    +0.084 A 
ATOM     21  C   UNL     1       6.209  -4.945  22.933  0.00  0.00    +0.010 A 
ATOM     22  C   UNL     1       7.133  -3.931  22.676  0.00  0.00    +0.046 A 
BRANCH  19  23
ATOM     23  N   UNL     1       6.854  -5.585  26.580  0.00  0.00    +0.080 N 
ATOM     24  O   UNL     1       7.623  -5.138  27.447  0.00  0.00    +0.041 OA
ATOM     25  O   UNL     1       5.990  -6.455  26.791  0.00  0.00    -0.576 OA
ENDBRANCH  19  23
ENDBRANCH  16  17
ENDBRANCH   5  16
TORSDOF 8
ENDMDL
MODEL 4
REMARK VINA RESULT:      -6.3      3.431      5.636
REMARK  Name = 
REMARK  8 active torsions:
REMARK  status: ('A' for Active; 'I' for Inactive)
REMARK    1  A    between atoms: O_1  and  C_2
REMARK    2  A    between atoms: C_2  and  C_3
REMARK    3  A    between atoms: C_6  and  O_8
REMARK    4  A    between atoms: O_8  and  C_9
REMARK    5  A    between atoms: C_13  and  N_15
REMARK    6  A    between atoms: C_18  and  O_20
REMARK    7  A    between atoms: C_21  and  O_23
REMARK    8  A    between atoms: C_24  and  O_26
REMARK                            x       y       z     vdW  Elec       q    Type
REMARK                         _______ _______ _______ _____ _____    ______ ____
ROOT
ATOM      1  C   UNL     1       9.270  -0.362  24.792  0.00  0.00    +0.179 C 
ATOM      2  C   UNL     1       9.313  -1.195  23.507  0.00  0.00    +0.177 C 
ATOM      3  C   UNL     1       9.699  -0.294  22.322  0.00  0.00    +0.180 C 
ATOM      4  C   UNL     1       8.827   0.967  22.245  0.00  0.00    +0.214 C 
ATOM      5  C   UNL     1       8.858   1.665  23.619  0.00  0.00    +0.339 C 
ATOM      6  O   UNL     1       8.396   0.759  24.617  0.00  0.00    -0.331 OA
ENDROOT
BRANCH   2   7
ATOM      7  O   UNL     1      10.262  -2.254  23.671  0.00  0.00    -0.386 OA
ATOM      8  H   UNL     1       9.799  -3.096  23.501  0.00  0.00    +0.210 HD
ENDBRANCH   2   7
BRANCH   3   9
ATOM      9  O   UNL     1       9.618  -1.034  21.096  0.00  0.00    -0.386 OA
ATOM     10  H   UNL     1       9.164  -0.452  20.460  0.00  0.00    +0.210 HD
ENDBRANCH   3   9
BRANCH   4  11
ATOM     11  O   UNL     1       9.336   1.775  21.168  0.00  0.00    -0.383 OA
ATOM     12  H   UNL     1       8.663   1.821  20.464  0.00  0.00    +0.210 HD
ENDBRANCH   4  11
BRANCH   1  13
ATOM     13  C   UNL     1       8.763  -1.181  25.983  0.00  0.00    +0.190 C 
BRANCH  13  14
ATOM     14  O   UNL     1       9.001  -0.451  27.190  0.00  0.00    -0.392 OA
ATOM     15  H   UNL     1       9.253  -1.103  27.867  0.00  0.00    +0.210 HD
ENDBRANCH  13  14
ENDBRANCH   1  13
BRANCH   5  16
ATOM     16  O   UNL     1       8.032   2.840  23.599  0.00  0.00    -0.461 OA
BRANCH  16  17
ATOM     17  C   UNL     1       8.711   4.030  23.684  0.00  0.00    +0.130 A 
ATOM     18  C   UNL     1      10.100   4.145  23.762  0.00  0.00    +0.130 A 
ATOM     19  C   UNL     1      10.693   5.416  23.826  0.00  0.00    +0.277 A 
ATOM     20  C   UNL     1       9.907   6.576  23.815  0.00  0.00    +0.084 A 
ATOM     21  C   UNL     1       8.519   6.450  23.735  0.00  0.00    +0.010 A 
ATOM     22  C   UNL     1       7.927   5.187  23.660  0.00  0.00    +0.046 A 
BRANCH  19  23
ATOM     23  N   UNL     1      12.157   5.521  23.905  0.00  0.00    +0.080 N 
ATOM     24  O   UNL     1      12.828   4.895  23.068  0.00  0.00    +0.041 OA
ATOM     25  O   UNL     1      12.640   6.255  24.786  0.00  0.00    -0.576 OA
ENDBRANCH  19  23
ENDBRANCH  16  17
ENDBRANCH   5  16
TORSDOF 8
ENDMDL
MODEL 5
REMARK VINA RESULT:      -6.3      1.851      2.464
REMARK  Name = 
REMARK  8 active torsions:
REMARK  status: ('A' for Active; 'I' for Inactive)
REMARK    1  A    between atoms: O_1  and  C_2
REMARK    2  A    between atoms: C_2  and  C_3
REMARK    3  A    between atoms: C_6  and  O_8
REMARK    4  A    between atoms: O_8  and  C_9
REMARK    5  A    between atoms: C_13  and  N_15
REMARK    6  A    between atoms: C_18  and  O_20
REMARK    7  A    between atoms: C_21  and  O_23
REMARK    8  A    between atoms: C_24  and  O_26
REMARK                            x       y       z     vdW  Elec       q    Type
REMARK                         _______ _______ _______ _____ _____    ______ ____
ROOT
ATOM      1  C   UNL     1       6.881  -4.857  23.064  0.00  0.00    +0.179 C 
ATOM      2  C   UNL     1       6.734  -5.718  24.323  0.00  0.00    +0.177 C 
ATOM      3  C   UNL     1       7.133  -4.895  25.558  0.00  0.00    +0.180 C 
ATOM      4  C   UNL     1       8.504  -4.224  25.391  0.00  0.00    +0.214 C 
ATOM      5  C   UNL     1       8.501  -3.435  24.067  0.00  0.00    +0.339 C 
ATOM      6  O   UNL     1       8.207  -4.322  22.991  0.00  0.00    -0.331 OA
ENDROOT
BRANCH   2   7
ATOM      7  O   UNL     1       5.378  -6.164  24.425  0.00  0.00    -0.386 OA
ATOM      8  H   UNL     1       5.244  -6.499  25.331  0.00  0.00    +0.210 HD
ENDBRANCH   2   7
BRANCH   3   9
ATOM      9  O   UNL     1       7.122  -5.727  26.727  0.00  0.00    -0.386 OA
ATOM     10  H   UNL     1       7.650  -5.256  27.397  0.00  0.00    +0.210 HD
ENDBRANCH   3   9
BRANCH   4  11
ATOM     11  O   UNL     1       8.729  -3.410  26.557  0.00  0.00    -0.383 OA
ATOM     12  H   UNL     1       8.099  -3.675  27.251  0.00  0.00    +0.210 HD
ENDBRANCH   4  11
BRANCH   1  13
ATOM     13  C   UNL     1       6.623  -5.667  21.789  0.00  0.00    +0.190 C 
BRANCH  13  14
ATOM     14  O   UNL     1       5.227  -5.970  21.701  0.00  0.00    -0.392 OA
ATOM     15  H   UNL     1       4.809  -5.598  22.496  0.00  0.00    +0.210 HD
ENDBRANCH  13  14
ENDBRANCH   1  13
BRANCH   5  16
ATOM     16  O   UNL     1       9.777  -2.811  23.858  0.00  0.00    -0.461 OA
BRANCH  16  17
ATOM     17  C   UNL     1       9.730  -1.568  23.277  0.00  0.00    +0.130 A 
ATOM     18  C   UNL     1       9.911  -0.366  23.964  0.00  0.00    +0.130 A 
ATOM     19  C   UNL     1       9.860   0.851  23.266  0.00  0.00    +0.277 A 
ATOM     20  C   UNL     1       9.628   0.878  21.885  0.00  0.00    +0.084 A 
ATOM     21  C   UNL     1       9.452  -0.330  21.207  0.00  0.00    +0.010 A 
ATOM     22  C   UNL     1       9.511  -1.542  21.896  0.00  0.00    +0.046 A 
BRANCH  19  23
ATOM     23  N   UNL     1      10.055   2.108  24.003  0.00  0.00    +0.080 N 
ATOM     24  O   UNL     1      11.042   2.803  23.712  0.00  0.00    +0.041 OA
ATOM     25  O   UNL     1       9.204   2.420  24.856  0.00  0.00    -0.576 OA
ENDBRANCH  19  23
ENDBRANCH  16  17
ENDBRANCH   5  16
TORSDOF 8
ENDMDL
MODEL 6
REMARK VINA RESULT:      -6.1      1.569      2.127
REMARK  Name = 
REMARK  8 active torsions:
REMARK  status: ('A' for Active; 'I' for Inactive)
REMARK    1  A    between atoms: O_1  and  C_2
REMARK    2  A    between atoms: C_2  and  C_3
REMARK    3  A    between atoms: C_6  and  O_8
REMARK    4  A    between atoms: O_8  and  C_9
REMARK    5  A    between atoms: C_13  and  N_15
REMARK    6  A    between atoms: C_18  and  O_20
REMARK    7  A    between atoms: C_21  and  O_23
REMARK    8  A    between atoms: C_24  and  O_26
REMARK                            x       y       z     vdW  Elec       q    Type
REMARK                         _______ _______ _______ _____ _____    ______ ____
ROOT
ATOM      1  C   UNL     1       6.903  -4.048  26.716  0.00  0.00    +0.179 C 
ATOM      2  C   UNL     1       7.783  -5.249  26.355  0.00  0.00    +0.177 C 
ATOM      3  C   UNL     1       9.088  -4.756  25.709  0.00  0.00    +0.180 C 
ATOM      4  C   UNL     1       8.831  -3.775  24.557  0.00  0.00    +0.214 C 
ATOM      5  C   UNL     1       7.904  -2.655  25.069  0.00  0.00    +0.339 C 
ATOM      6  O   UNL     1       6.696  -3.230  25.558  0.00  0.00    -0.331 OA
ENDROOT
BRANCH   2   7
ATOM      7  O   UNL     1       8.055  -5.999  27.543  0.00  0.00    -0.386 OA
ATOM      8  H   UNL     1       8.997  -6.255  27.523  0.00  0.00    +0.210 HD
ENDBRANCH   2   7
BRANCH   3   9
ATOM      9  O   UNL     1       9.863  -5.873  25.252  0.00  0.00    -0.386 OA
ATOM     10  H   UNL     1       9.821  -5.849  24.279  0.00  0.00    +0.210 HD
ENDBRANCH   3   9
BRANCH   4  11
ATOM     11  O   UNL     1      10.112  -3.309  24.095  0.00  0.00    -0.383 OA
ATOM     12  H   UNL     1       9.978  -2.741  23.316  0.00  0.00    +0.210 HD
ENDBRANCH   4  11
BRANCH   1  13
ATOM     13  C   UNL     1       5.533  -4.486  27.242  0.00  0.00    +0.190 C 
BRANCH  13  14
ATOM     14  O   UNL     1       5.657  -4.858  28.619  0.00  0.00    -0.392 OA
ATOM     15  H   UNL     1       6.516  -4.520  28.924  0.00  0.00    +0.210 HD
ENDBRANCH  13  14
ENDBRANCH   1  13
BRANCH   5  16
ATOM     16  O   UNL     1       7.616  -1.726  24.012  0.00  0.00    -0.461 OA
BRANCH  16  17
ATOM     17  C   UNL     1       8.006  -0.432  24.252  0.00  0.00    +0.130 A 
ATOM     18  C   UNL     1       8.922   0.276  23.470  0.00  0.00    +0.130 A 
ATOM     19  C   UNL     1       9.236   1.604  23.794  0.00  0.00    +0.277 A 
ATOM     20  C   UNL     1       8.643   2.234  24.897  0.00  0.00    +0.084 A 
ATOM     21  C   UNL     1       7.727   1.519  25.670  0.00  0.00    +0.010 A 
ATOM     22  C   UNL     1       7.405   0.200  25.344  0.00  0.00    +0.046 A 
BRANCH  19  23
ATOM     23  N   UNL     1      10.200   2.337  22.961  0.00  0.00    +0.080 N 
ATOM     24  O   UNL     1      10.819   3.279  23.482  0.00  0.00    +0.041 OA
ATOM     25  O   UNL     1      10.364   1.953  21.788  0.00  0.00    -0.576 OA
ENDBRANCH  19  23
ENDBRANCH  16  17
ENDBRANCH   5  16
TORSDOF 8
ENDMDL
MODEL 7
REMARK VINA RESULT:      -6.0      2.811      6.589
REMARK  Name = 
REMARK  8 active torsions:
REMARK  status: ('A' for Active; 'I' for Inactive)
REMARK    1  A    between atoms: O_1  and  C_2
REMARK    2  A    between atoms: C_2  and  C_3
REMARK    3  A    between atoms: C_6  and  O_8
REMARK    4  A    between atoms: O_8  and  C_9
REMARK    5  A    between atoms: C_13  and  N_15
REMARK    6  A    between atoms: C_18  and  O_20
REMARK    7  A    between atoms: C_21  and  O_23
REMARK    8  A    between atoms: C_24  and  O_26
REMARK                            x       y       z     vdW  Elec       q    Type
REMARK                         _______ _______ _______ _____ _____    ______ ____
ROOT
ATOM      1  C   UNL     1       6.964   0.132  23.573  0.00  0.00    +0.179 C 
ATOM      2  C   UNL     1       7.925   1.153  22.953  0.00  0.00    +0.177 C 
ATOM      3  C   UNL     1       8.812   0.455  21.909  0.00  0.00    +0.180 C 
ATOM      4  C   UNL     1       9.484  -0.807  22.468  0.00  0.00    +0.214 C 
ATOM      5  C   UNL     1       8.394  -1.704  23.086  0.00  0.00    +0.339 C 
ATOM      6  O   UNL     1       7.703  -0.977  24.098  0.00  0.00    -0.331 OA
ENDROOT
BRANCH   2   7
ATOM      7  O   UNL     1       7.162   2.204  22.352  0.00  0.00    -0.386 OA
ATOM      8  H   UNL     1       6.229   2.077  22.608  0.00  0.00    +0.210 HD
ENDBRANCH   2   7
BRANCH   3   9
ATOM      9  O   UNL     1       9.800   1.371  21.415  0.00  0.00    -0.386 OA
ATOM     10  H   UNL     1       9.413   2.260  21.506  0.00  0.00    +0.210 HD
ENDBRANCH   3   9
BRANCH   4  11
ATOM     11  O   UNL     1      10.205  -1.424  21.386  0.00  0.00    -0.383 OA
ATOM     12  H   UNL     1      11.103  -1.645  21.692  0.00  0.00    +0.210 HD
ENDBRANCH   4  11
BRANCH   1  13
ATOM     13  C   UNL     1       6.146   0.744  24.714  0.00  0.00    +0.190 C 
BRANCH  13  14
ATOM     14  O   UNL     1       4.966   1.347  24.174  0.00  0.00    -0.392 OA
ATOM     15  H   UNL     1       4.970   2.276  24.461  0.00  0.00    +0.210 HD
ENDBRANCH  13  14
ENDBRANCH   1  13
BRANCH   5  16
ATOM     16  O   UNL     1       8.983  -2.889  23.646  0.00  0.00    -0.461 OA
BRANCH  16  17
ATOM     17  C   UNL     1       8.094  -3.773  24.205  0.00  0.00    +0.130 A 
ATOM     18  C   UNL     1       7.015  -4.345  23.528  0.00  0.00    +0.130 A 
ATOM     19  C   UNL     1       6.178  -5.255  24.191  0.00  0.00    +0.277 A 
ATOM     20  C   UNL     1       6.409  -5.599  25.530  0.00  0.00    +0.084 A 
ATOM     21  C   UNL     1       7.492  -5.023  26.197  0.00  0.00    +0.010 A 
ATOM     22  C   UNL     1       8.333  -4.126  25.536  0.00  0.00    +0.046 A 
BRANCH  19  23
ATOM     23  N   UNL     1       5.047  -5.850  23.465  0.00  0.00    +0.080 N 
ATOM     24  O   UNL     1       4.476  -6.825  23.980  0.00  0.00    +0.041 OA
ATOM     25  O   UNL     1       4.707  -5.326  22.389  0.00  0.00    -0.576 OA
ENDBRANCH  19  23
ENDBRANCH  16  17
ENDBRANCH   5  16
TORSDOF 8
ENDMDL
MODEL 8
REMARK VINA RESULT:      -6.0      1.663      2.260
REMARK  Name = 
REMARK  8 active torsions:
REMARK  status: ('A' for Active; 'I' for Inactive)
REMARK    1  A    between atoms: O_1  and  C_2
REMARK    2  A    between atoms: C_2  and  C_3
REMARK    3  A    between atoms: C_6  and  O_8
REMARK    4  A    between atoms: O_8  and  C_9
REMARK    5  A    between atoms: C_13  and  N_15
REMARK    6  A    between atoms: C_18  and  O_20
REMARK    7  A    between atoms: C_21  and  O_23
REMARK    8  A    between atoms: C_24  and  O_26
REMARK                            x       y       z     vdW  Elec       q    Type
REMARK                         _______ _______ _______ _____ _____    ______ ____
ROOT
ATOM      1  C   UNL     1       5.878  -3.690  25.539  0.00  0.00    +0.179 C 
ATOM      2  C   UNL     1       5.966  -4.878  26.503  0.00  0.00    +0.177 C 
ATOM      3  C   UNL     1       7.383  -4.955  27.096  0.00  0.00    +0.180 C 
ATOM      4  C   UNL     1       8.469  -4.923  26.011  0.00  0.00    +0.214 C 
ATOM      5  C   UNL     1       8.217  -3.700  25.107  0.00  0.00    +0.339 C 
ATOM      6  O   UNL     1       6.909  -3.788  24.549  0.00  0.00    -0.331 OA
ENDROOT
BRANCH   2   7
ATOM      7  O   UNL     1       4.991  -4.711  27.537  0.00  0.00    -0.386 OA
ATOM      8  H   UNL     1       5.112  -5.435  28.178  0.00  0.00    +0.210 HD
ENDBRANCH   2   7
BRANCH   3   9
ATOM      9  O   UNL     1       7.514  -6.136  27.900  0.00  0.00    -0.386 OA
ATOM     10  H   UNL     1       6.737  -6.687  27.697  0.00  0.00    +0.210 HD
ENDBRANCH   3   9
BRANCH   4  11
ATOM     11  O   UNL     1       9.743  -4.903  26.680  0.00  0.00    -0.383 OA
ATOM     12  H   UNL     1       9.924  -3.996  26.986  0.00  0.00    +0.210 HD
ENDBRANCH   4  11
BRANCH   1  13
ATOM     13  C   UNL     1       4.528  -3.642  24.819  0.00  0.00    +0.190 C 
BRANCH  13  14
ATOM     14  O   UNL     1       3.970  -4.960  24.780  0.00  0.00    -0.392 OA
ATOM     15  H   UNL     1       3.565  -5.118  25.649  0.00  0.00    +0.210 HD
ENDBRANCH  13  14
ENDBRANCH   1  13
BRANCH   5  16
ATOM     16  O   UNL     1       9.198  -3.644  24.060  0.00  0.00    -0.461 OA
BRANCH  16  17
ATOM     17  C   UNL     1       9.374  -2.407  23.492  0.00  0.00    +0.130 A 
ATOM     18  C   UNL     1      10.009  -1.332  24.117  0.00  0.00    +0.130 A 
ATOM     19  C   UNL     1      10.153  -0.114  23.436  0.00  0.00    +0.277 A 
ATOM     20  C   UNL     1       9.666   0.041  22.131  0.00  0.00    +0.084 A 
ATOM     21  C   UNL     1       9.035  -1.041  21.514  0.00  0.00    +0.010 A 
ATOM     22  C   UNL     1       8.900  -2.257  22.186  0.00  0.00    +0.046 A 
BRANCH  19  23
ATOM     23  N   UNL     1      10.826   1.008  24.106  0.00  0.00    +0.080 N 
ATOM     24  O   UNL     1      11.558   0.748  25.075  0.00  0.00    +0.041 OA
ATOM     25  O   UNL     1      10.648   2.150  23.647  0.00  0.00    -0.576 OA
ENDBRANCH  19  23
ENDBRANCH  16  17
ENDBRANCH   5  16
TORSDOF 8
ENDMDL
MODEL 9
REMARK VINA RESULT:      -6.0      1.837      2.468
REMARK  Name = 
REMARK  8 active torsions:
REMARK  status: ('A' for Active; 'I' for Inactive)
REMARK    1  A    between atoms: O_1  and  C_2
REMARK    2  A    between atoms: C_2  and  C_3
REMARK    3  A    between atoms: C_6  and  O_8
REMARK    4  A    between atoms: O_8  and  C_9
REMARK    5  A    between atoms: C_13  and  N_15
REMARK    6  A    between atoms: C_18  and  O_20
REMARK    7  A    between atoms: C_21  and  O_23
REMARK    8  A    between atoms: C_24  and  O_26
REMARK                            x       y       z     vdW  Elec       q    Type
REMARK                         _______ _______ _______ _____ _____    ______ ____
ROOT
ATOM      1  C   UNL     1       5.329  -5.332  24.887  0.00  0.00    +0.179 C 
ATOM      2  C   UNL     1       5.756  -6.128  26.125  0.00  0.00    +0.177 C 
ATOM      3  C   UNL     1       6.900  -5.391  26.841  0.00  0.00    +0.180 C 
ATOM      4  C   UNL     1       8.043  -5.025  25.884  0.00  0.00    +0.214 C 
ATOM      5  C   UNL     1       7.446  -4.268  24.681  0.00  0.00    +0.339 C 
ATOM      6  O   UNL     1       6.466  -5.087  24.050  0.00  0.00    -0.331 OA
ENDROOT
BRANCH   2   7
ATOM      7  O   UNL     1       4.627  -6.279  26.992  0.00  0.00    -0.386 OA
ATOM      8  H   UNL     1       4.130  -7.065  26.697  0.00  0.00    +0.210 HD
ENDBRANCH   2   7
BRANCH   3   9
ATOM      9  O   UNL     1       7.393  -6.189  27.927  0.00  0.00    -0.386 OA
ATOM     10  H   UNL     1       7.849  -5.572  28.528  0.00  0.00    +0.210 HD
ENDBRANCH   3   9
BRANCH   4  11
ATOM     11  O   UNL     1       9.004  -4.261  26.636  0.00  0.00    -0.383 OA
ATOM     12  H   UNL     1       8.545  -3.525  27.078  0.00  0.00    +0.210 HD
ENDBRANCH   4  11
BRANCH   1  13
ATOM     13  C   UNL     1       4.282  -6.085  24.061  0.00  0.00    +0.190 C 
BRANCH  13  14
ATOM     14  O   UNL     1       4.517  -7.492  24.177  0.00  0.00    -0.392 OA
ATOM     15  H   UNL     1       5.427  -7.650  23.873  0.00  0.00    +0.210 HD
ENDBRANCH  13  14
ENDBRANCH   1  13
BRANCH   5  16
ATOM     16  O   UNL     1       8.480  -3.927  23.745  0.00  0.00    -0.461 OA
BRANCH  16  17
ATOM     17  C   UNL     1       8.660  -2.582  23.539  0.00  0.00    +0.130 A 
ATOM     18  C   UNL     1       7.625  -1.648  23.463  0.00  0.00    +0.130 A 
ATOM     19  C   UNL     1       7.922  -0.290  23.268  0.00  0.00    +0.277 A 
ATOM     20  C   UNL     1       9.249   0.144  23.148  0.00  0.00    +0.084 A 
ATOM     21  C   UNL     1      10.277  -0.798  23.229  0.00  0.00    +0.010 A 
ATOM     22  C   UNL     1       9.984  -2.147  23.432  0.00  0.00    +0.046 A 
BRANCH  19  23
ATOM     23  N   UNL     1       6.822   0.681  23.192  0.00  0.00    +0.080 N 
ATOM     24  O   UNL     1       6.023   0.727  24.142  0.00  0.00    +0.041 OA
ATOM     25  O   UNL     1       6.771   1.424  22.196  0.00  0.00    -0.576 OA
ENDBRANCH  19  23
ENDBRANCH  16  17
ENDBRANCH   5  16
TORSDOF 8
ENDMDL
