MODEL 1
REMARK VINA RESULT:      -6.8      0.000      0.000
REMARK  Name = 
REMARK  1 active torsions:
REMARK  status: ('A' for Active; 'I' for Inactive)
REMARK    1  A    between atoms: C_1  and  N_2
REMARK                            x       y       z     vdW  Elec       q    Type
REMARK                         _______ _______ _______ _____ _____    ______ ____
ROOT
ATOM      1  C   UNL     1       5.345  -2.111  27.311  0.00  0.00    +0.104 C 
ATOM      2  N   UNL     1       5.328  -3.288  26.450  0.00  0.00    -0.305 NA
ATOM      3  C   UNL     1       4.745  -3.043  25.140  0.00  0.00    +0.093 C 
ATOM      4  C   UNL     1       5.413  -3.633  23.881  0.00  0.00    +0.074 C 
ATOM      5  C   UNL     1       6.478  -4.709  24.101  0.00  0.00    +0.184 C 
ATOM      6  O   UNL     1       7.862  -4.361  24.028  0.00  0.00    -0.468 OA
ATOM      7  C   UNL     1       8.209  -3.101  23.682  0.00  0.00    +0.127 A 
ATOM      8  C   UNL     1       7.362  -2.299  22.941  0.00  0.00    -0.000 A 
ATOM      9  C   UNL     1       7.930  -1.156  22.365  0.00  0.00    +0.027 A 
ATOM     10  C   UNL     1       9.262  -0.810  22.660  0.00  0.00    +0.041 A 
ATOM     11  C   UNL     1      10.020  -1.555  23.554  0.00  0.00    +0.023 A 
ATOM     12 CL   UNL     1      10.009   0.521  21.865  0.00  0.00    -0.084 Cl
ATOM     13  C   UNL     1       9.495  -2.728  24.054  0.00  0.00    +0.047 A 
ATOM     14  N   UNL     1       6.317  -5.630  23.007  0.00  0.00    -0.278 N 
ATOM     15  H   UNL     1       6.755  -6.542  23.075  0.00  0.00    +0.152 HD
ATOM     16  C   UNL     1       6.316  -5.139  21.707  0.00  0.00    +0.216 C 
ATOM     17  C   UNL     1       5.864  -3.680  21.475  0.00  0.00    +0.104 C 
ATOM     18  O   UNL     1       6.574  -5.888  20.773  0.00  0.00    -0.276 OA
ATOM     19  C   UNL     1       6.441  -5.249  25.522  0.00  0.00    +0.084 C 
ATOM     20  C   UNL     1       5.935  -2.762  22.721  0.00  0.00    +0.041 C 
ATOM     21  C   UNL     1       6.583  -4.023  26.453  0.00  0.00    +0.089 C 
ENDROOT
TORSDOF 0
ENDMDL
MODEL 2
REMARK VINA RESULT:      -6.7      3.062      5.113
REMARK  Name = 
REMARK  1 active torsions:
REMARK  status: ('A' for Active; 'I' for Inactive)
REMARK    1  A    between atoms: C_1  and  N_2
REMARK                            x       y       z     vdW  Elec       q    Type
REMARK                         _______ _______ _______ _____ _____    ______ ____
ROOT
ATOM      1  C   UNL     1       8.212  -0.773  23.153  0.00  0.00    +0.104 C 
ATOM      2  N   UNL     1       8.649  -1.702  24.189  0.00  0.00    -0.305 NA
ATOM      3  C   UNL     1       7.802  -1.695  25.372  0.00  0.00    +0.093 C 
ATOM      4  C   UNL     1       7.415  -3.027  26.046  0.00  0.00    +0.074 C 
ATOM      5  C   UNL     1       8.197  -4.272  25.623  0.00  0.00    +0.184 C 
ATOM      6  O   UNL     1       7.622  -5.185  24.687  0.00  0.00    -0.468 OA
ATOM      7  C   UNL     1       6.358  -4.980  24.255  0.00  0.00    +0.127 A 
ATOM      8  C   UNL     1       5.450  -4.257  25.004  0.00  0.00    -0.000 A 
ATOM      9  C   UNL     1       4.103  -4.375  24.636  0.00  0.00    +0.027 A 
ATOM     10  C   UNL     1       3.752  -5.094  23.479  0.00  0.00    +0.041 A 
ATOM     11  C   UNL     1       4.722  -5.656  22.657  0.00  0.00    +0.023 A 
ATOM     12 CL   UNL     1       2.097  -5.349  23.083  0.00  0.00    -0.084 Cl
ATOM     13  C   UNL     1       6.039  -5.618  23.062  0.00  0.00    +0.047 A 
ATOM     14  N   UNL     1       8.322  -5.065  26.817  0.00  0.00    -0.278 N 
ATOM     15  H   UNL     1       9.003  -5.815  26.829  0.00  0.00    +0.152 HD
ATOM     16  C   UNL     1       7.178  -5.375  27.542  0.00  0.00    +0.216 C 
ATOM     17  C   UNL     1       5.971  -4.415  27.454  0.00  0.00    +0.104 C 
ATOM     18  O   UNL     1       7.182  -6.335  28.303  0.00  0.00    -0.276 OA
ATOM     19  C   UNL     1       9.457  -3.904  24.854  0.00  0.00    +0.084 C 
ATOM     20  C   UNL     1       5.954  -3.491  26.211  0.00  0.00    +0.041 C 
ATOM     21  C   UNL     1       9.000  -3.017  23.675  0.00  0.00    +0.089 C 
ENDROOT
TORSDOF 0
ENDMDL
MODEL 3
REMARK VINA RESULT:      -6.7      2.921      4.638
REMARK  Name = 
REMARK  1 active torsions:
REMARK  status: ('A' for Active; 'I' for Inactive)
REMARK    1  A    between atoms: C_1  and  N_2
REMARK                            x       y       z     vdW  Elec       q    Type
REMARK                         _______ _______ _______ _____ _____    ______ ____
ROOT
ATOM      1  C   UNL     1       9.809  -0.276  25.235  0.00  0.00    +0.104 C 
ATOM      2  N   UNL     1       9.051  -0.764  24.089  0.00  0.00    -0.305 NA
ATOM      3  C   UNL     1       9.446  -2.094  23.652  0.00  0.00    +0.093 C 
ATOM      4  C   UNL     1       8.368  -3.126  23.263  0.00  0.00    +0.074 C 
ATOM      5  C   UNL     1       6.946  -2.599  23.055  0.00  0.00    +0.184 C 
ATOM      6  O   UNL     1       5.974  -2.756  24.089  0.00  0.00    -0.468 OA
ATOM      7  C   UNL     1       6.302  -3.446  25.205  0.00  0.00    +0.127 A 
ATOM      8  C   UNL     1       7.309  -4.392  25.196  0.00  0.00    -0.000 A 
ATOM      9  C   UNL     1       7.353  -5.267  26.289  0.00  0.00    +0.027 A 
ATOM     10  C   UNL     1       6.484  -5.073  27.379  0.00  0.00    +0.041 A 
ATOM     11  C   UNL     1       5.606  -3.997  27.419  0.00  0.00    +0.023 A 
ATOM     12 CL   UNL     1       6.443  -6.209  28.670  0.00  0.00    -0.084 Cl
ATOM     13  C   UNL     1       5.498  -3.186  26.308  0.00  0.00    +0.047 A 
ATOM     14  N   UNL     1       6.406  -3.385  21.978  0.00  0.00    -0.278 N 
ATOM     15  H   UNL     1       5.567  -3.054  21.513  0.00  0.00    +0.152 HD
ATOM     16  C   UNL     1       6.453  -4.771  22.065  0.00  0.00    +0.216 C 
ATOM     17  C   UNL     1       7.568  -5.414  22.918  0.00  0.00    +0.104 C 
ATOM     18  O   UNL     1       5.683  -5.449  21.396  0.00  0.00    -0.276 OA
ATOM     19  C   UNL     1       6.926  -1.083  22.936  0.00  0.00    +0.084 C 
ATOM     20  C   UNL     1       8.207  -4.483  23.978  0.00  0.00    +0.041 C 
ATOM     21  C   UNL     1       7.618  -0.541  24.207  0.00  0.00    +0.089 C 
ENDROOT
TORSDOF 0
ENDMDL
MODEL 4
REMARK VINA RESULT:      -6.5      4.020      5.983
REMARK  Name = 
REMARK  1 active torsions:
REMARK  status: ('A' for Active; 'I' for Inactive)
REMARK    1  A    between atoms: C_1  and  N_2
REMARK                            x       y       z     vdW  Elec       q    Type
REMARK                         _______ _______ _______ _____ _____    ______ ____
ROOT
ATOM      1  C   UNL     1       7.274  -3.264  22.327  0.00  0.00    +0.104 C 
ATOM      2  N   UNL     1       8.441  -2.542  22.821  0.00  0.00    -0.305 NA
ATOM      3  C   UNL     1       8.977  -1.580  21.871  0.00  0.00    +0.093 C 
ATOM      4  C   UNL     1       9.421  -0.186  22.359  0.00  0.00    +0.074 C 
ATOM      5  C   UNL     1       9.571   0.005  23.869  0.00  0.00    +0.184 C 
ATOM      6  O   UNL     1       8.536   0.658  24.606  0.00  0.00    -0.468 OA
ATOM      7  C   UNL     1       7.477   1.174  23.943  0.00  0.00    +0.127 A 
ATOM      8  C   UNL     1       7.568   1.534  22.612  0.00  0.00    -0.000 A 
ATOM      9  C   UNL     1       6.540   2.345  22.114  0.00  0.00    +0.027 A 
ATOM     10  C   UNL     1       5.427   2.643  22.922  0.00  0.00    +0.041 A 
ATOM     11  C   UNL     1       5.298   2.109  24.198  0.00  0.00    +0.023 A 
ATOM     12 CL   UNL     1       4.219   3.735  22.367  0.00  0.00    -0.084 Cl
ATOM     13  C   UNL     1       6.346   1.383  24.724  0.00  0.00    +0.047 A 
ATOM     14  N   UNL     1      10.693   0.892  24.029  0.00  0.00    -0.278 N 
ATOM     15  H   UNL     1      11.121   0.968  24.945  0.00  0.00    +0.152 HD
ATOM     16  C   UNL     1      10.705   2.096  23.336  0.00  0.00    +0.216 C 
ATOM     17  C   UNL     1       9.916   2.186  22.011  0.00  0.00    +0.104 C 
ATOM     18  O   UNL     1      11.409   3.017  23.729  0.00  0.00    -0.276 OA
ATOM     19  C   UNL     1       9.582  -1.328  24.602  0.00  0.00    +0.084 C 
ATOM     20  C   UNL     1       8.802   1.125  21.833  0.00  0.00    +0.041 C 
ATOM     21  C   UNL     1       8.286  -2.060  24.185  0.00  0.00    +0.089 C 
ENDROOT
TORSDOF 0
ENDMDL
MODEL 5
REMARK VINA RESULT:      -6.5      2.093      3.883
REMARK  Name = 
REMARK  1 active torsions:
REMARK  status: ('A' for Active; 'I' for Inactive)
REMARK    1  A    between atoms: C_1  and  N_2
REMARK                            x       y       z     vdW  Elec       q    Type
REMARK                         _______ _______ _______ _____ _____    ______ ____
ROOT
ATOM      1  C   UNL     1       6.035  -4.316  20.468  0.00  0.00    +0.104 C 
ATOM      2  N   UNL     1       5.798  -4.943  21.763  0.00  0.00    -0.305 NA
ATOM      3  C   UNL     1       6.988  -5.544  22.346  0.00  0.00    +0.093 C 
ATOM      4  C   UNL     1       7.281  -5.365  23.850  0.00  0.00    +0.074 C 
ATOM      5  C   UNL     1       6.142  -4.828  24.719  0.00  0.00    +0.184 C 
ATOM      6  O   UNL     1       6.127  -3.450  25.095  0.00  0.00    -0.468 OA
ATOM      7  C   UNL     1       7.168  -2.659  24.748  0.00  0.00    +0.127 A 
ATOM      8  C   UNL     1       8.420  -3.187  24.497  0.00  0.00    -0.000 A 
ATOM      9  C   UNL     1       9.485  -2.278  24.467  0.00  0.00    +0.027 A 
ATOM     10  C   UNL     1       9.233  -0.897  24.560  0.00  0.00    +0.041 A 
ATOM     11  C   UNL     1       7.935  -0.405  24.634  0.00  0.00    +0.023 A 
ATOM     12 CL   UNL     1      10.537   0.221  24.648  0.00  0.00    -0.084 Cl
ATOM     13  C   UNL     1       6.891  -1.297  24.752  0.00  0.00    +0.047 A 
ATOM     14  N   UNL     1       6.275  -5.508  25.979  0.00  0.00    -0.278 N 
ATOM     15  H   UNL     1       5.492  -5.487  26.624  0.00  0.00    +0.152 HD
ATOM     16  C   UNL     1       7.501  -5.483  26.633  0.00  0.00    +0.216 C 
ATOM     17  C   UNL     1       8.780  -5.311  25.784  0.00  0.00    +0.104 C 
ATOM     18  O   UNL     1       7.552  -5.694  27.838  0.00  0.00    -0.276 OA
ATOM     19  C   UNL     1       4.807  -4.891  23.991  0.00  0.00    +0.084 C 
ATOM     20  C   UNL     1       8.562  -4.692  24.381  0.00  0.00    +0.041 C 
ATOM     21  C   UNL     1       5.003  -4.123  22.665  0.00  0.00    +0.089 C 
ENDROOT
TORSDOF 0
ENDMDL
MODEL 6
REMARK VINA RESULT:      -6.3      3.280      4.838
REMARK  Name = 
REMARK  1 active torsions:
REMARK  status: ('A' for Active; 'I' for Inactive)
REMARK    1  A    between atoms: C_1  and  N_2
REMARK                            x       y       z     vdW  Elec       q    Type
REMARK                         _______ _______ _______ _____ _____    ______ ____
ROOT
ATOM      1  C   UNL     1       9.843  -3.701  24.490  0.00  0.00    +0.104 C 
ATOM      2  N   UNL     1       8.481  -3.182  24.532  0.00  0.00    -0.305 NA
ATOM      3  C   UNL     1       8.243  -2.257  25.630  0.00  0.00    +0.093 C 
ATOM      4  C   UNL     1       7.430  -0.969  25.387  0.00  0.00    +0.074 C 
ATOM      5  C   UNL     1       6.645  -0.882  24.076  0.00  0.00    +0.184 C 
ATOM      6  O   UNL     1       7.173  -0.127  22.984  0.00  0.00    -0.468 OA
ATOM      7  C   UNL     1       8.319   0.571  23.156  0.00  0.00    +0.127 A 
ATOM      8  C   UNL     1       8.729   0.984  24.409  0.00  0.00    -0.000 A 
ATOM      9  C   UNL     1       9.734   1.959  24.446  0.00  0.00    +0.027 A 
ATOM     10  C   UNL     1      10.357   2.371  23.253  0.00  0.00    +0.041 A 
ATOM     11  C   UNL     1      10.030   1.794  22.032  0.00  0.00    +0.023 A 
ATOM     12 CL   UNL     1      11.504   3.653  23.271  0.00  0.00    -0.084 Cl
ATOM     13  C   UNL     1       8.982   0.899  21.979  0.00  0.00    +0.047 A 
ATOM     14  N   UNL     1       5.436  -0.175  24.405  0.00  0.00    -0.278 N 
ATOM     15  H   UNL     1       4.663  -0.210  23.750  0.00  0.00    +0.152 HD
ATOM     16  C   UNL     1       5.526   1.049  25.056  0.00  0.00    +0.216 C 
ATOM     17  C   UNL     1       6.766   1.322  25.936  0.00  0.00    +0.104 C 
ATOM     18  O   UNL     1       4.591   1.838  25.000  0.00  0.00    -0.276 OA
ATOM     19  C   UNL     1       6.539  -2.239  23.398  0.00  0.00    +0.084 C 
ATOM     20  C   UNL     1       8.002   0.442  25.624  0.00  0.00    +0.041 C 
ATOM     21  C   UNL     1       7.986  -2.754  23.233  0.00  0.00    +0.089 C 
ENDROOT
TORSDOF 0
ENDMDL
MODEL 7
REMARK VINA RESULT:      -6.2      3.494      4.984
REMARK  Name = 
REMARK  1 active torsions:
REMARK  status: ('A' for Active; 'I' for Inactive)
REMARK    1  A    between atoms: C_1  and  N_2
REMARK                            x       y       z     vdW  Elec       q    Type
REMARK                         _______ _______ _______ _____ _____    ______ ____
ROOT
ATOM      1  C   UNL     1       7.040  -4.699  24.058  0.00  0.00    +0.104 C 
ATOM      2  N   UNL     1       8.096  -3.874  23.483  0.00  0.00    -0.305 NA
ATOM      3  C   UNL     1       7.611  -2.880  22.538  0.00  0.00    +0.093 C 
ATOM      4  C   UNL     1       8.182  -1.448  22.570  0.00  0.00    +0.074 C 
ATOM      5  C   UNL     1       9.456  -1.227  23.388  0.00  0.00    +0.184 C 
ATOM      6  O   UNL     1       9.370  -0.657  24.694  0.00  0.00    -0.468 OA
ATOM      7  C   UNL     1       8.169  -0.241  25.156  0.00  0.00    +0.127 A 
ATOM      8  C   UNL     1       7.149   0.110  24.292  0.00  0.00    -0.000 A 
ATOM      9  C   UNL     1       6.080   0.824  24.849  0.00  0.00    +0.027 A 
ATOM     10  C   UNL     1       6.023   1.035  26.238  0.00  0.00    +0.041 A 
ATOM     11  C   UNL     1       6.987   0.506  27.088  0.00  0.00    +0.023 A 
ATOM     12 CL   UNL     1       4.782   2.013  26.919  0.00  0.00    -0.084 Cl
ATOM     13  C   UNL     1       8.086  -0.121  26.538  0.00  0.00    +0.047 A 
ATOM     14  N   UNL     1      10.211  -0.246  22.654  0.00  0.00    -0.278 N 
ATOM     15  H   UNL     1      11.191  -0.123  22.881  0.00  0.00    +0.152 HD
ATOM     16  C   UNL     1       9.596   0.947  22.294  0.00  0.00    +0.216 C 
ATOM     17  C   UNL     1       8.062   0.954  22.112  0.00  0.00    +0.104 C 
ATOM     18  O   UNL     1      10.279   1.930  22.035  0.00  0.00    -0.276 OA
ATOM     19  C   UNL     1      10.124  -2.546  23.746  0.00  0.00    +0.084 C 
ATOM     20  C   UNL     1       7.309  -0.201  22.818  0.00  0.00    +0.041 C 
ATOM     21  C   UNL     1       9.052  -3.391  24.468  0.00  0.00    +0.089 C 
ENDROOT
TORSDOF 0
ENDMDL
MODEL 8
REMARK VINA RESULT:      -6.2      2.735      3.687
REMARK  Name = 
REMARK  1 active torsions:
REMARK  status: ('A' for Active; 'I' for Inactive)
REMARK    1  A    between atoms: C_1  and  N_2
REMARK                            x       y       z     vdW  Elec       q    Type
REMARK                         _______ _______ _______ _____ _____    ______ ____
ROOT
ATOM      1  C   UNL     1       5.484  -5.736  26.586  0.00  0.00    +0.104 C 
ATOM      2  N   UNL     1       6.793  -5.517  25.982  0.00  0.00    -0.305 NA
ATOM      3  C   UNL     1       6.729  -5.081  24.595  0.00  0.00    +0.093 C 
ATOM      4  C   UNL     1       7.663  -3.957  24.101  0.00  0.00    +0.074 C 
ATOM      5  C   UNL     1       8.829  -3.573  25.013  0.00  0.00    +0.184 C 
ATOM      6  O   UNL     1       8.731  -2.410  25.836  0.00  0.00    -0.468 OA
ATOM      7  C   UNL     1       7.641  -1.616  25.732  0.00  0.00    +0.127 A 
ATOM      8  C   UNL     1       6.880  -1.586  24.579  0.00  0.00    -0.000 A 
ATOM      9  C   UNL     1       5.985  -0.517  24.450  0.00  0.00    +0.027 A 
ATOM     10  C   UNL     1       5.806   0.382  25.518  0.00  0.00    +0.041 A 
ATOM     11  C   UNL     1       6.466   0.205  26.728  0.00  0.00    +0.023 A 
ATOM     12 CL   UNL     1       4.804   1.767  25.329  0.00  0.00    -0.084 Cl
ATOM     13  C   UNL     1       7.413  -0.793  26.829  0.00  0.00    +0.047 A 
ATOM     14  N   UNL     1       9.914  -3.252  24.125  0.00  0.00    -0.278 N 
ATOM     15  H   UNL     1      10.852  -3.201  24.507  0.00  0.00    +0.152 HD
ATOM     16  C   UNL     1       9.704  -2.327  23.110  0.00  0.00    +0.216 C 
ATOM     17  C   UNL     1       8.270  -2.149  22.566  0.00  0.00    +0.104 C 
ATOM     18  O   UNL     1      10.660  -1.749  22.606  0.00  0.00    -0.276 OA
ATOM     19  C   UNL     1       9.055  -4.615  26.098  0.00  0.00    +0.084 C 
ATOM     20  C   UNL     1       7.141  -2.631  23.512  0.00  0.00    +0.041 C 
ATOM     21  C   UNL     1       7.705  -4.771  26.834  0.00  0.00    +0.089 C 
ENDROOT
TORSDOF 0
ENDMDL
MODEL 9
REMARK VINA RESULT:      -6.2      3.156      4.072
REMARK  Name = 
REMARK  1 active torsions:
REMARK  status: ('A' for Active; 'I' for Inactive)
REMARK    1  A    between atoms: C_1  and  N_2
REMARK                            x       y       z     vdW  Elec       q    Type
REMARK                         _______ _______ _______ _____ _____    ______ ____
ROOT
ATOM      1  C   UNL     1       4.970  -0.814  26.983  0.00  0.00    +0.104 C 
ATOM      2  N   UNL     1       6.184  -1.474  26.517  0.00  0.00    -0.305 NA
ATOM      3  C   UNL     1       6.153  -1.820  25.104  0.00  0.00    +0.093 C 
ATOM      4  C   UNL     1       7.401  -1.583  24.229  0.00  0.00    +0.074 C 
ATOM      5  C   UNL     1       8.714  -1.288  24.958  0.00  0.00    +0.184 C 
ATOM      6  O   UNL     1       9.179   0.058  25.061  0.00  0.00    -0.468 OA
ATOM      7  C   UNL     1       8.495   1.044  24.438  0.00  0.00    +0.127 A 
ATOM      8  C   UNL     1       7.692   0.782  23.344  0.00  0.00    -0.000 A 
ATOM      9  C   UNL     1       7.294   1.889  22.584  0.00  0.00    +0.027 A 
ATOM     10  C   UNL     1       7.605   3.189  23.021  0.00  0.00    +0.041 A 
ATOM     11  C   UNL     1       8.264   3.407  24.225  0.00  0.00    +0.023 A 
ATOM     12 CL   UNL     1       7.229   4.549  22.037  0.00  0.00    -0.084 Cl
ATOM     13  C   UNL     1       8.735   2.321  24.931  0.00  0.00    +0.047 A 
ATOM     14  N   UNL     1       9.735  -1.926  24.170  0.00  0.00    -0.278 N 
ATOM     15  H   UNL     1      10.649  -2.064  24.586  0.00  0.00    +0.152 HD
ATOM     16  C   UNL     1       9.808  -1.652  22.810  0.00  0.00    +0.216 C 
ATOM     17  C   UNL     1       8.516  -1.223  22.079  0.00  0.00    +0.104 C 
ATOM     18  O   UNL     1      10.854  -1.846  22.205  0.00  0.00    -0.276 OA
ATOM     19  C   UNL     1       8.616  -1.622  26.438  0.00  0.00    +0.084 C 
ATOM     20  C   UNL     1       7.397  -0.663  22.992  0.00  0.00    +0.041 C 
ATOM     21  C   UNL     1       7.405  -0.832  26.980  0.00  0.00    +0.089 C 
ENDROOT
TORSDOF 0
ENDMDL
