MODEL 1
REMARK VINA RESULT:      -6.2      0.000      0.000
REMARK  Name = 
REMARK  29 active torsions:
REMARK  status: ('A' for Active; 'I' for Inactive)
REMARK    1  A    between atoms: N_1  and  C_2
REMARK    2  A    between atoms: C_2  and  C_3
REMARK    3  A    between atoms: C_3  and  C_4
REMARK    4  A    between atoms: C_4  and  N_5
REMARK    5  A    between atoms: N_5  and  C_6
REMARK    6  A    between atoms: C_6  and  C_7
REMARK    7  A    between atoms: C_7  and  O_8
REMARK    8  A    between atoms: O_8  and  C_9
REMARK    9  A    between atoms: C_11  and  O_13
REMARK   10  A    between atoms: O_13  and  C_14
REMARK   11  A    between atoms: C_16  and  O_18
REMARK   12  A    between atoms: C_19  and  N_21
REMARK   13  A    between atoms: C_23  and  N_25
REMARK   14  A    between atoms: C_26  and  O_28
REMARK   15  A    between atoms: O_28  and  C_29
REMARK   16  A    between atoms: C_32  and  C_34
REMARK   17  A    between atoms: C_34  and  O_35
REMARK   18  A    between atoms: C_36  and  O_38
REMARK   19  A    between atoms: C_39  and  O_41
REMARK   20  A    between atoms: C_42  and  N_44
REMARK   21  A    between atoms: C_46  and  C_48
REMARK   22  A    between atoms: C_48  and  O_49
REMARK   23  A    between atoms: C_50  and  O_52
REMARK   24  A    between atoms: O_52  and  C_53
REMARK   25  A    between atoms: C_56  and  C_58
REMARK   26  A    between atoms: C_58  and  N_59
REMARK   27  A    between atoms: C_60  and  O_62
REMARK   28  A    between atoms: C_63  and  O_65
REMARK   29  A    between atoms: C_66  and  N_68
REMARK                            x       y       z     vdW  Elec       q    Type
REMARK                         _______ _______ _______ _____ _____    ______ ____
ROOT
ATOM      1  C   UNL     1       4.950   1.063  26.127  0.00  0.00    +0.205 C 
ATOM      2  C   UNL     1       6.207   1.753  26.781  0.00  0.00    +0.186 C 
ATOM      3  C   UNL     1       6.580   0.741  27.893  0.00  0.00    +0.178 C 
ATOM      4  O   UNL     1       5.574  -0.285  27.882  0.00  0.00    -0.340 OA
ATOM      5  C   UNL     1       5.173  -0.424  26.511  0.00  0.00    +0.282 C 
ENDROOT
BRANCH   3   6
ATOM      6  C   UNL     1       6.708   1.356  29.286  0.00  0.00    +0.190 C 
BRANCH   6   7
ATOM      7  O   UNL     1       7.774   2.309  29.316  0.00  0.00    -0.392 OA
ATOM      8  H   UNL     1       8.596   1.797  29.419  0.00  0.00    +0.210 HD
ENDBRANCH   6   7
ENDBRANCH   3   6
BRANCH   5   9
ATOM      9  O   UNL     1       3.975  -1.191  26.404  0.00  0.00    -0.340 OA
BRANCH   9  10
ATOM     10  C   UNL     1       3.939  -2.563  26.888  0.00  0.00    +0.182 C 
ATOM     11  C   UNL     1       5.167  -3.100  27.715  0.00  0.00    +0.169 C 
ATOM     12  C   UNL     1       4.899  -4.605  28.116  0.00  0.00    +0.084 C 
ATOM     13  C   UNL     1       3.538  -4.821  28.808  0.00  0.00    +0.042 C 
ATOM     14  C   UNL     1       2.388  -4.318  27.946  0.00  0.00    +0.084 C 
ATOM     15  C   UNL     1       2.599  -2.842  27.623  0.00  0.00    +0.163 C 
BRANCH  14  16
ATOM     16  N   UNL     1       1.094  -4.515  28.634  0.00  0.00    -0.325 NA
ATOM     17  H   UNL     1       0.526  -3.666  28.542  0.00  0.00    +0.119 HD
ATOM     18  H   UNL     1       0.582  -5.215  28.082  0.00  0.00    +0.119 HD
ENDBRANCH  14  16
BRANCH  12  19
ATOM     19  N   UNL     1       5.950  -5.156  28.994  0.00  0.00    -0.325 NA
ATOM     20  H   UNL     1       5.635  -6.024  29.423  0.00  0.00    +0.119 HD
ATOM     21  H   UNL     1       6.764  -5.411  28.426  0.00  0.00    +0.119 HD
ENDBRANCH  12  19
BRANCH  15  22
ATOM     22  O   UNL     1       1.499  -2.368  26.833  0.00  0.00    -0.388 OA
ATOM     23  H   UNL     1       1.785  -1.498  26.491  0.00  0.00    +0.210 HD
ENDBRANCH  15  22
BRANCH  11  24
ATOM     24  O   UNL     1       6.447  -3.070  27.001  0.00  0.00    -0.342 OA
BRANCH  24  25
ATOM     25  C   UNL     1       6.558  -4.026  25.952  0.00  0.00    +0.270 C 
ATOM     26  C   UNL     1       7.826  -4.940  25.914  0.00  0.00    +0.139 C 
ATOM     27  C   UNL     1       9.054  -4.230  25.327  0.00  0.00    +0.167 C 
ATOM     28  C   UNL     1       8.696  -3.554  24.000  0.00  0.00    +0.176 C 
ATOM     29  C   UNL     1       7.459  -2.667  24.185  0.00  0.00    +0.178 C 
ATOM     30  O   UNL     1       6.343  -3.427  24.675  0.00  0.00    -0.342 OA
BRANCH  26  31
ATOM     31  N   UNL     1       8.189  -5.644  27.162  0.00  0.00    -0.321 NA
ATOM     32  H   UNL     1       7.563  -6.456  27.225  0.00  0.00    +0.119 HD
ATOM     33  H   UNL     1       7.957  -5.059  27.962  0.00  0.00    +0.119 HD
ENDBRANCH  26  31
BRANCH  28  34
ATOM     34  O   UNL     1       9.830  -2.817  23.524  0.00  0.00    -0.387 OA
ATOM     35  H   UNL     1       9.512  -2.087  22.961  0.00  0.00    +0.210 HD
ENDBRANCH  28  34
BRANCH  27  36
ATOM     36  O   UNL     1      10.085  -5.215  25.090  0.00  0.00    -0.387 OA
ATOM     37  H   UNL     1      10.740  -4.794  24.501  0.00  0.00    +0.210 HD
ENDBRANCH  27  36
BRANCH  29  38
ATOM     38  C   UNL     1       6.981  -2.069  22.855  0.00  0.00    +0.190 C 
BRANCH  38  39
ATOM     39  O   UNL     1       7.352  -2.935  21.779  0.00  0.00    -0.392 OA
ATOM     40  H   UNL     1       6.752  -3.700  21.815  0.00  0.00    +0.210 HD
ENDBRANCH  38  39
ENDBRANCH  29  38
ENDBRANCH  24  25
ENDBRANCH  11  24
ENDBRANCH   9  10
ENDBRANCH   5   9
BRANCH   2  41
ATOM     41  O   UNL     1       7.447   1.991  26.100  0.00  0.00    -0.341 OA
BRANCH  41  42
ATOM     42  C   UNL     1       7.598   1.539  24.742  0.00  0.00    +0.270 C 
ATOM     43  C   UNL     1       8.859   0.580  24.566  0.00  0.00    +0.139 C 
ATOM     44  C   UNL     1      10.052   1.158  23.769  0.00  0.00    +0.167 C 
ATOM     45  C   UNL     1       9.584   2.026  22.614  0.00  0.00    +0.175 C 
ATOM     46  C   UNL     1       8.620   3.105  23.114  0.00  0.00    +0.166 C 
ATOM     47  O   UNL     1       7.458   2.558  23.750  0.00  0.00    -0.343 OA
BRANCH  43  48
ATOM     48  N   UNL     1       9.417  -0.014  25.820  0.00  0.00    -0.321 NA
ATOM     49  H   UNL     1      10.066   0.662  26.218  0.00  0.00    +0.119 HD
ATOM     50  H   UNL     1       9.918  -0.863  25.605  0.00  0.00    +0.119 HD
ENDBRANCH  43  48
BRANCH  45  51
ATOM     51  O   UNL     1      10.712   2.559  21.904  0.00  0.00    -0.387 OA
ATOM     52  H   UNL     1      10.644   2.340  20.958  0.00  0.00    +0.210 HD
ENDBRANCH  45  51
BRANCH  44  53
ATOM     53  O   UNL     1      10.845   0.068  23.237  0.00  0.00    -0.387 OA
ATOM     54  H   UNL     1      10.236  -0.494  22.719  0.00  0.00    +0.210 HD
ENDBRANCH  44  53
BRANCH  46  55
ATOM     55  C   UNL     1       9.275   4.206  23.976  0.00  0.00    +0.112 C 
BRANCH  55  56
ATOM     56  N   UNL     1       9.897   5.242  23.142  0.00  0.00    -0.328 NA
ATOM     57  H   UNL     1       9.167   5.731  22.622  0.00  0.00    +0.118 HD
ATOM     58  H   UNL     1      10.257   5.967  23.760  0.00  0.00    +0.118 HD
ENDBRANCH  55  56
ENDBRANCH  46  55
ENDBRANCH  41  42
ENDBRANCH   2  41
BRANCH   1  59
ATOM     59  O   UNL     1       4.632   1.445  24.791  0.00  0.00    -0.368 OA
BRANCH  59  60
ATOM     60  C   UNL     1       3.989   2.725  24.589  0.00  0.00    +0.175 C 
BRANCH  60  61
ATOM     61  C   UNL     1       4.173   3.548  23.277  0.00  0.00    +0.109 C 
BRANCH  61  62
ATOM     62  N   UNL     1       5.311   4.468  23.112  0.00  0.00    -0.314 NA
ATOM     63  H   UNL     1       6.159   3.895  23.099  0.00  0.00    +0.122 HD
BRANCH  62  64
ATOM     64  C   UNL     1       5.493   5.470  24.178  0.00  0.00    +0.082 C 
BRANCH  64  65
ATOM     65  C   UNL     1       6.453   6.560  23.651  0.00  0.00    +0.030 C 
BRANCH  65  66
ATOM     66  C   UNL     1       6.345   6.819  22.145  0.00  0.00    +0.079 C 
BRANCH  66  67
ATOM     67  N   UNL     1       7.462   6.179  21.448  0.00  0.00    -0.330 NA
ATOM     68  H   UNL     1       7.947   5.539  22.080  0.00  0.00    +0.118 HD
ATOM     69  H   UNL     1       7.111   5.605  20.683  0.00  0.00    +0.118 HD
ENDBRANCH  66  67
ENDBRANCH  65  66
ENDBRANCH  64  65
ENDBRANCH  62  64
ENDBRANCH  61  62
ENDBRANCH  60  61
ENDBRANCH  59  60
ENDBRANCH   1  59
TORSDOF 29
ENDMDL
MODEL 2
REMARK VINA RESULT:      -6.2      2.372      4.457
REMARK  Name = 
REMARK  29 active torsions:
REMARK  status: ('A' for Active; 'I' for Inactive)
REMARK    1  A    between atoms: N_1  and  C_2
REMARK    2  A    between atoms: C_2  and  C_3
REMARK    3  A    between atoms: C_3  and  C_4
REMARK    4  A    between atoms: C_4  and  N_5
REMARK    5  A    between atoms: N_5  and  C_6
REMARK    6  A    between atoms: C_6  and  C_7
REMARK    7  A    between atoms: C_7  and  O_8
REMARK    8  A    between atoms: O_8  and  C_9
REMARK    9  A    between atoms: C_11  and  O_13
REMARK   10  A    between atoms: O_13  and  C_14
REMARK   11  A    between atoms: C_16  and  O_18
REMARK   12  A    between atoms: C_19  and  N_21
REMARK   13  A    between atoms: C_23  and  N_25
REMARK   14  A    between atoms: C_26  and  O_28
REMARK   15  A    between atoms: O_28  and  C_29
REMARK   16  A    between atoms: C_32  and  C_34
REMARK   17  A    between atoms: C_34  and  O_35
REMARK   18  A    between atoms: C_36  and  O_38
REMARK   19  A    between atoms: C_39  and  O_41
REMARK   20  A    between atoms: C_42  and  N_44
REMARK   21  A    between atoms: C_46  and  C_48
REMARK   22  A    between atoms: C_48  and  O_49
REMARK   23  A    between atoms: C_50  and  O_52
REMARK   24  A    between atoms: O_52  and  C_53
REMARK   25  A    between atoms: C_56  and  C_58
REMARK   26  A    between atoms: C_58  and  N_59
REMARK   27  A    between atoms: C_60  and  O_62
REMARK   28  A    between atoms: C_63  and  O_65
REMARK   29  A    between atoms: C_66  and  N_68
REMARK                            x       y       z     vdW  Elec       q    Type
REMARK                         _______ _______ _______ _____ _____    ______ ____
ROOT
ATOM      1  C   UNL     1       5.922  -0.274  25.135  0.00  0.00    +0.205 C 
ATOM      2  C   UNL     1       5.695   1.102  24.399  0.00  0.00    +0.186 C 
ATOM      3  C   UNL     1       5.099   1.971  25.535  0.00  0.00    +0.178 C 
ATOM      4  O   UNL     1       4.939   1.116  26.678  0.00  0.00    -0.340 OA
ATOM      5  C   UNL     1       6.019   0.175  26.616  0.00  0.00    +0.282 C 
ENDROOT
BRANCH   3   6
ATOM      6  C   UNL     1       3.777   2.650  25.178  0.00  0.00    +0.190 C 
BRANCH   6   7
ATOM      7  O   UNL     1       3.499   2.502  23.783  0.00  0.00    -0.392 OA
ATOM      8  H   UNL     1       2.561   2.248  23.716  0.00  0.00    +0.210 HD
ENDBRANCH   6   7
ENDBRANCH   3   6
BRANCH   5   9
ATOM      9  O   UNL     1       5.805  -0.909  27.519  0.00  0.00    -0.340 OA
BRANCH   9  10
ATOM     10  C   UNL     1       4.484  -1.508  27.642  0.00  0.00    +0.182 C 
ATOM     11  C   UNL     1       4.338  -3.059  27.410  0.00  0.00    +0.169 C 
ATOM     12  C   UNL     1       2.820  -3.465  27.587  0.00  0.00    +0.084 C 
ATOM     13  C   UNL     1       2.206  -2.971  28.911  0.00  0.00    +0.042 C 
ATOM     14  C   UNL     1       2.343  -1.462  29.063  0.00  0.00    +0.084 C 
ATOM     15  C   UNL     1       3.815  -1.072  28.974  0.00  0.00    +0.163 C 
BRANCH  14  16
ATOM     16  N   UNL     1       1.765  -1.010  30.347  0.00  0.00    -0.325 NA
ATOM     17  H   UNL     1       2.043  -0.039  30.523  0.00  0.00    +0.119 HD
ATOM     18  H   UNL     1       0.750  -0.951  30.197  0.00  0.00    +0.119 HD
ENDBRANCH  14  16
BRANCH  12  19
ATOM     19  N   UNL     1       2.608  -4.923  27.500  0.00  0.00    -0.325 NA
ATOM     20  H   UNL     1       3.352  -5.419  27.987  0.00  0.00    +0.119 HD
ATOM     21  H   UNL     1       1.746  -5.169  27.995  0.00  0.00    +0.119 HD
ENDBRANCH  12  19
BRANCH  15  22
ATOM     22  O   UNL     1       3.940   0.348  29.143  0.00  0.00    -0.388 OA
ATOM     23  H   UNL     1       4.898   0.529  29.087  0.00  0.00    +0.210 HD
ENDBRANCH  15  22
BRANCH  11  24
ATOM     24  O   UNL     1       4.752  -3.522  26.082  0.00  0.00    -0.342 OA
BRANCH  24  25
ATOM     25  C   UNL     1       5.469  -4.752  26.084  0.00  0.00    +0.270 C 
ATOM     26  C   UNL     1       6.823  -4.820  25.306  0.00  0.00    +0.139 C 
ATOM     27  C   UNL     1       6.632  -4.994  23.793  0.00  0.00    +0.167 C 
ATOM     28  C   UNL     1       5.654  -6.139  23.507  0.00  0.00    +0.176 C 
ATOM     29  C   UNL     1       4.363  -5.932  24.306  0.00  0.00    +0.178 C 
ATOM     30  O   UNL     1       4.631  -5.845  25.714  0.00  0.00    -0.342 OA
BRANCH  26  31
ATOM     31  N   UNL     1       7.814  -3.758  25.578  0.00  0.00    -0.321 NA
ATOM     32  H   UNL     1       8.570  -3.891  24.896  0.00  0.00    +0.119 HD
ATOM     33  H   UNL     1       8.238  -3.914  26.489  0.00  0.00    +0.119 HD
ENDBRANCH  26  31
BRANCH  28  34
ATOM     34  O   UNL     1       5.417  -6.216  22.095  0.00  0.00    -0.387 OA
ATOM     35  H   UNL     1       5.308  -5.311  21.749  0.00  0.00    +0.210 HD
ENDBRANCH  28  34
BRANCH  27  36
ATOM     36  O   UNL     1       7.912  -5.311  23.201  0.00  0.00    -0.387 OA
ATOM     37  H   UNL     1       7.758  -6.058  22.591  0.00  0.00    +0.210 HD
ENDBRANCH  27  36
BRANCH  29  38
ATOM     38  C   UNL     1       3.401  -7.119  24.156  0.00  0.00    +0.190 C 
BRANCH  38  39
ATOM     39  O   UNL     1       2.741  -7.044  22.889  0.00  0.00    -0.392 OA
ATOM     40  H   UNL     1       1.791  -7.170  23.061  0.00  0.00    +0.210 HD
ENDBRANCH  38  39
ENDBRANCH  29  38
ENDBRANCH  24  25
ENDBRANCH  11  24
ENDBRANCH   9  10
ENDBRANCH   5   9
BRANCH   2  41
ATOM     41  O   UNL     1       6.746   1.914  23.857  0.00  0.00    -0.341 OA
BRANCH  41  42
ATOM     42  C   UNL     1       6.836   3.296  24.248  0.00  0.00    +0.270 C 
ATOM     43  C   UNL     1       6.410   4.281  23.070  0.00  0.00    +0.139 C 
ATOM     44  C   UNL     1       7.547   5.113  22.429  0.00  0.00    +0.167 C 
ATOM     45  C   UNL     1       8.567   5.554  23.464  0.00  0.00    +0.175 C 
ATOM     46  C   UNL     1       9.081   4.347  24.254  0.00  0.00    +0.166 C 
ATOM     47  O   UNL     1       8.035   3.648  24.940  0.00  0.00    -0.343 OA
BRANCH  43  48
ATOM     48  N   UNL     1       5.628   3.674  21.950  0.00  0.00    -0.321 NA
ATOM     49  H   UNL     1       4.789   3.258  22.350  0.00  0.00    +0.119 HD
ATOM     50  H   UNL     1       6.171   2.950  21.503  0.00  0.00    +0.119 HD
ENDBRANCH  43  48
BRANCH  45  51
ATOM     51  O   UNL     1       9.616   6.309  22.838  0.00  0.00    -0.387 OA
ATOM     52  H   UNL     1       9.260   7.146  22.489  0.00  0.00    +0.210 HD
ENDBRANCH  45  51
BRANCH  44  53
ATOM     53  O   UNL     1       6.983   6.293  21.804  0.00  0.00    -0.387 OA
ATOM     54  H   UNL     1       7.432   7.063  22.205  0.00  0.00    +0.210 HD
ENDBRANCH  44  53
BRANCH  46  55
ATOM     55  C   UNL     1       9.976   3.382  23.447  0.00  0.00    +0.112 C 
BRANCH  55  56
ATOM     56  N   UNL     1      11.285   3.980  23.155  0.00  0.00    -0.328 NA
ATOM     57  H   UNL     1      11.146   4.823  22.596  0.00  0.00    +0.118 HD
ATOM     58  H   UNL     1      11.662   4.348  24.026  0.00  0.00    +0.118 HD
ENDBRANCH  55  56
ENDBRANCH  46  55
ENDBRANCH  41  42
ENDBRANCH   2  41
BRANCH   1  59
ATOM     59  O   UNL     1       6.886  -1.155  24.560  0.00  0.00    -0.368 OA
BRANCH  59  60
ATOM     60  C   UNL     1       6.855  -1.349  23.127  0.00  0.00    +0.175 C 
BRANCH  60  61
ATOM     61  C   UNL     1       8.071  -1.931  22.342  0.00  0.00    +0.109 C 
BRANCH  61  62
ATOM     62  N   UNL     1       9.232  -2.493  23.051  0.00  0.00    -0.314 NA
ATOM     63  H   UNL     1       8.997  -2.507  24.047  0.00  0.00    +0.122 HD
BRANCH  62  64
ATOM     64  C   UNL     1      10.494  -1.740  22.924  0.00  0.00    +0.082 C 
BRANCH  64  65
ATOM     65  C   UNL     1      10.216  -0.272  23.322  0.00  0.00    +0.030 C 
BRANCH  65  66
ATOM     66  C   UNL     1      10.448   0.031  24.804  0.00  0.00    +0.079 C 
BRANCH  66  67
ATOM     67  N   UNL     1       9.277   0.712  25.362  0.00  0.00    -0.330 NA
ATOM     68  H   UNL     1       9.496   1.694  25.539  0.00  0.00    +0.118 HD
ATOM     69  H   UNL     1       8.519   0.712  24.681  0.00  0.00    +0.118 HD
ENDBRANCH  66  67
ENDBRANCH  65  66
ENDBRANCH  64  65
ENDBRANCH  62  64
ENDBRANCH  61  62
ENDBRANCH  60  61
ENDBRANCH  59  60
ENDBRANCH   1  59
TORSDOF 29
ENDMDL
MODEL 3
REMARK VINA RESULT:      -6.0      2.598      7.526
REMARK  Name = 
REMARK  29 active torsions:
REMARK  status: ('A' for Active; 'I' for Inactive)
REMARK    1  A    between atoms: N_1  and  C_2
REMARK    2  A    between atoms: C_2  and  C_3
REMARK    3  A    between atoms: C_3  and  C_4
REMARK    4  A    between atoms: C_4  and  N_5
REMARK    5  A    between atoms: N_5  and  C_6
REMARK    6  A    between atoms: C_6  and  C_7
REMARK    7  A    between atoms: C_7  and  O_8
REMARK    8  A    between atoms: O_8  and  C_9
REMARK    9  A    between atoms: C_11  and  O_13
REMARK   10  A    between atoms: O_13  and  C_14
REMARK   11  A    between atoms: C_16  and  O_18
REMARK   12  A    between atoms: C_19  and  N_21
REMARK   13  A    between atoms: C_23  and  N_25
REMARK   14  A    between atoms: C_26  and  O_28
REMARK   15  A    between atoms: O_28  and  C_29
REMARK   16  A    between atoms: C_32  and  C_34
REMARK   17  A    between atoms: C_34  and  O_35
REMARK   18  A    between atoms: C_36  and  O_38
REMARK   19  A    between atoms: C_39  and  O_41
REMARK   20  A    between atoms: C_42  and  N_44
REMARK   21  A    between atoms: C_46  and  C_48
REMARK   22  A    between atoms: C_48  and  O_49
REMARK   23  A    between atoms: C_50  and  O_52
REMARK   24  A    between atoms: O_52  and  C_53
REMARK   25  A    between atoms: C_56  and  C_58
REMARK   26  A    between atoms: C_58  and  N_59
REMARK   27  A    between atoms: C_60  and  O_62
REMARK   28  A    between atoms: C_63  and  O_65
REMARK   29  A    between atoms: C_66  and  N_68
REMARK                            x       y       z     vdW  Elec       q    Type
REMARK                         _______ _______ _______ _____ _____    ______ ____
ROOT
ATOM      1  C   UNL     1       6.004  -0.784  26.547  0.00  0.00    +0.205 C 
ATOM      2  C   UNL     1       5.867  -2.291  26.991  0.00  0.00    +0.186 C 
ATOM      3  C   UNL     1       4.386  -2.352  27.442  0.00  0.00    +0.178 C 
ATOM      4  O   UNL     1       3.862  -1.018  27.345  0.00  0.00    -0.340 OA
ATOM      5  C   UNL     1       4.532  -0.416  26.229  0.00  0.00    +0.282 C 
ENDROOT
BRANCH   3   6
ATOM      6  C   UNL     1       4.181  -2.912  28.850  0.00  0.00    +0.190 C 
BRANCH   6   7
ATOM      7  O   UNL     1       4.754  -4.218  28.957  0.00  0.00    -0.392 OA
ATOM      8  H   UNL     1       5.101  -4.438  28.073  0.00  0.00    +0.210 HD
ENDBRANCH   6   7
ENDBRANCH   3   6
BRANCH   5   9
ATOM      9  O   UNL     1       4.325   0.996  26.210  0.00  0.00    -0.340 OA
BRANCH   9  10
ATOM     10  C   UNL     1       5.054   1.854  27.133  0.00  0.00    +0.182 C 
ATOM     11  C   UNL     1       5.966   2.993  26.539  0.00  0.00    +0.169 C 
ATOM     12  C   UNL     1       6.654   3.773  27.729  0.00  0.00    +0.084 C 
ATOM     13  C   UNL     1       5.656   4.265  28.796  0.00  0.00    +0.042 C 
ATOM     14  C   UNL     1       4.830   3.116  29.360  0.00  0.00    +0.084 C 
ATOM     15  C   UNL     1       4.098   2.408  28.224  0.00  0.00    +0.163 C 
BRANCH  14  16
ATOM     16  N   UNL     1       3.866   3.611  30.367  0.00  0.00    -0.325 NA
ATOM     17  H   UNL     1       3.638   2.854  31.020  0.00  0.00    +0.119 HD
ATOM     18  H   UNL     1       4.381   4.287  30.945  0.00  0.00    +0.119 HD
ENDBRANCH  14  16
BRANCH  12  19
ATOM     19  N   UNL     1       7.439   4.935  27.268  0.00  0.00    -0.325 NA
ATOM     20  H   UNL     1       7.348   5.708  27.924  0.00  0.00    +0.119 HD
ATOM     21  H   UNL     1       8.434   4.692  27.269  0.00  0.00    +0.119 HD
ENDBRANCH  12  19
BRANCH  15  22
ATOM     22  O   UNL     1       3.301   1.344  28.765  0.00  0.00    -0.388 OA
ATOM     23  H   UNL     1       3.446   0.586  28.165  0.00  0.00    +0.210 HD
ENDBRANCH  15  22
BRANCH  11  24
ATOM     24  O   UNL     1       7.040   2.521  25.660  0.00  0.00    -0.342 OA
BRANCH  24  25
ATOM     25  C   UNL     1       6.987   3.041  24.335  0.00  0.00    +0.270 C 
ATOM     26  C   UNL     1       7.465   2.127  23.161  0.00  0.00    +0.139 C 
ATOM     27  C   UNL     1       8.993   2.082  23.026  0.00  0.00    +0.167 C 
ATOM     28  C   UNL     1       9.571   3.502  23.027  0.00  0.00    +0.176 C 
ATOM     29  C   UNL     1       9.048   4.275  24.242  0.00  0.00    +0.178 C 
ATOM     30  O   UNL     1       7.612   4.320  24.251  0.00  0.00    -0.342 OA
BRANCH  26  31
ATOM     31  N   UNL     1       6.905   0.760  23.097  0.00  0.00    -0.321 NA
ATOM     32  H   UNL     1       7.231   0.359  22.209  0.00  0.00    +0.119 HD
ATOM     33  H   UNL     1       5.892   0.811  23.017  0.00  0.00    +0.119 HD
ENDBRANCH  26  31
BRANCH  28  34
ATOM     34  O   UNL     1      11.002   3.429  23.001  0.00  0.00    -0.387 OA
ATOM     35  H   UNL     1      11.285   3.200  22.096  0.00  0.00    +0.210 HD
ENDBRANCH  28  34
BRANCH  27  36
ATOM     36  O   UNL     1       9.326   1.440  21.775  0.00  0.00    -0.387 OA
ATOM     37  H   UNL     1       9.695   0.564  22.002  0.00  0.00    +0.210 HD
ENDBRANCH  27  36
BRANCH  29  38
ATOM     38  C   UNL     1       9.492   5.744  24.219  0.00  0.00    +0.190 C 
BRANCH  38  39
ATOM     39  O   UNL     1      10.151   6.026  22.981  0.00  0.00    -0.392 OA
ATOM     40  H   UNL     1       9.817   6.888  22.677  0.00  0.00    +0.210 HD
ENDBRANCH  38  39
ENDBRANCH  29  38
ENDBRANCH  24  25
ENDBRANCH  11  24
ENDBRANCH   9  10
ENDBRANCH   5   9
BRANCH   2  41
ATOM     41  O   UNL     1       6.006  -3.413  26.107  0.00  0.00    -0.341 OA
BRANCH  41  42
ATOM     42  C   UNL     1       4.829  -3.981  25.505  0.00  0.00    +0.270 C 
ATOM     43  C   UNL     1       4.870  -5.574  25.496  0.00  0.00    +0.139 C 
ATOM     44  C   UNL     1       5.051  -6.246  24.114  0.00  0.00    +0.167 C 
ATOM     45  C   UNL     1       4.304  -5.494  23.026  0.00  0.00    +0.175 C 
ATOM     46  C   UNL     1       4.704  -4.016  23.029  0.00  0.00    +0.166 C 
ATOM     47  O   UNL     1       4.427  -3.369  24.278  0.00  0.00    -0.343 OA
BRANCH  43  48
ATOM     48  N   UNL     1       5.850  -6.215  26.426  0.00  0.00    -0.321 NA
ATOM     49  H   UNL     1       6.782  -6.054  26.049  0.00  0.00    +0.119 HD
ATOM     50  H   UNL     1       5.682  -7.209  26.472  0.00  0.00    +0.119 HD
ENDBRANCH  43  48
BRANCH  45  51
ATOM     51  O   UNL     1       4.503  -6.131  21.755  0.00  0.00    -0.387 OA
ATOM     52  H   UNL     1       4.333  -5.498  21.036  0.00  0.00    +0.210 HD
ENDBRANCH  45  51
BRANCH  44  53
ATOM     53  O   UNL     1       4.542  -7.602  24.171  0.00  0.00    -0.387 OA
ATOM     54  H   UNL     1       5.312  -8.182  24.331  0.00  0.00    +0.210 HD
ENDBRANCH  44  53
BRANCH  46  55
ATOM     55  C   UNL     1       6.146  -3.736  22.553  0.00  0.00    +0.112 C 
BRANCH  55  56
ATOM     56  N   UNL     1       6.605  -2.409  22.981  0.00  0.00    -0.328 NA
ATOM     57  H   UNL     1       5.933  -2.025  23.647  0.00  0.00    +0.118 HD
ATOM     58  H   UNL     1       7.439  -2.535  23.552  0.00  0.00    +0.118 HD
ENDBRANCH  55  56
ENDBRANCH  46  55
ENDBRANCH  41  42
ENDBRANCH   2  41
BRANCH   1  59
ATOM     59  O   UNL     1       7.060  -0.479  25.638  0.00  0.00    -0.368 OA
BRANCH  59  60
ATOM     60  C   UNL     1       8.411  -0.452  26.154  0.00  0.00    +0.175 C 
BRANCH  60  61
ATOM     61  C   UNL     1       9.652  -0.706  25.245  0.00  0.00    +0.109 C 
BRANCH  61  62
ATOM     62  N   UNL     1       9.501  -1.275  23.895  0.00  0.00    -0.314 NA
ATOM     63  H   UNL     1       8.503  -1.243  23.668  0.00  0.00    +0.122 HD
BRANCH  62  64
ATOM     64  C   UNL     1       9.927  -2.677  23.734  0.00  0.00    +0.082 C 
BRANCH  64  65
ATOM     65  C   UNL     1       9.407  -3.479  24.949  0.00  0.00    +0.030 C 
BRANCH  65  66
ATOM     66  C   UNL     1       8.970  -4.908  24.618  0.00  0.00    +0.079 C 
BRANCH  66  67
ATOM     67  N   UNL     1       9.876  -5.866  25.255  0.00  0.00    -0.330 NA
ATOM     68  H   UNL     1      10.845  -5.573  25.120  0.00  0.00    +0.118 HD
ATOM     69  H   UNL     1       9.723  -5.872  26.262  0.00  0.00    +0.118 HD
ENDBRANCH  66  67
ENDBRANCH  65  66
ENDBRANCH  64  65
ENDBRANCH  62  64
ENDBRANCH  61  62
ENDBRANCH  60  61
ENDBRANCH  59  60
ENDBRANCH   1  59
TORSDOF 29
ENDMDL
MODEL 4
REMARK VINA RESULT:      -5.9      2.522      5.554
REMARK  Name = 
REMARK  29 active torsions:
REMARK  status: ('A' for Active; 'I' for Inactive)
REMARK    1  A    between atoms: N_1  and  C_2
REMARK    2  A    between atoms: C_2  and  C_3
REMARK    3  A    between atoms: C_3  and  C_4
REMARK    4  A    between atoms: C_4  and  N_5
REMARK    5  A    between atoms: N_5  and  C_6
REMARK    6  A    between atoms: C_6  and  C_7
REMARK    7  A    between atoms: C_7  and  O_8
REMARK    8  A    between atoms: O_8  and  C_9
REMARK    9  A    between atoms: C_11  and  O_13
REMARK   10  A    between atoms: O_13  and  C_14
REMARK   11  A    between atoms: C_16  and  O_18
REMARK   12  A    between atoms: C_19  and  N_21
REMARK   13  A    between atoms: C_23  and  N_25
REMARK   14  A    between atoms: C_26  and  O_28
REMARK   15  A    between atoms: O_28  and  C_29
REMARK   16  A    between atoms: C_32  and  C_34
REMARK   17  A    between atoms: C_34  and  O_35
REMARK   18  A    between atoms: C_36  and  O_38
REMARK   19  A    between atoms: C_39  and  O_41
REMARK   20  A    between atoms: C_42  and  N_44
REMARK   21  A    between atoms: C_46  and  C_48
REMARK   22  A    between atoms: C_48  and  O_49
REMARK   23  A    between atoms: C_50  and  O_52
REMARK   24  A    between atoms: O_52  and  C_53
REMARK   25  A    between atoms: C_56  and  C_58
REMARK   26  A    between atoms: C_58  and  N_59
REMARK   27  A    between atoms: C_60  and  O_62
REMARK   28  A    between atoms: C_63  and  O_65
REMARK   29  A    between atoms: C_66  and  N_68
REMARK                            x       y       z     vdW  Elec       q    Type
REMARK                         _______ _______ _______ _____ _____    ______ ____
ROOT
ATOM      1  C   UNL     1       5.926  -0.271  24.675  0.00  0.00    +0.205 C 
ATOM      2  C   UNL     1       5.834   1.167  24.034  0.00  0.00    +0.186 C 
ATOM      3  C   UNL     1       5.196   1.984  25.185  0.00  0.00    +0.178 C 
ATOM      4  O   UNL     1       4.897   1.058  26.243  0.00  0.00    -0.340 OA
ATOM      5  C   UNL     1       5.926   0.061  26.190  0.00  0.00    +0.282 C 
ENDROOT
BRANCH   3   6
ATOM      6  C   UNL     1       3.945   2.766  24.782  0.00  0.00    +0.190 C 
BRANCH   6   7
ATOM      7  O   UNL     1       3.685   2.607  23.385  0.00  0.00    -0.392 OA
ATOM      8  H   UNL     1       4.200   1.831  23.097  0.00  0.00    +0.210 HD
ENDBRANCH   6   7
ENDBRANCH   3   6
BRANCH   5   9
ATOM      9  O   UNL     1       5.581  -1.072  26.987  0.00  0.00    -0.340 OA
BRANCH   9  10
ATOM     10  C   UNL     1       4.183  -1.424  27.190  0.00  0.00    +0.182 C 
ATOM     11  C   UNL     1       3.698  -2.857  26.750  0.00  0.00    +0.169 C 
ATOM     12  C   UNL     1       2.154  -2.994  27.061  0.00  0.00    +0.084 C 
ATOM     13  C   UNL     1       1.787  -2.629  28.512  0.00  0.00    +0.042 C 
ATOM     14  C   UNL     1       2.247  -1.221  28.867  0.00  0.00    +0.084 C 
ATOM     15  C   UNL     1       3.752  -1.105  28.647  0.00  0.00    +0.163 C 
BRANCH  14  16
ATOM     16  N   UNL     1       1.903  -0.896  30.268  0.00  0.00    -0.325 NA
ATOM     17  H   UNL     1       2.171  -1.678  30.875  0.00  0.00    +0.119 HD
ATOM     18  H   UNL     1       2.540  -0.139  30.548  0.00  0.00    +0.119 HD
ENDBRANCH  14  16
BRANCH  12  19
ATOM     19  N   UNL     1       1.638  -4.350  26.786  0.00  0.00    -0.325 NA
ATOM     20  H   UNL     1       0.622  -4.337  26.727  0.00  0.00    +0.119 HD
ATOM     21  H   UNL     1       1.961  -4.653  25.863  0.00  0.00    +0.119 HD
ENDBRANCH  12  19
BRANCH  15  22
ATOM     22  O   UNL     1       4.183   0.216  29.008  0.00  0.00    -0.388 OA
ATOM     23  H   UNL     1       5.087   0.297  28.647  0.00  0.00    +0.210 HD
ENDBRANCH  15  22
BRANCH  11  24
ATOM     24  O   UNL     1       3.876  -3.154  25.326  0.00  0.00    -0.342 OA
BRANCH  24  25
ATOM     25  C   UNL     1       5.024  -3.942  25.028  0.00  0.00    +0.270 C 
ATOM     26  C   UNL     1       5.246  -4.397  23.550  0.00  0.00    +0.139 C 
ATOM     27  C   UNL     1       4.381  -5.605  23.163  0.00  0.00    +0.167 C 
ATOM     28  C   UNL     1       4.509  -6.712  24.215  0.00  0.00    +0.176 C 
ATOM     29  C   UNL     1       4.238  -6.138  25.609  0.00  0.00    +0.178 C 
ATOM     30  O   UNL     1       5.135  -5.057  25.910  0.00  0.00    -0.342 OA
BRANCH  26  31
ATOM     31  N   UNL     1       5.169  -3.357  22.502  0.00  0.00    -0.321 NA
ATOM     32  H   UNL     1       4.750  -2.532  22.949  0.00  0.00    +0.119 HD
ATOM     33  H   UNL     1       4.507  -3.644  21.786  0.00  0.00    +0.119 HD
ENDBRANCH  26  31
BRANCH  28  34
ATOM     34  O   UNL     1       3.618  -7.785  23.883  0.00  0.00    -0.387 OA
ATOM     35  H   UNL     1       4.011  -8.622  24.191  0.00  0.00    +0.210 HD
ENDBRANCH  28  34
BRANCH  27  36
ATOM     36  O   UNL     1       4.841  -6.111  21.889  0.00  0.00    -0.387 OA
ATOM     37  H   UNL     1       5.199  -7.004  22.058  0.00  0.00    +0.210 HD
ENDBRANCH  27  36
BRANCH  29  38
ATOM     38  C   UNL     1       4.482  -7.177  26.713  0.00  0.00    +0.190 C 
BRANCH  38  39
ATOM     39  O   UNL     1       5.530  -6.723  27.575  0.00  0.00    -0.392 OA
ATOM     40  H   UNL     1       6.368  -6.994  27.162  0.00  0.00    +0.210 HD
ENDBRANCH  38  39
ENDBRANCH  29  38
ENDBRANCH  24  25
ENDBRANCH  11  24
ENDBRANCH   9  10
ENDBRANCH   5   9
BRANCH   2  41
ATOM     41  O   UNL     1       6.968   1.953  23.640  0.00  0.00    -0.341 OA
BRANCH  41  42
ATOM     42  C   UNL     1       7.080   3.308  24.111  0.00  0.00    +0.270 C 
ATOM     43  C   UNL     1       6.752   4.368  22.968  0.00  0.00    +0.139 C 
ATOM     44  C   UNL     1       7.948   5.193  22.437  0.00  0.00    +0.167 C 
ATOM     45  C   UNL     1       8.923   5.543  23.548  0.00  0.00    +0.175 C 
ATOM     46  C   UNL     1       9.353   4.279  24.297  0.00  0.00    +0.166 C 
ATOM     47  O   UNL     1       8.249   3.581  24.886  0.00  0.00    -0.343 OA
BRANCH  43  48
ATOM     48  N   UNL     1       6.016   3.849  21.775  0.00  0.00    -0.321 NA
ATOM     49  H   UNL     1       5.161   3.407  22.109  0.00  0.00    +0.119 HD
ATOM     50  H   UNL     1       6.576   3.159  21.297  0.00  0.00    +0.119 HD
ENDBRANCH  43  48
BRANCH  45  51
ATOM     51  O   UNL     1      10.028   6.294  23.023  0.00  0.00    -0.387 OA
ATOM     52  H   UNL     1      10.215   7.056  23.598  0.00  0.00    +0.210 HD
ENDBRANCH  45  51
BRANCH  44  53
ATOM     53  O   UNL     1       7.458   6.424  21.848  0.00  0.00    -0.387 OA
ATOM     54  H   UNL     1       7.942   7.153  22.283  0.00  0.00    +0.210 HD
ENDBRANCH  44  53
BRANCH  46  55
ATOM     55  C   UNL     1      10.261   3.328  23.488  0.00  0.00    +0.112 C 
BRANCH  55  56
ATOM     56  N   UNL     1      11.556   3.950  23.183  0.00  0.00    -0.328 NA
ATOM     57  H   UNL     1      11.867   3.632  22.264  0.00  0.00    +0.118 HD
ATOM     58  H   UNL     1      11.397   4.945  23.035  0.00  0.00    +0.118 HD
ENDBRANCH  55  56
ENDBRANCH  46  55
ENDBRANCH  41  42
ENDBRANCH   2  41
BRANCH   1  59
ATOM     59  O   UNL     1       6.884  -1.163  24.110  0.00  0.00    -0.368 OA
BRANCH  59  60
ATOM     60  C   UNL     1       8.206  -1.196  24.696  0.00  0.00    +0.175 C 
BRANCH  60  61
ATOM     61  C   UNL     1       9.337  -2.116  24.141  0.00  0.00    +0.109 C 
BRANCH  61  62
ATOM     62  N   UNL     1       9.019  -3.313  23.345  0.00  0.00    -0.314 NA
ATOM     63  H   UNL     1       8.249  -3.060  22.719  0.00  0.00    +0.122 HD
BRANCH  62  64
ATOM     64  C   UNL     1       8.575  -4.496  24.105  0.00  0.00    +0.082 C 
BRANCH  64  65
ATOM     65  C   UNL     1       9.543  -4.691  25.294  0.00  0.00    +0.030 C 
BRANCH  65  66
ATOM     66  C   UNL     1       8.876  -4.595  26.669  0.00  0.00    +0.079 C 
BRANCH  66  67
ATOM     67  N   UNL     1       8.096  -5.806  26.930  0.00  0.00    -0.330 NA
ATOM     68  H   UNL     1       7.306  -5.588  27.539  0.00  0.00    +0.118 HD
ATOM     69  H   UNL     1       7.694  -6.154  26.062  0.00  0.00    +0.118 HD
ENDBRANCH  66  67
ENDBRANCH  65  66
ENDBRANCH  64  65
ENDBRANCH  62  64
ENDBRANCH  61  62
ENDBRANCH  60  61
ENDBRANCH  59  60
ENDBRANCH   1  59
TORSDOF 29
ENDMDL
MODEL 5
REMARK VINA RESULT:      -5.9      2.566      7.892
REMARK  Name = 
REMARK  29 active torsions:
REMARK  status: ('A' for Active; 'I' for Inactive)
REMARK    1  A    between atoms: N_1  and  C_2
REMARK    2  A    between atoms: C_2  and  C_3
REMARK    3  A    between atoms: C_3  and  C_4
REMARK    4  A    between atoms: C_4  and  N_5
REMARK    5  A    between atoms: N_5  and  C_6
REMARK    6  A    between atoms: C_6  and  C_7
REMARK    7  A    between atoms: C_7  and  O_8
REMARK    8  A    between atoms: O_8  and  C_9
REMARK    9  A    between atoms: C_11  and  O_13
REMARK   10  A    between atoms: O_13  and  C_14
REMARK   11  A    between atoms: C_16  and  O_18
REMARK   12  A    between atoms: C_19  and  N_21
REMARK   13  A    between atoms: C_23  and  N_25
REMARK   14  A    between atoms: C_26  and  O_28
REMARK   15  A    between atoms: O_28  and  C_29
REMARK   16  A    between atoms: C_32  and  C_34
REMARK   17  A    between atoms: C_34  and  O_35
REMARK   18  A    between atoms: C_36  and  O_38
REMARK   19  A    between atoms: C_39  and  O_41
REMARK   20  A    between atoms: C_42  and  N_44
REMARK   21  A    between atoms: C_46  and  C_48
REMARK   22  A    between atoms: C_48  and  O_49
REMARK   23  A    between atoms: C_50  and  O_52
REMARK   24  A    between atoms: O_52  and  C_53
REMARK   25  A    between atoms: C_56  and  C_58
REMARK   26  A    between atoms: C_58  and  N_59
REMARK   27  A    between atoms: C_60  and  O_62
REMARK   28  A    between atoms: C_63  and  O_65
REMARK   29  A    between atoms: C_66  and  N_68
REMARK                            x       y       z     vdW  Elec       q    Type
REMARK                         _______ _______ _______ _____ _____    ______ ____
ROOT
ATOM      1  C   UNL     1       6.198  -1.507  24.562  0.00  0.00    +0.205 C 
ATOM      2  C   UNL     1       7.216  -2.385  25.386  0.00  0.00    +0.186 C 
ATOM      3  C   UNL     1       7.321  -1.586  26.709  0.00  0.00    +0.178 C 
ATOM      4  O   UNL     1       6.541  -0.391  26.542  0.00  0.00    -0.340 OA
ATOM      5  C   UNL     1       5.445  -0.756  25.692  0.00  0.00    +0.282 C 
ENDROOT
BRANCH   3   6
ATOM      6  C   UNL     1       8.752  -1.243  27.124  0.00  0.00    +0.190 C 
BRANCH   6   7
ATOM      7  O   UNL     1       9.287  -0.222  26.277  0.00  0.00    -0.392 OA
ATOM      8  H   UNL     1       9.299   0.595  26.807  0.00  0.00    +0.210 HD
ENDBRANCH   6   7
ENDBRANCH   3   6
BRANCH   5   9
ATOM      9  O   UNL     1       4.767   0.402  25.206  0.00  0.00    -0.340 OA
BRANCH   9  10
ATOM     10  C   UNL     1       4.974   1.693  25.846  0.00  0.00    +0.182 C 
ATOM     11  C   UNL     1       5.158   2.963  24.934  0.00  0.00    +0.169 C 
ATOM     12  C   UNL     1       5.375   4.230  25.854  0.00  0.00    +0.084 C 
ATOM     13  C   UNL     1       4.293   4.392  26.938  0.00  0.00    +0.042 C 
ATOM     14  C   UNL     1       4.187   3.149  27.812  0.00  0.00    +0.084 C 
ATOM     15  C   UNL     1       3.896   1.933  26.938  0.00  0.00    +0.163 C 
BRANCH  14  16
ATOM     16  N   UNL     1       3.131   3.316  28.834  0.00  0.00    -0.325 NA
ATOM     17  H   UNL     1       2.831   4.296  28.857  0.00  0.00    +0.119 HD
ATOM     18  H   UNL     1       2.307   2.816  28.474  0.00  0.00    +0.119 HD
ENDBRANCH  14  16
BRANCH  12  19
ATOM     19  N   UNL     1       5.442   5.487  25.083  0.00  0.00    -0.325 NA
ATOM     20  H   UNL     1       5.989   5.354  24.234  0.00  0.00    +0.119 HD
ATOM     21  H   UNL     1       4.501   5.739  24.765  0.00  0.00    +0.119 HD
ENDBRANCH  12  19
BRANCH  15  22
ATOM     22  O   UNL     1       3.772   0.770  27.770  0.00  0.00    -0.388 OA
ATOM     23  H   UNL     1       4.578   0.764  28.322  0.00  0.00    +0.210 HD
ENDBRANCH  15  22
BRANCH  11  24
ATOM     24  O   UNL     1       6.300   2.899  24.017  0.00  0.00    -0.342 OA
BRANCH  24  25
ATOM     25  C   UNL     1       7.523   2.501  24.627  0.00  0.00    +0.270 C 
ATOM     26  C   UNL     1       8.703   3.526  24.657  0.00  0.00    +0.139 C 
ATOM     27  C   UNL     1       9.456   3.605  23.321  0.00  0.00    +0.167 C 
ATOM     28  C   UNL     1       9.821   2.199  22.831  0.00  0.00    +0.176 C 
ATOM     29  C   UNL     1       8.572   1.311  22.822  0.00  0.00    +0.178 C 
ATOM     30  O   UNL     1       7.972   1.245  24.125  0.00  0.00    -0.342 OA
BRANCH  26  31
ATOM     31  N   UNL     1       8.407   4.884  25.158  0.00  0.00    -0.321 NA
ATOM     32  H   UNL     1       7.412   4.884  25.414  0.00  0.00    +0.119 HD
ATOM     33  H   UNL     1       8.492   5.553  24.397  0.00  0.00    +0.119 HD
ENDBRANCH  26  31
BRANCH  28  34
ATOM     34  O   UNL     1      10.433   2.295  21.538  0.00  0.00    -0.387 OA
ATOM     35  H   UNL     1      11.368   2.030  21.616  0.00  0.00    +0.210 HD
ENDBRANCH  28  34
BRANCH  27  36
ATOM     36  O   UNL     1      10.670   4.363  23.521  0.00  0.00    -0.387 OA
ATOM     37  H   UNL     1      10.426   5.141  24.059  0.00  0.00    +0.210 HD
ENDBRANCH  27  36
BRANCH  29  38
ATOM     38  C   UNL     1       8.908  -0.143  22.463  0.00  0.00    +0.190 C 
BRANCH  38  39
ATOM     39  O   UNL     1       9.437  -0.200  21.135  0.00  0.00    -0.392 OA
ATOM     40  H   UNL     1       9.126  -1.036  20.746  0.00  0.00    +0.210 HD
ENDBRANCH  38  39
ENDBRANCH  29  38
ENDBRANCH  24  25
ENDBRANCH  11  24
ENDBRANCH   9  10
ENDBRANCH   5   9
BRANCH   2  41
ATOM     41  O   UNL     1       6.964  -3.731  25.814  0.00  0.00    -0.341 OA
BRANCH  41  42
ATOM     42  C   UNL     1       6.190  -3.954  27.007  0.00  0.00    +0.270 C 
ATOM     43  C   UNL     1       6.653  -5.266  27.784  0.00  0.00    +0.139 C 
ATOM     44  C   UNL     1       5.667  -6.458  27.761  0.00  0.00    +0.167 C 
ATOM     45  C   UNL     1       4.224  -5.990  27.841  0.00  0.00    +0.175 C 
ATOM     46  C   UNL     1       3.937  -4.956  26.749  0.00  0.00    +0.166 C 
ATOM     47  O   UNL     1       4.779  -3.800  26.846  0.00  0.00    -0.343 OA
BRANCH  43  48
ATOM     48  N   UNL     1       8.000  -5.807  27.425  0.00  0.00    -0.321 NA
ATOM     49  H   UNL     1       8.612  -5.664  28.226  0.00  0.00    +0.119 HD
ATOM     50  H   UNL     1       8.373  -5.306  26.634  0.00  0.00    +0.119 HD
ENDBRANCH  43  48
BRANCH  45  51
ATOM     51  O   UNL     1       3.333  -7.116  27.802  0.00  0.00    -0.387 OA
ATOM     52  H   UNL     1       3.843  -7.940  27.707  0.00  0.00    +0.210 HD
ENDBRANCH  45  51
BRANCH  44  53
ATOM     53  O   UNL     1       5.935  -7.324  28.892  0.00  0.00    -0.387 OA
ATOM     54  H   UNL     1       5.143  -7.290  29.463  0.00  0.00    +0.210 HD
ENDBRANCH  44  53
BRANCH  46  55
ATOM     55  C   UNL     1       3.915  -5.523  25.313  0.00  0.00    +0.112 C 
BRANCH  55  56
ATOM     56  N   UNL     1       4.056  -4.458  24.312  0.00  0.00    -0.328 NA
ATOM     57  H   UNL     1       4.419  -3.620  24.770  0.00  0.00    +0.118 HD
ATOM     58  H   UNL     1       4.815  -4.717  23.685  0.00  0.00    +0.118 HD
ENDBRANCH  55  56
ENDBRANCH  46  55
ENDBRANCH  41  42
ENDBRANCH   2  41
BRANCH   1  59
ATOM     59  O   UNL     1       5.495  -2.162  23.508  0.00  0.00    -0.368 OA
BRANCH  59  60
ATOM     60  C   UNL     1       6.234  -2.503  22.313  0.00  0.00    +0.175 C 
BRANCH  60  61
ATOM     61  C   UNL     1       5.709  -3.552  21.284  0.00  0.00    +0.109 C 
BRANCH  61  62
ATOM     62  N   UNL     1       5.616  -4.979  21.635  0.00  0.00    -0.314 NA
ATOM     63  H   UNL     1       5.258  -5.028  22.593  0.00  0.00    +0.122 HD
BRANCH  62  64
ATOM     64  C   UNL     1       6.883  -5.733  21.618  0.00  0.00    +0.082 C 
BRANCH  64  65
ATOM     65  C   UNL     1       7.324  -5.960  23.082  0.00  0.00    +0.030 C 
BRANCH  65  66
ATOM     66  C   UNL     1       8.472  -5.057  23.540  0.00  0.00    +0.079 C 
BRANCH  66  67
ATOM     67  N   UNL     1       9.242  -5.724  24.592  0.00  0.00    -0.330 NA
ATOM     68  H   UNL     1      10.100  -5.204  24.780  0.00  0.00    +0.118 HD
ATOM     69  H   UNL     1       8.715  -5.721  25.463  0.00  0.00    +0.118 HD
ENDBRANCH  66  67
ENDBRANCH  65  66
ENDBRANCH  64  65
ENDBRANCH  62  64
ENDBRANCH  61  62
ENDBRANCH  60  61
ENDBRANCH  59  60
ENDBRANCH   1  59
TORSDOF 29
ENDMDL
MODEL 6
REMARK VINA RESULT:      -5.9      2.240      5.188
REMARK  Name = 
REMARK  29 active torsions:
REMARK  status: ('A' for Active; 'I' for Inactive)
REMARK    1  A    between atoms: N_1  and  C_2
REMARK    2  A    between atoms: C_2  and  C_3
REMARK    3  A    between atoms: C_3  and  C_4
REMARK    4  A    between atoms: C_4  and  N_5
REMARK    5  A    between atoms: N_5  and  C_6
REMARK    6  A    between atoms: C_6  and  C_7
REMARK    7  A    between atoms: C_7  and  O_8
REMARK    8  A    between atoms: O_8  and  C_9
REMARK    9  A    between atoms: C_11  and  O_13
REMARK   10  A    between atoms: O_13  and  C_14
REMARK   11  A    between atoms: C_16  and  O_18
REMARK   12  A    between atoms: C_19  and  N_21
REMARK   13  A    between atoms: C_23  and  N_25
REMARK   14  A    between atoms: C_26  and  O_28
REMARK   15  A    between atoms: O_28  and  C_29
REMARK   16  A    between atoms: C_32  and  C_34
REMARK   17  A    between atoms: C_34  and  O_35
REMARK   18  A    between atoms: C_36  and  O_38
REMARK   19  A    between atoms: C_39  and  O_41
REMARK   20  A    between atoms: C_42  and  N_44
REMARK   21  A    between atoms: C_46  and  C_48
REMARK   22  A    between atoms: C_48  and  O_49
REMARK   23  A    between atoms: C_50  and  O_52
REMARK   24  A    between atoms: O_52  and  C_53
REMARK   25  A    between atoms: C_56  and  C_58
REMARK   26  A    between atoms: C_58  and  N_59
REMARK   27  A    between atoms: C_60  and  O_62
REMARK   28  A    between atoms: C_63  and  O_65
REMARK   29  A    between atoms: C_66  and  N_68
REMARK                            x       y       z     vdW  Elec       q    Type
REMARK                         _______ _______ _______ _____ _____    ______ ____
ROOT
ATOM      1  C   UNL     1       6.789  -0.628  24.515  0.00  0.00    +0.205 C 
ATOM      2  C   UNL     1       7.625   0.681  24.244  0.00  0.00    +0.186 C 
ATOM      3  C   UNL     1       8.793   0.136  23.384  0.00  0.00    +0.178 C 
ATOM      4  O   UNL     1       8.635  -1.290  23.317  0.00  0.00    -0.340 OA
ATOM      5  C   UNL     1       7.220  -1.527  23.327  0.00  0.00    +0.282 C 
ENDROOT
BRANCH   3   6
ATOM      6  C   UNL     1      10.182   0.502  23.908  0.00  0.00    +0.190 C 
BRANCH   6   7
ATOM      7  O   UNL     1      10.123   0.819  25.302  0.00  0.00    -0.392 OA
ATOM      8  H   UNL     1       9.179   0.814  25.544  0.00  0.00    +0.210 HD
ENDBRANCH   6   7
ENDBRANCH   3   6
BRANCH   5   9
ATOM      9  O   UNL     1       6.934  -2.904  23.567  0.00  0.00    -0.340 OA
BRANCH   9  10
ATOM     10  C   UNL     1       7.285  -3.512  24.843  0.00  0.00    +0.182 C 
ATOM     11  C   UNL     1       6.172  -4.303  25.629  0.00  0.00    +0.169 C 
ATOM     12  C   UNL     1       6.788  -4.855  26.976  0.00  0.00    +0.084 C 
ATOM     13  C   UNL     1       8.092  -5.650  26.770  0.00  0.00    +0.042 C 
ATOM     14  C   UNL     1       9.142  -4.824  26.040  0.00  0.00    +0.084 C 
ATOM     15  C   UNL     1       8.582  -4.355  24.701  0.00  0.00    +0.163 C 
BRANCH  14  16
ATOM     16  N   UNL     1      10.378  -5.610  25.836  0.00  0.00    -0.325 NA
ATOM     17  H   UNL     1      11.092  -5.302  26.504  0.00  0.00    +0.119 HD
ATOM     18  H   UNL     1      10.158  -6.568  26.136  0.00  0.00    +0.119 HD
ENDBRANCH  14  16
BRANCH  12  19
ATOM     19  N   UNL     1       5.845  -5.708  27.724  0.00  0.00    -0.325 NA
ATOM     20  H   UNL     1       4.894  -5.359  27.622  0.00  0.00    +0.119 HD
ATOM     21  H   UNL     1       5.837  -6.646  27.312  0.00  0.00    +0.119 HD
ENDBRANCH  12  19
BRANCH  15  22
ATOM     22  O   UNL     1       9.585  -3.599  24.007  0.00  0.00    -0.388 OA
ATOM     23  H   UNL     1      10.284  -4.244  23.785  0.00  0.00    +0.210 HD
ENDBRANCH  15  22
BRANCH  11  24
ATOM     24  O   UNL     1       4.996  -3.506  25.992  0.00  0.00    -0.342 OA
BRANCH  24  25
ATOM     25  C   UNL     1       3.881  -3.674  25.122  0.00  0.00    +0.270 C 
ATOM     26  C   UNL     1       2.471  -3.232  25.632  0.00  0.00    +0.139 C 
ATOM     27  C   UNL     1       1.828  -4.263  26.571  0.00  0.00    +0.167 C 
ATOM     28  C   UNL     1       1.890  -5.663  25.949  0.00  0.00    +0.176 C 
ATOM     29  C   UNL     1       3.328  -5.979  25.523  0.00  0.00    +0.178 C 
ATOM     30  O   UNL     1       3.823  -4.998  24.597  0.00  0.00    -0.342 OA
BRANCH  26  31
ATOM     31  N   UNL     1       2.354  -1.875  26.206  0.00  0.00    -0.321 NA
ATOM     32  H   UNL     1       3.176  -1.748  26.809  0.00  0.00    +0.119 HD
ATOM     33  H   UNL     1       1.551  -1.838  26.830  0.00  0.00    +0.119 HD
ENDBRANCH  26  31
BRANCH  28  34
ATOM     34  O   UNL     1       1.375  -6.618  26.884  0.00  0.00    -0.387 OA
ATOM     35  H   UNL     1       2.063  -7.287  27.056  0.00  0.00    +0.210 HD
ENDBRANCH  28  34
BRANCH  27  36
ATOM     36  O   UNL     1       0.444  -3.900  26.774  0.00  0.00    -0.387 OA
ATOM     37  H   UNL     1       0.243  -3.199  26.125  0.00  0.00    +0.210 HD
ENDBRANCH  27  36
BRANCH  29  38
ATOM     38  C   UNL     1       3.421  -7.316  24.775  0.00  0.00    +0.190 C 
BRANCH  38  39
ATOM     39  O   UNL     1       4.555  -7.299  23.903  0.00  0.00    -0.392 OA
ATOM     40  H   UNL     1       5.339  -7.444  24.461  0.00  0.00    +0.210 HD
ENDBRANCH  38  39
ENDBRANCH  29  38
ENDBRANCH  24  25
ENDBRANCH  11  24
ENDBRANCH   9  10
ENDBRANCH   5   9
BRANCH   2  41
ATOM     41  O   UNL     1       7.144   1.810  23.499  0.00  0.00    -0.341 OA
BRANCH  41  42
ATOM     42  C   UNL     1       7.174   3.115  24.106  0.00  0.00    +0.270 C 
ATOM     43  C   UNL     1       6.624   4.244  23.125  0.00  0.00    +0.139 C 
ATOM     44  C   UNL     1       7.671   5.243  22.577  0.00  0.00    +0.167 C 
ATOM     45  C   UNL     1       8.720   5.581  23.622  0.00  0.00    +0.175 C 
ATOM     46  C   UNL     1       9.349   4.302  24.180  0.00  0.00    +0.166 C 
ATOM     47  O   UNL     1       8.387   3.432  24.790  0.00  0.00    -0.343 OA
BRANCH  43  48
ATOM     48  N   UNL     1       5.818   3.771  21.958  0.00  0.00    -0.321 NA
ATOM     49  H   UNL     1       5.070   3.182  22.319  0.00  0.00    +0.119 HD
ATOM     50  H   UNL     1       6.396   3.224  21.338  0.00  0.00    +0.119 HD
ENDBRANCH  43  48
BRANCH  45  51
ATOM     51  O   UNL     1       9.685   6.496  23.080  0.00  0.00    -0.387 OA
ATOM     52  H   UNL     1      10.328   6.746  23.766  0.00  0.00    +0.210 HD
ENDBRANCH  45  51
BRANCH  44  53
ATOM     53  O   UNL     1       7.003   6.466  22.179  0.00  0.00    -0.387 OA
ATOM     54  H   UNL     1       7.684   7.034  21.767  0.00  0.00    +0.210 HD
ENDBRANCH  44  53
BRANCH  46  55
ATOM     55  C   UNL     1      10.253   3.541  23.186  0.00  0.00    +0.112 C 
BRANCH  55  56
ATOM     56  N   UNL     1      11.562   4.191  23.045  0.00  0.00    -0.328 NA
ATOM     57  H   UNL     1      12.080   4.085  23.918  0.00  0.00    +0.118 HD
ATOM     58  H   UNL     1      12.114   3.643  22.388  0.00  0.00    +0.118 HD
ENDBRANCH  55  56
ENDBRANCH  46  55
ENDBRANCH  41  42
ENDBRANCH   2  41
BRANCH   1  59
ATOM     59  O   UNL     1       5.415  -0.451  24.853  0.00  0.00    -0.368 OA
BRANCH  59  60
ATOM     60  C   UNL     1       5.096   0.452  25.937  0.00  0.00    +0.175 C 
BRANCH  60  61
ATOM     61  C   UNL     1       4.277   1.760  25.715  0.00  0.00    +0.109 C 
BRANCH  61  62
ATOM     62  N   UNL     1       3.954   2.231  24.357  0.00  0.00    -0.314 NA
ATOM     63  H   UNL     1       4.841   2.464  23.902  0.00  0.00    +0.122 HD
BRANCH  62  64
ATOM     64  C   UNL     1       3.107   3.436  24.275  0.00  0.00    +0.082 C 
BRANCH  64  65
ATOM     65  C   UNL     1       2.269   3.344  22.979  0.00  0.00    +0.030 C 
BRANCH  65  66
ATOM     66  C   UNL     1       2.281   4.619  22.132  0.00  0.00    +0.079 C 
BRANCH  66  67
ATOM     67  N   UNL     1       2.835   4.331  20.807  0.00  0.00    -0.330 NA
ATOM     68  H   UNL     1       2.647   3.360  20.554  0.00  0.00    +0.118 HD
ATOM     69  H   UNL     1       2.367   4.901  20.104  0.00  0.00    +0.118 HD
ENDBRANCH  66  67
ENDBRANCH  65  66
ENDBRANCH  64  65
ENDBRANCH  62  64
ENDBRANCH  61  62
ENDBRANCH  60  61
ENDBRANCH  59  60
ENDBRANCH   1  59
TORSDOF 29
ENDMDL
MODEL 7
REMARK VINA RESULT:      -5.9      2.829      7.719
REMARK  Name = 
REMARK  29 active torsions:
REMARK  status: ('A' for Active; 'I' for Inactive)
REMARK    1  A    between atoms: N_1  and  C_2
REMARK    2  A    between atoms: C_2  and  C_3
REMARK    3  A    between atoms: C_3  and  C_4
REMARK    4  A    between atoms: C_4  and  N_5
REMARK    5  A    between atoms: N_5  and  C_6
REMARK    6  A    between atoms: C_6  and  C_7
REMARK    7  A    between atoms: C_7  and  O_8
REMARK    8  A    between atoms: O_8  and  C_9
REMARK    9  A    between atoms: C_11  and  O_13
REMARK   10  A    between atoms: O_13  and  C_14
REMARK   11  A    between atoms: C_16  and  O_18
REMARK   12  A    between atoms: C_19  and  N_21
REMARK   13  A    between atoms: C_23  and  N_25
REMARK   14  A    between atoms: C_26  and  O_28
REMARK   15  A    between atoms: O_28  and  C_29
REMARK   16  A    between atoms: C_32  and  C_34
REMARK   17  A    between atoms: C_34  and  O_35
REMARK   18  A    between atoms: C_36  and  O_38
REMARK   19  A    between atoms: C_39  and  O_41
REMARK   20  A    between atoms: C_42  and  N_44
REMARK   21  A    between atoms: C_46  and  C_48
REMARK   22  A    between atoms: C_48  and  O_49
REMARK   23  A    between atoms: C_50  and  O_52
REMARK   24  A    between atoms: O_52  and  C_53
REMARK   25  A    between atoms: C_56  and  C_58
REMARK   26  A    between atoms: C_58  and  N_59
REMARK   27  A    between atoms: C_60  and  O_62
REMARK   28  A    between atoms: C_63  and  O_65
REMARK   29  A    between atoms: C_66  and  N_68
REMARK                            x       y       z     vdW  Elec       q    Type
REMARK                         _______ _______ _______ _____ _____    ______ ____
ROOT
ATOM      1  C   UNL     1       6.860  -2.377  27.072  0.00  0.00    +0.205 C 
ATOM      2  C   UNL     1       6.097  -3.752  27.187  0.00  0.00    +0.186 C 
ATOM      3  C   UNL     1       4.731  -3.307  27.768  0.00  0.00    +0.178 C 
ATOM      4  O   UNL     1       4.823  -1.896  28.023  0.00  0.00    -0.340 OA
ATOM      5  C   UNL     1       5.682  -1.370  27.001  0.00  0.00    +0.282 C 
ENDROOT
BRANCH   3   6
ATOM      6  C   UNL     1       4.312  -4.057  29.032  0.00  0.00    +0.190 C 
BRANCH   6   7
ATOM      7  O   UNL     1       5.198  -5.153  29.280  0.00  0.00    -0.392 OA
ATOM      8  H   UNL     1       4.702  -5.961  29.055  0.00  0.00    +0.210 HD
ENDBRANCH   6   7
ENDBRANCH   3   6
BRANCH   5   9
ATOM      9  O   UNL     1       6.095  -0.041  27.315  0.00  0.00    -0.340 OA
BRANCH   9  10
ATOM     10  C   UNL     1       5.228   1.087  27.003  0.00  0.00    +0.182 C 
ATOM     11  C   UNL     1       4.823   1.330  25.500  0.00  0.00    +0.169 C 
ATOM     12  C   UNL     1       3.895   2.607  25.418  0.00  0.00    +0.084 C 
ATOM     13  C   UNL     1       2.698   2.557  26.388  0.00  0.00    +0.042 C 
ATOM     14  C   UNL     1       3.153   2.359  27.828  0.00  0.00    +0.084 C 
ATOM     15  C   UNL     1       3.982   1.082  27.930  0.00  0.00    +0.163 C 
BRANCH  14  16
ATOM     16  N   UNL     1       1.990   2.294  28.739  0.00  0.00    -0.325 NA
ATOM     17  H   UNL     1       1.149   2.061  28.202  0.00  0.00    +0.119 HD
ATOM     18  H   UNL     1       2.140   1.467  29.332  0.00  0.00    +0.119 HD
ENDBRANCH  14  16
BRANCH  12  19
ATOM     19  N   UNL     1       3.373   2.843  24.058  0.00  0.00    -0.325 NA
ATOM     20  H   UNL     1       2.391   3.113  24.097  0.00  0.00    +0.119 HD
ATOM     21  H   UNL     1       3.860   3.643  23.643  0.00  0.00    +0.119 HD
ENDBRANCH  12  19
BRANCH  15  22
ATOM     22  O   UNL     1       4.386   0.888  29.293  0.00  0.00    -0.388 OA
ATOM     23  H   UNL     1       4.638  -0.054  29.353  0.00  0.00    +0.210 HD
ENDBRANCH  15  22
BRANCH  11  24
ATOM     24  O   UNL     1       5.950   1.560  24.591  0.00  0.00    -0.342 OA
BRANCH  24  25
ATOM     25  C   UNL     1       6.937   2.454  25.094  0.00  0.00    +0.270 C 
ATOM     26  C   UNL     1       7.214   3.773  24.301  0.00  0.00    +0.139 C 
ATOM     27  C   UNL     1       8.111   3.554  23.075  0.00  0.00    +0.167 C 
ATOM     28  C   UNL     1       9.357   2.749  23.462  0.00  0.00    +0.176 C 
ATOM     29  C   UNL     1       8.942   1.473  24.201  0.00  0.00    +0.178 C 
ATOM     30  O   UNL     1       8.162   1.778  25.368  0.00  0.00    -0.342 OA
BRANCH  26  31
ATOM     31  N   UNL     1       6.045   4.602  23.939  0.00  0.00    -0.321 NA
ATOM     32  H   UNL     1       5.245   3.959  23.882  0.00  0.00    +0.119 HD
ATOM     33  H   UNL     1       6.167   4.967  22.997  0.00  0.00    +0.119 HD
ENDBRANCH  26  31
BRANCH  28  34
ATOM     34  O   UNL     1      10.125   2.474  22.284  0.00  0.00    -0.387 OA
ATOM     35  H   UNL     1      10.377   3.320  21.872  0.00  0.00    +0.210 HD
ENDBRANCH  28  34
BRANCH  27  36
ATOM     36  O   UNL     1       8.522   4.844  22.569  0.00  0.00    -0.387 OA
ATOM     37  H   UNL     1       7.981   5.016  21.775  0.00  0.00    +0.210 HD
ENDBRANCH  27  36
BRANCH  29  38
ATOM     38  C   UNL     1      10.158   0.696  24.726  0.00  0.00    +0.190 C 
BRANCH  38  39
ATOM     39  O   UNL     1       9.804   0.008  25.929  0.00  0.00    -0.392 OA
ATOM     40  H   UNL     1      10.359  -0.791  25.968  0.00  0.00    +0.210 HD
ENDBRANCH  38  39
ENDBRANCH  29  38
ENDBRANCH  24  25
ENDBRANCH  11  24
ENDBRANCH   9  10
ENDBRANCH   5   9
BRANCH   2  41
ATOM     41  O   UNL     1       5.743  -4.579  26.069  0.00  0.00    -0.341 OA
BRANCH  41  42
ATOM     42  C   UNL     1       4.356  -4.872  25.824  0.00  0.00    +0.270 C 
ATOM     43  C   UNL     1       3.998  -6.390  26.149  0.00  0.00    +0.139 C 
ATOM     44  C   UNL     1       3.681  -7.293  24.933  0.00  0.00    +0.167 C 
ATOM     45  C   UNL     1       2.912  -6.538  23.863  0.00  0.00    +0.175 C 
ATOM     46  C   UNL     1       3.655  -5.256  23.478  0.00  0.00    +0.166 C 
ATOM     47  O   UNL     1       3.844  -4.370  24.589  0.00  0.00    -0.343 OA
BRANCH  43  48
ATOM     48  N   UNL     1       4.976  -7.133  27.002  0.00  0.00    -0.321 NA
ATOM     49  H   UNL     1       4.921  -8.117  26.747  0.00  0.00    +0.119 HD
ATOM     50  H   UNL     1       4.733  -7.031  27.975  0.00  0.00    +0.119 HD
ENDBRANCH  43  48
BRANCH  45  51
ATOM     51  O   UNL     1       2.647  -7.397  22.743  0.00  0.00    -0.387 OA
ATOM     52  H   UNL     1       3.417  -7.414  22.147  0.00  0.00    +0.210 HD
ENDBRANCH  45  51
BRANCH  44  53
ATOM     53  O   UNL     1       2.879  -8.420  25.369  0.00  0.00    -0.387 OA
ATOM     54  H   UNL     1       2.718  -8.294  26.325  0.00  0.00    +0.210 HD
ENDBRANCH  44  53
BRANCH  46  55
ATOM     55  C   UNL     1       4.970  -5.481  22.700  0.00  0.00    +0.112 C 
BRANCH  55  56
ATOM     56  N   UNL     1       5.240  -4.377  21.770  0.00  0.00    -0.328 NA
ATOM     57  H   UNL     1       5.639  -4.759  20.911  0.00  0.00    +0.118 HD
ATOM     58  H   UNL     1       4.345  -4.007  21.456  0.00  0.00    +0.118 HD
ENDBRANCH  55  56
ENDBRANCH  46  55
ENDBRANCH  41  42
ENDBRANCH   2  41
BRANCH   1  59
ATOM     59  O   UNL     1       7.942  -2.322  26.145  0.00  0.00    -0.368 OA
BRANCH  59  60
ATOM     60  C   UNL     1       8.891  -3.413  26.148  0.00  0.00    +0.175 C 
BRANCH  60  61
ATOM     61  C   UNL     1       9.116  -4.321  24.899  0.00  0.00    +0.109 C 
BRANCH  61  62
ATOM     62  N   UNL     1       8.657  -3.902  23.564  0.00  0.00    -0.314 NA
ATOM     63  H   UNL     1       9.017  -4.588  22.896  0.00  0.00    +0.122 HD
BRANCH  62  64
ATOM     64  C   UNL     1       9.123  -2.580  23.106  0.00  0.00    +0.082 C 
BRANCH  64  65
ATOM     65  C   UNL     1       8.014  -1.962  22.224  0.00  0.00    +0.030 C 
BRANCH  65  66
ATOM     66  C   UNL     1       6.872  -1.316  23.012  0.00  0.00    +0.079 C 
BRANCH  66  67
ATOM     67  N   UNL     1       6.081  -2.351  23.682  0.00  0.00    -0.330 NA
ATOM     68  H   UNL     1       5.462  -2.807  23.010  0.00  0.00    +0.118 HD
ATOM     69  H   UNL     1       6.696  -3.082  24.037  0.00  0.00    +0.118 HD
ENDBRANCH  66  67
ENDBRANCH  65  66
ENDBRANCH  64  65
ENDBRANCH  62  64
ENDBRANCH  61  62
ENDBRANCH  60  61
ENDBRANCH  59  60
ENDBRANCH   1  59
TORSDOF 29
ENDMDL
MODEL 8
REMARK VINA RESULT:      -5.8      2.503      5.628
REMARK  Name = 
REMARK  29 active torsions:
REMARK  status: ('A' for Active; 'I' for Inactive)
REMARK    1  A    between atoms: N_1  and  C_2
REMARK    2  A    between atoms: C_2  and  C_3
REMARK    3  A    between atoms: C_3  and  C_4
REMARK    4  A    between atoms: C_4  and  N_5
REMARK    5  A    between atoms: N_5  and  C_6
REMARK    6  A    between atoms: C_6  and  C_7
REMARK    7  A    between atoms: C_7  and  O_8
REMARK    8  A    between atoms: O_8  and  C_9
REMARK    9  A    between atoms: C_11  and  O_13
REMARK   10  A    between atoms: O_13  and  C_14
REMARK   11  A    between atoms: C_16  and  O_18
REMARK   12  A    between atoms: C_19  and  N_21
REMARK   13  A    between atoms: C_23  and  N_25
REMARK   14  A    between atoms: C_26  and  O_28
REMARK   15  A    between atoms: O_28  and  C_29
REMARK   16  A    between atoms: C_32  and  C_34
REMARK   17  A    between atoms: C_34  and  O_35
REMARK   18  A    between atoms: C_36  and  O_38
REMARK   19  A    between atoms: C_39  and  O_41
REMARK   20  A    between atoms: C_42  and  N_44
REMARK   21  A    between atoms: C_46  and  C_48
REMARK   22  A    between atoms: C_48  and  O_49
REMARK   23  A    between atoms: C_50  and  O_52
REMARK   24  A    between atoms: O_52  and  C_53
REMARK   25  A    between atoms: C_56  and  C_58
REMARK   26  A    between atoms: C_58  and  N_59
REMARK   27  A    between atoms: C_60  and  O_62
REMARK   28  A    between atoms: C_63  and  O_65
REMARK   29  A    between atoms: C_66  and  N_68
REMARK                            x       y       z     vdW  Elec       q    Type
REMARK                         _______ _______ _______ _____ _____    ______ ____
ROOT
ATOM      1  C   UNL     1       6.990  -0.523  24.315  0.00  0.00    +0.205 C 
ATOM      2  C   UNL     1       7.815   0.804  24.107  0.00  0.00    +0.186 C 
ATOM      3  C   UNL     1       9.014   0.301  23.266  0.00  0.00    +0.178 C 
ATOM      4  O   UNL     1       8.879  -1.125  23.152  0.00  0.00    -0.340 OA
ATOM      5  C   UNL     1       7.468  -1.381  23.115  0.00  0.00    +0.282 C 
ENDROOT
BRANCH   3   6
ATOM      6  C   UNL     1      10.382   0.670  23.840  0.00  0.00    +0.190 C 
BRANCH   6   7
ATOM      7  O   UNL     1      10.266   1.023  25.221  0.00  0.00    -0.392 OA
ATOM      8  H   UNL     1       9.864   0.256  25.667  0.00  0.00    +0.210 HD
ENDBRANCH   6   7
ENDBRANCH   3   6
BRANCH   5   9
ATOM      9  O   UNL     1       7.195  -2.769  23.306  0.00  0.00    -0.340 OA
BRANCH   9  10
ATOM     10  C   UNL     1       7.392  -3.379  24.612  0.00  0.00    +0.182 C 
ATOM     11  C   UNL     1       6.183  -4.139  25.276  0.00  0.00    +0.169 C 
ATOM     12  C   UNL     1       6.638  -4.700  26.682  0.00  0.00    +0.084 C 
ATOM     13  C   UNL     1       7.936  -5.528  26.619  0.00  0.00    +0.042 C 
ATOM     14  C   UNL     1       9.078  -4.730  26.004  0.00  0.00    +0.084 C 
ATOM     15  C   UNL     1       8.676  -4.253  24.612  0.00  0.00    +0.163 C 
BRANCH  14  16
ATOM     16  N   UNL     1      10.309  -5.547  25.935  0.00  0.00    -0.325 NA
ATOM     17  H   UNL     1      10.339  -6.043  25.038  0.00  0.00    +0.119 HD
ATOM     18  H   UNL     1      11.089  -4.880  25.873  0.00  0.00    +0.119 HD
ENDBRANCH  14  16
BRANCH  12  19
ATOM     19  N   UNL     1       5.599  -5.527  27.327  0.00  0.00    -0.325 NA
ATOM     20  H   UNL     1       4.991  -4.947  27.902  0.00  0.00    +0.119 HD
ATOM     21  H   UNL     1       4.992  -5.929  26.607  0.00  0.00    +0.119 HD
ENDBRANCH  12  19
BRANCH  15  22
ATOM     22  O   UNL     1       9.766  -3.525  24.027  0.00  0.00    -0.388 OA
ATOM     23  H   UNL     1      10.441  -4.199  23.818  0.00  0.00    +0.210 HD
ENDBRANCH  15  22
BRANCH  11  24
ATOM     24  O   UNL     1       4.994  -3.313  25.510  0.00  0.00    -0.342 OA
BRANCH  24  25
ATOM     25  C   UNL     1       3.927  -3.547  24.597  0.00  0.00    +0.270 C 
ATOM     26  C   UNL     1       2.682  -4.346  25.103  0.00  0.00    +0.139 C 
ATOM     27  C   UNL     1       2.920  -5.862  25.133  0.00  0.00    +0.167 C 
ATOM     28  C   UNL     1       3.504  -6.337  23.798  0.00  0.00    +0.176 C 
ATOM     29  C   UNL     1       4.731  -5.493  23.438  0.00  0.00    +0.178 C 
ATOM     30  O   UNL     1       4.401  -4.097  23.370  0.00  0.00    -0.342 OA
BRANCH  26  31
ATOM     31  N   UNL     1       2.061  -3.900  26.368  0.00  0.00    -0.321 NA
ATOM     32  H   UNL     1       2.789  -3.385  26.879  0.00  0.00    +0.119 HD
ATOM     33  H   UNL     1       1.847  -4.710  26.945  0.00  0.00    +0.119 HD
ENDBRANCH  26  31
BRANCH  28  34
ATOM     34  O   UNL     1       3.809  -7.735  23.887  0.00  0.00    -0.387 OA
ATOM     35  H   UNL     1       3.234  -8.218  23.266  0.00  0.00    +0.210 HD
ENDBRANCH  28  34
BRANCH  27  36
ATOM     36  O   UNL     1       1.653  -6.522  25.354  0.00  0.00    -0.387 OA
ATOM     37  H   UNL     1       1.139  -5.945  25.950  0.00  0.00    +0.210 HD
ENDBRANCH  27  36
BRANCH  29  38
ATOM     38  C   UNL     1       5.276  -5.842  22.046  0.00  0.00    +0.190 C 
BRANCH  38  39
ATOM     39  O   UNL     1       5.760  -4.656  21.409  0.00  0.00    -0.392 OA
ATOM     40  H   UNL     1       6.626  -4.458  21.807  0.00  0.00    +0.210 HD
ENDBRANCH  38  39
ENDBRANCH  29  38
ENDBRANCH  24  25
ENDBRANCH  11  24
ENDBRANCH   9  10
ENDBRANCH   5   9
BRANCH   2  41
ATOM     41  O   UNL     1       7.339   1.948  23.382  0.00  0.00    -0.341 OA
BRANCH  41  42
ATOM     42  C   UNL     1       7.167   3.197  24.076  0.00  0.00    +0.270 C 
ATOM     43  C   UNL     1       6.572   4.332  23.130  0.00  0.00    +0.139 C 
ATOM     44  C   UNL     1       7.537   5.479  22.748  0.00  0.00    +0.167 C 
ATOM     45  C   UNL     1       8.450   5.848  23.904  0.00  0.00    +0.175 C 
ATOM     46  C   UNL     1       9.176   4.606  24.428  0.00  0.00    +0.166 C 
ATOM     47  O   UNL     1       8.275   3.591  24.888  0.00  0.00    -0.343 OA
BRANCH  43  48
ATOM     48  N   UNL     1       5.925   3.866  21.865  0.00  0.00    -0.321 NA
ATOM     49  H   UNL     1       6.180   2.889  21.730  0.00  0.00    +0.119 HD
ATOM     50  H   UNL     1       6.267   4.404  21.084  0.00  0.00    +0.119 HD
ENDBRANCH  43  48
BRANCH  45  51
ATOM     51  O   UNL     1       9.343   6.904  23.515  0.00  0.00    -0.387 OA
ATOM     52  H   UNL     1       8.849   7.736  23.414  0.00  0.00    +0.210 HD
ENDBRANCH  45  51
BRANCH  44  53
ATOM     53  O   UNL     1       6.766   6.649  22.376  0.00  0.00    -0.387 OA
ATOM     54  H   UNL     1       6.836   7.278  23.121  0.00  0.00    +0.210 HD
ENDBRANCH  44  53
BRANCH  46  55
ATOM     55  C   UNL     1      10.241   4.029  23.471  0.00  0.00    +0.112 C 
BRANCH  55  56
ATOM     56  N   UNL     1      11.402   4.921  23.358  0.00  0.00    -0.328 NA
ATOM     57  H   UNL     1      12.239   4.356  23.210  0.00  0.00    +0.118 HD
ATOM     58  H   UNL     1      11.319   5.434  22.482  0.00  0.00    +0.118 HD
ENDBRANCH  55  56
ENDBRANCH  46  55
ENDBRANCH  41  42
ENDBRANCH   2  41
BRANCH   1  59
ATOM     59  O   UNL     1       5.605  -0.375  24.618  0.00  0.00    -0.368 OA
BRANCH  59  60
ATOM     60  C   UNL     1       5.249   0.330  25.830  0.00  0.00    +0.175 C 
BRANCH  60  61
ATOM     61  C   UNL     1       5.488  -0.280  27.246  0.00  0.00    +0.109 C 
BRANCH  61  62
ATOM     62  N   UNL     1       4.510  -0.088  28.330  0.00  0.00    -0.314 NA
ATOM     63  H   UNL     1       4.952   0.517  29.027  0.00  0.00    +0.122 HD
BRANCH  62  64
ATOM     64  C   UNL     1       4.083  -1.308  29.038  0.00  0.00    +0.082 C 
BRANCH  64  65
ATOM     65  C   UNL     1       2.540  -1.386  28.968  0.00  0.00    +0.030 C 
BRANCH  65  66
ATOM     66  C   UNL     1       1.899  -0.338  28.055  0.00  0.00    +0.079 C 
BRANCH  66  67
ATOM     67  N   UNL     1       1.874  -0.828  26.675  0.00  0.00    -0.330 NA
ATOM     68  H   UNL     1       0.912  -0.860  26.334  0.00  0.00    +0.118 HD
ATOM     69  H   UNL     1       2.366  -0.177  26.066  0.00  0.00    +0.118 HD
ENDBRANCH  66  67
ENDBRANCH  65  66
ENDBRANCH  64  65
ENDBRANCH  62  64
ENDBRANCH  61  62
ENDBRANCH  60  61
ENDBRANCH  59  60
ENDBRANCH   1  59
TORSDOF 29
ENDMDL
MODEL 9
REMARK VINA RESULT:      -5.8      2.739      8.088
REMARK  Name = 
REMARK  29 active torsions:
REMARK  status: ('A' for Active; 'I' for Inactive)
REMARK    1  A    between atoms: N_1  and  C_2
REMARK    2  A    between atoms: C_2  and  C_3
REMARK    3  A    between atoms: C_3  and  C_4
REMARK    4  A    between atoms: C_4  and  N_5
REMARK    5  A    between atoms: N_5  and  C_6
REMARK    6  A    between atoms: C_6  and  C_7
REMARK    7  A    between atoms: C_7  and  O_8
REMARK    8  A    between atoms: O_8  and  C_9
REMARK    9  A    between atoms: C_11  and  O_13
REMARK   10  A    between atoms: O_13  and  C_14
REMARK   11  A    between atoms: C_16  and  O_18
REMARK   12  A    between atoms: C_19  and  N_21
REMARK   13  A    between atoms: C_23  and  N_25
REMARK   14  A    between atoms: C_26  and  O_28
REMARK   15  A    between atoms: O_28  and  C_29
REMARK   16  A    between atoms: C_32  and  C_34
REMARK   17  A    between atoms: C_34  and  O_35
REMARK   18  A    between atoms: C_36  and  O_38
REMARK   19  A    between atoms: C_39  and  O_41
REMARK   20  A    between atoms: C_42  and  N_44
REMARK   21  A    between atoms: C_46  and  C_48
REMARK   22  A    between atoms: C_48  and  O_49
REMARK   23  A    between atoms: C_50  and  O_52
REMARK   24  A    between atoms: O_52  and  C_53
REMARK   25  A    between atoms: C_56  and  C_58
REMARK   26  A    between atoms: C_58  and  N_59
REMARK   27  A    between atoms: C_60  and  O_62
REMARK   28  A    between atoms: C_63  and  O_65
REMARK   29  A    between atoms: C_66  and  N_68
REMARK                            x       y       z     vdW  Elec       q    Type
REMARK                         _______ _______ _______ _____ _____    ______ ____
ROOT
ATOM      1  C   UNL     1       5.739  -2.584  26.696  0.00  0.00    +0.205 C 
ATOM      2  C   UNL     1       4.287  -3.118  26.393  0.00  0.00    +0.186 C 
ATOM      3  C   UNL     1       3.418  -2.175  27.263  0.00  0.00    +0.178 C 
ATOM      4  O   UNL     1       4.319  -1.336  28.003  0.00  0.00    -0.340 OA
ATOM      5  C   UNL     1       5.450  -1.128  27.146  0.00  0.00    +0.282 C 
ENDROOT
BRANCH   3   6
ATOM      6  C   UNL     1       2.457  -2.899  28.206  0.00  0.00    +0.190 C 
BRANCH   6   7
ATOM      7  O   UNL     1       1.755  -3.932  27.508  0.00  0.00    -0.392 OA
ATOM      8  H   UNL     1       1.090  -4.279  28.129  0.00  0.00    +0.210 HD
ENDBRANCH   6   7
ENDBRANCH   3   6
BRANCH   5   9
ATOM      9  O   UNL     1       6.544  -0.565  27.871  0.00  0.00    -0.340 OA
BRANCH   9  10
ATOM     10  C   UNL     1       6.701   0.880  27.950  0.00  0.00    +0.182 C 
ATOM     11  C   UNL     1       6.793   1.700  26.608  0.00  0.00    +0.169 C 
ATOM     12  C   UNL     1       6.970   3.232  26.953  0.00  0.00    +0.084 C 
ATOM     13  C   UNL     1       5.912   3.764  27.939  0.00  0.00    +0.042 C 
ATOM     14  C   UNL     1       5.896   2.957  29.231  0.00  0.00    +0.084 C 
ATOM     15  C   UNL     1       5.643   1.487  28.911  0.00  0.00    +0.163 C 
BRANCH  14  16
ATOM     16  N   UNL     1       4.862   3.470  30.155  0.00  0.00    -0.325 NA
ATOM     17  H   UNL     1       4.121   3.930  29.616  0.00  0.00    +0.119 HD
ATOM     18  H   UNL     1       4.399   2.642  30.551  0.00  0.00    +0.119 HD
ENDBRANCH  14  16
BRANCH  12  19
ATOM     19  N   UNL     1       6.950   4.091  25.753  0.00  0.00    -0.325 NA
ATOM     20  H   UNL     1       7.290   3.576  24.943  0.00  0.00    +0.119 HD
ATOM     21  H   UNL     1       5.981   4.339  25.532  0.00  0.00    +0.119 HD
ENDBRANCH  12  19
BRANCH  15  22
ATOM     22  O   UNL     1       5.604   0.737  30.134  0.00  0.00    -0.388 OA
ATOM     23  H   UNL     1       6.520   0.750  30.472  0.00  0.00    +0.210 HD
ENDBRANCH  15  22
BRANCH  11  24
ATOM     24  O   UNL     1       7.910   1.326  25.736  0.00  0.00    -0.342 OA
BRANCH  24  25
ATOM     25  C   UNL     1       7.522   0.692  24.522  0.00  0.00    +0.270 C 
ATOM     26  C   UNL     1       8.551  -0.250  23.817  0.00  0.00    +0.139 C 
ATOM     27  C   UNL     1       9.611   0.518  23.016  0.00  0.00    +0.167 C 
ATOM     28  C   UNL     1       8.945   1.557  22.107  0.00  0.00    +0.176 C 
ATOM     29  C   UNL     1       7.990   2.430  22.928  0.00  0.00    +0.178 C 
ATOM     30  O   UNL     1       6.995   1.633  23.588  0.00  0.00    -0.342 OA
BRANCH  26  31
ATOM     31  N   UNL     1       9.191  -1.293  24.646  0.00  0.00    -0.321 NA
ATOM     32  H   UNL     1       8.843  -2.193  24.294  0.00  0.00    +0.119 HD
ATOM     33  H   UNL     1       8.849  -1.224  25.602  0.00  0.00    +0.119 HD
ENDBRANCH  26  31
BRANCH  28  34
ATOM     34  O   UNL     1       9.959   2.326  21.447  0.00  0.00    -0.387 OA
ATOM     35  H   UNL     1       9.755   3.272  21.564  0.00  0.00    +0.210 HD
ENDBRANCH  28  34
BRANCH  27  36
ATOM     36  O   UNL     1      10.343  -0.423  22.198  0.00  0.00    -0.387 OA
ATOM     37  H   UNL     1       9.818  -1.246  22.187  0.00  0.00    +0.210 HD
ENDBRANCH  27  36
BRANCH  29  38
ATOM     38  C   UNL     1       7.199   3.401  22.040  0.00  0.00    +0.190 C 
BRANCH  38  39
ATOM     39  O   UNL     1       7.873   4.661  21.989  0.00  0.00    -0.392 OA
ATOM     40  H   UNL     1       7.359   5.229  21.387  0.00  0.00    +0.210 HD
ENDBRANCH  38  39
ENDBRANCH  29  38
ENDBRANCH  24  25
ENDBRANCH  11  24
ENDBRANCH   9  10
ENDBRANCH   5   9
BRANCH   2  41
ATOM     41  O   UNL     1       3.660  -3.075  25.103  0.00  0.00    -0.341 OA
BRANCH  41  42
ATOM     42  C   UNL     1       3.685  -4.249  24.272  0.00  0.00    +0.270 C 
ATOM     43  C   UNL     1       2.245  -4.917  24.135  0.00  0.00    +0.139 C 
ATOM     44  C   UNL     1       2.051  -6.277  24.846  0.00  0.00    +0.167 C 
ATOM     45  C   UNL     1       3.303  -7.134  24.762  0.00  0.00    +0.175 C 
ATOM     46  C   UNL     1       4.516  -6.356  25.279  0.00  0.00    +0.166 C 
ATOM     47  O   UNL     1       4.759  -5.153  24.539  0.00  0.00    -0.343 OA
BRANCH  43  48
ATOM     48  N   UNL     1       1.079  -4.058  24.510  0.00  0.00    -0.321 NA
ATOM     49  H   UNL     1       0.253  -4.653  24.531  0.00  0.00    +0.119 HD
ATOM     50  H   UNL     1       0.946  -3.336  23.819  0.00  0.00    +0.119 HD
ENDBRANCH  43  48
BRANCH  45  51
ATOM     51  O   UNL     1       3.098  -8.381  25.443  0.00  0.00    -0.387 OA
ATOM     52  H   UNL     1       2.278  -8.801  25.128  0.00  0.00    +0.210 HD
ENDBRANCH  45  51
BRANCH  44  53
ATOM     53  O   UNL     1       0.958  -6.994  24.220  0.00  0.00    -0.387 OA
ATOM     54  H   UNL     1       1.311  -7.370  23.389  0.00  0.00    +0.210 HD
ENDBRANCH  44  53
BRANCH  46  55
ATOM     55  C   UNL     1       4.517  -6.098  26.801  0.00  0.00    +0.112 C 
BRANCH  55  56
ATOM     56  N   UNL     1       5.124  -7.216  27.535  0.00  0.00    -0.328 NA
ATOM     57  H   UNL     1       6.129  -7.049  27.619  0.00  0.00    +0.118 HD
ATOM     58  H   UNL     1       4.807  -7.165  28.501  0.00  0.00    +0.118 HD
ENDBRANCH  55  56
ENDBRANCH  46  55
ENDBRANCH  41  42
ENDBRANCH   2  41
BRANCH   1  59
ATOM     59  O   UNL     1       6.743  -2.877  25.726  0.00  0.00    -0.368 OA
BRANCH  59  60
ATOM     60  C   UNL     1       7.566  -4.048  25.937  0.00  0.00    +0.175 C 
BRANCH  60  61
ATOM     61  C   UNL     1       8.248  -4.807  24.757  0.00  0.00    +0.109 C 
BRANCH  61  62
ATOM     62  N   UNL     1       7.544  -5.012  23.480  0.00  0.00    -0.314 NA
ATOM     63  H   UNL     1       8.068  -5.722  22.961  0.00  0.00    +0.122 HD
BRANCH  62  64
ATOM     64  C   UNL     1       7.443  -3.833  22.600  0.00  0.00    +0.082 C 
BRANCH  64  65
ATOM     65  C   UNL     1       6.342  -4.112  21.552  0.00  0.00    +0.030 C 
BRANCH  65  66
ATOM     66  C   UNL     1       6.285  -5.564  21.072  0.00  0.00    +0.079 C 
BRANCH  66  67
ATOM     67  N   UNL     1       5.169  -6.259  21.718  0.00  0.00    -0.330 NA
ATOM     68  H   UNL     1       4.300  -6.062  21.219  0.00  0.00    +0.118 HD
ATOM     69  H   UNL     1       5.305  -7.267  21.656  0.00  0.00    +0.118 HD
ENDBRANCH  66  67
ENDBRANCH  65  66
ENDBRANCH  64  65
ENDBRANCH  62  64
ENDBRANCH  61  62
ENDBRANCH  60  61
ENDBRANCH  59  60
ENDBRANCH   1  59
TORSDOF 29
ENDMDL
