MODEL 1
REMARK VINA RESULT:      -4.0      0.000      0.000
REMARK  Name = 
REMARK  8 active torsions:
REMARK  status: ('A' for Active; 'I' for Inactive)
REMARK    1  A    between atoms: C_1  and  C_2
REMARK    2  A    between atoms: C_2  and  O_3
REMARK    3  A    between atoms: C_2  and  C_4
REMARK    4  A    between atoms: C_2  and  C_8
REMARK    5  A    between atoms: C_4  and  C_5
REMARK    6  A    between atoms: C_5  and  O_6
REMARK    7  A    between atoms: C_8  and  C_9
REMARK    8  A    between atoms: C_9  and  O_10
REMARK                            x       y       z     vdW  Elec       q    Type
REMARK                         _______ _______ _______ _____ _____    ______ ____
ROOT
ATOM      1  C   UNL     1       9.396  -0.184  25.526  0.00  0.00    +0.042 C 
ATOM      2  C   UNL     1       9.604   0.093  24.029  0.00  0.00    +0.083 C 
ENDROOT
BRANCH   2   3
ATOM      3  O   UNL     1       8.339   0.494  23.450  0.00  0.00    -0.388 OA
ATOM      4  H   UNL     1       8.405   1.452  23.241  0.00  0.00    +0.210 HD
ENDBRANCH   2   3
BRANCH   2   5
ATOM      5  C   UNL     1      10.103  -1.159  23.291  0.00  0.00    +0.155 C 
BRANCH   5   6
ATOM      6  C   UNL     1       9.274  -1.502  22.075  0.00  0.00    +0.307 C 
ATOM      7  O   UNL     1       8.409  -2.364  22.065  0.00  0.00    -0.251 OA
BRANCH   6   8
ATOM      8  O   UNL     1       9.599  -0.782  20.978  0.00  0.00    -0.481 OA
ATOM      9  H   UNL     1       9.822  -1.353  20.210  0.00  0.00    +0.295 HD
ENDBRANCH   6   8
ENDBRANCH   5   6
ENDBRANCH   2   5
BRANCH   2  10
ATOM     10  C   UNL     1      10.579   1.273  23.871  0.00  0.00    +0.155 C 
BRANCH  10  11
ATOM     11  C   UNL     1      10.103   2.391  22.971  0.00  0.00    +0.307 C 
ATOM     12  O   UNL     1       9.586   3.412  23.395  0.00  0.00    -0.251 OA
BRANCH  11  13
ATOM     13  O   UNL     1      10.213   2.135  21.651  0.00  0.00    -0.481 OA
ATOM     14  H   UNL     1       9.426   1.682  21.275  0.00  0.00    +0.295 HD
ENDBRANCH  11  13
ENDBRANCH  10  11
ENDBRANCH   2  10
TORSDOF 7
ENDMDL
MODEL 2
REMARK VINA RESULT:      -4.0      1.451      1.745
REMARK  Name = 
REMARK  8 active torsions:
REMARK  status: ('A' for Active; 'I' for Inactive)
REMARK    1  A    between atoms: C_1  and  C_2
REMARK    2  A    between atoms: C_2  and  O_3
REMARK    3  A    between atoms: C_2  and  C_4
REMARK    4  A    between atoms: C_2  and  C_8
REMARK    5  A    between atoms: C_4  and  C_5
REMARK    6  A    between atoms: C_5  and  O_6
REMARK    7  A    between atoms: C_8  and  C_9
REMARK    8  A    between atoms: C_9  and  O_10
REMARK                            x       y       z     vdW  Elec       q    Type
REMARK                         _______ _______ _______ _____ _____    ______ ____
ROOT
ATOM      1  C   UNL     1       8.418   0.288  25.467  0.00  0.00    +0.042 C 
ATOM      2  C   UNL     1       8.877   0.134  24.009  0.00  0.00    +0.083 C 
ENDROOT
BRANCH   2   3
ATOM      3  O   UNL     1       7.923  -0.698  23.307  0.00  0.00    -0.388 OA
ATOM      4  H   UNL     1       8.337  -1.582  23.192  0.00  0.00    +0.210 HD
ENDBRANCH   2   3
BRANCH   2   5
ATOM      5  C   UNL     1      10.260  -0.532  23.924  0.00  0.00    +0.155 C 
BRANCH   5   6
ATOM      6  C   UNL     1      10.240  -1.852  23.187  0.00  0.00    +0.307 C 
ATOM      7  O   UNL     1      10.126  -2.935  23.739  0.00  0.00    -0.251 OA
BRANCH   6   8
ATOM      8  O   UNL     1      10.390  -1.726  21.850  0.00  0.00    -0.481 OA
ATOM      9  H   UNL     1      11.117  -1.108  21.613  0.00  0.00    +0.295 HD
ENDBRANCH   6   8
ENDBRANCH   5   6
ENDBRANCH   2   5
BRANCH   2  10
ATOM     10  C   UNL     1       8.870   1.517  23.334  0.00  0.00    +0.155 C 
BRANCH  10  11
ATOM     11  C   UNL     1       9.354   1.539  21.902  0.00  0.00    +0.307 C 
ATOM     12  O   UNL     1       8.933   0.778  21.045  0.00  0.00    -0.251 OA
BRANCH  11  13
ATOM     13  O   UNL     1      10.354   2.412  21.660  0.00  0.00    -0.481 OA
ATOM     14  H   UNL     1      10.165   3.321  21.984  0.00  0.00    +0.295 HD
ENDBRANCH  11  13
ENDBRANCH  10  11
ENDBRANCH   2  10
TORSDOF 7
ENDMDL
MODEL 3
REMARK VINA RESULT:      -4.0      1.302      3.702
REMARK  Name = 
REMARK  8 active torsions:
REMARK  status: ('A' for Active; 'I' for Inactive)
REMARK    1  A    between atoms: C_1  and  C_2
REMARK    2  A    between atoms: C_2  and  O_3
REMARK    3  A    between atoms: C_2  and  C_4
REMARK    4  A    between atoms: C_2  and  C_8
REMARK    5  A    between atoms: C_4  and  C_5
REMARK    6  A    between atoms: C_5  and  O_6
REMARK    7  A    between atoms: C_8  and  C_9
REMARK    8  A    between atoms: C_9  and  O_10
REMARK                            x       y       z     vdW  Elec       q    Type
REMARK                         _______ _______ _______ _____ _____    ______ ____
ROOT
ATOM      1  C   UNL     1       9.027   0.172  25.682  0.00  0.00    +0.042 C 
ATOM      2  C   UNL     1       9.457   0.377  24.222  0.00  0.00    +0.083 C 
ENDROOT
BRANCH   2   3
ATOM      3  O   UNL     1      10.898   0.269  24.141  0.00  0.00    -0.388 OA
ATOM      4  H   UNL     1      11.274   0.885  24.807  0.00  0.00    +0.210 HD
ENDBRANCH   2   3
BRANCH   2   5
ATOM      5  C   UNL     1       9.043   1.765  23.705  0.00  0.00    +0.155 C 
BRANCH   5   6
ATOM      6  C   UNL     1      10.138   2.461  22.929  0.00  0.00    +0.307 C 
ATOM      7  O   UNL     1      10.908   3.271  23.421  0.00  0.00    -0.251 OA
BRANCH   6   8
ATOM      8  O   UNL     1      10.169   2.124  21.620  0.00  0.00    -0.481 OA
ATOM      9  H   UNL     1      10.785   1.379  21.442  0.00  0.00    +0.295 HD
ENDBRANCH   6   8
ENDBRANCH   5   6
ENDBRANCH   2   5
BRANCH   2  10
ATOM     10  C   UNL     1       8.859  -0.750  23.362  0.00  0.00    +0.155 C 
BRANCH  10  11
ATOM     11  C   UNL     1       9.839  -1.465  22.459  0.00  0.00    +0.307 C 
ATOM     12  O   UNL     1      10.482  -2.439  22.814  0.00  0.00    -0.251 OA
BRANCH  11  13
ATOM     13  O   UNL     1      10.015  -0.887  21.252  0.00  0.00    -0.481 OA
ATOM     14  H   UNL     1      10.952  -0.889  20.952  0.00  0.00    +0.295 HD
ENDBRANCH  11  13
ENDBRANCH  10  11
ENDBRANCH   2  10
TORSDOF 7
ENDMDL
MODEL 4
REMARK VINA RESULT:      -3.9      4.108      5.749
REMARK  Name = 
REMARK  8 active torsions:
REMARK  status: ('A' for Active; 'I' for Inactive)
REMARK    1  A    between atoms: C_1  and  C_2
REMARK    2  A    between atoms: C_2  and  O_3
REMARK    3  A    between atoms: C_2  and  C_4
REMARK    4  A    between atoms: C_2  and  C_8
REMARK    5  A    between atoms: C_4  and  C_5
REMARK    6  A    between atoms: C_5  and  O_6
REMARK    7  A    between atoms: C_8  and  C_9
REMARK    8  A    between atoms: C_9  and  O_10
REMARK                            x       y       z     vdW  Elec       q    Type
REMARK                         _______ _______ _______ _____ _____    ______ ____
ROOT
ATOM      1  C   UNL     1       7.544  -5.638  22.906  0.00  0.00    +0.042 C 
ATOM      2  C   UNL     1       8.081  -4.674  23.975  0.00  0.00    +0.083 C 
ENDROOT
BRANCH   2   3
ATOM      3  O   UNL     1       9.419  -5.085  24.343  0.00  0.00    -0.388 OA
ATOM      4  H   UNL     1       9.670  -5.825  23.747  0.00  0.00    +0.210 HD
ENDBRANCH   2   3
BRANCH   2   5
ATOM      5  C   UNL     1       7.202  -4.689  25.236  0.00  0.00    +0.155 C 
BRANCH   5   6
ATOM      6  C   UNL     1       8.000  -4.790  26.516  0.00  0.00    +0.307 C 
ATOM      7  O   UNL     1       8.634  -3.862  26.995  0.00  0.00    -0.251 OA
BRANCH   6   8
ATOM      8  O   UNL     1       7.973  -6.021  27.073  0.00  0.00    -0.481 OA
ATOM      9  H   UNL     1       8.667  -6.134  27.760  0.00  0.00    +0.295 HD
ENDBRANCH   6   8
ENDBRANCH   5   6
ENDBRANCH   2   5
BRANCH   2  10
ATOM     10  C   UNL     1       8.181  -3.263  23.369  0.00  0.00    +0.155 C 
BRANCH  10  11
ATOM     11  C   UNL     1       9.439  -2.498  23.714  0.00  0.00    +0.307 C 
ATOM     12  O   UNL     1      10.429  -2.489  23.000  0.00  0.00    -0.251 OA
BRANCH  11  13
ATOM     13  O   UNL     1       9.417  -1.893  24.920  0.00  0.00    -0.481 OA
ATOM     14  H   UNL     1       9.526  -0.917  24.869  0.00  0.00    +0.295 HD
ENDBRANCH  11  13
ENDBRANCH  10  11
ENDBRANCH   2  10
TORSDOF 7
ENDMDL
MODEL 5
REMARK VINA RESULT:      -3.9      1.727      3.061
REMARK  Name = 
REMARK  8 active torsions:
REMARK  status: ('A' for Active; 'I' for Inactive)
REMARK    1  A    between atoms: C_1  and  C_2
REMARK    2  A    between atoms: C_2  and  O_3
REMARK    3  A    between atoms: C_2  and  C_4
REMARK    4  A    between atoms: C_2  and  C_8
REMARK    5  A    between atoms: C_4  and  C_5
REMARK    6  A    between atoms: C_5  and  O_6
REMARK    7  A    between atoms: C_8  and  C_9
REMARK    8  A    between atoms: C_9  and  O_10
REMARK                            x       y       z     vdW  Elec       q    Type
REMARK                         _______ _______ _______ _____ _____    ______ ____
ROOT
ATOM      1  C   UNL     1       8.408  -2.204  22.436  0.00  0.00    +0.042 C 
ATOM      2  C   UNL     1       8.989  -0.818  22.751  0.00  0.00    +0.083 C 
ENDROOT
BRANCH   2   3
ATOM      3  O   UNL     1       7.975  -0.027  23.416  0.00  0.00    -0.388 OA
ATOM      4  H   UNL     1       7.183  -0.599  23.520  0.00  0.00    +0.210 HD
ENDBRANCH   2   3
BRANCH   2   5
ATOM      5  C   UNL     1       9.416  -0.084  21.470  0.00  0.00    +0.155 C 
BRANCH   5   6
ATOM      6  C   UNL     1       9.075   1.389  21.486  0.00  0.00    +0.307 C 
ATOM      7  O   UNL     1       7.945   1.825  21.330  0.00  0.00    -0.251 OA
BRANCH   6   8
ATOM      8  O   UNL     1      10.149   2.190  21.662  0.00  0.00    -0.481 OA
ATOM      9  H   UNL     1      10.413   2.258  22.606  0.00  0.00    +0.295 HD
ENDBRANCH   6   8
ENDBRANCH   5   6
ENDBRANCH   2   5
BRANCH   2  10
ATOM     10  C   UNL     1      10.165  -0.980  23.731  0.00  0.00    +0.155 C 
BRANCH  10  11
ATOM     11  C   UNL     1      10.406   0.194  24.653  0.00  0.00    +0.307 C 
ATOM     12  O   UNL     1      11.150   1.120  24.370  0.00  0.00    -0.251 OA
BRANCH  11  13
ATOM     13  O   UNL     1       9.801   0.099  25.855  0.00  0.00    -0.481 OA
ATOM     14  H   UNL     1       9.189  -0.667  25.923  0.00  0.00    +0.295 HD
ENDBRANCH  11  13
ENDBRANCH  10  11
ENDBRANCH   2  10
TORSDOF 7
ENDMDL
MODEL 6
REMARK VINA RESULT:      -3.8      5.471      7.133
REMARK  Name = 
REMARK  8 active torsions:
REMARK  status: ('A' for Active; 'I' for Inactive)
REMARK    1  A    between atoms: C_1  and  C_2
REMARK    2  A    between atoms: C_2  and  O_3
REMARK    3  A    between atoms: C_2  and  C_4
REMARK    4  A    between atoms: C_2  and  C_8
REMARK    5  A    between atoms: C_4  and  C_5
REMARK    6  A    between atoms: C_5  and  O_6
REMARK    7  A    between atoms: C_8  and  C_9
REMARK    8  A    between atoms: C_9  and  O_10
REMARK                            x       y       z     vdW  Elec       q    Type
REMARK                         _______ _______ _______ _____ _____    ______ ____
ROOT
ATOM      1  C   UNL     1       5.802  -3.572  24.522  0.00  0.00    +0.042 C 
ATOM      2  C   UNL     1       6.861  -4.361  25.307  0.00  0.00    +0.083 C 
ENDROOT
BRANCH   2   3
ATOM      3  O   UNL     1       7.562  -3.451  26.187  0.00  0.00    -0.388 OA
ATOM      4  H   UNL     1       7.058  -3.415  27.030  0.00  0.00    +0.210 HD
ENDBRANCH   2   3
BRANCH   2   5
ATOM      5  C   UNL     1       7.885  -5.015  24.365  0.00  0.00    +0.155 C 
BRANCH   5   6
ATOM      6  C   UNL     1       9.316  -4.803  24.804  0.00  0.00    +0.307 C 
ATOM      7  O   UNL     1      10.014  -3.878  24.418  0.00  0.00    -0.251 OA
BRANCH   6   8
ATOM      8  O   UNL     1       9.768  -5.756  25.649  0.00  0.00    -0.481 OA
ATOM      9  H   UNL     1      10.695  -5.593  25.932  0.00  0.00    +0.295 HD
ENDBRANCH   6   8
ENDBRANCH   5   6
ENDBRANCH   2   5
BRANCH   2  10
ATOM     10  C   UNL     1       6.153  -5.405  26.189  0.00  0.00    +0.155 C 
BRANCH  10  11
ATOM     11  C   UNL     1       6.643  -5.482  27.618  0.00  0.00    +0.307 C 
ATOM     12  O   UNL     1       6.085  -4.916  28.544  0.00  0.00    -0.251 OA
BRANCH  11  13
ATOM     13  O   UNL     1       7.799  -6.158  27.780  0.00  0.00    -0.481 OA
ATOM     14  H   UNL     1       7.954  -6.838  27.087  0.00  0.00    +0.295 HD
ENDBRANCH  11  13
ENDBRANCH  10  11
ENDBRANCH   2  10
TORSDOF 7
ENDMDL
MODEL 7
REMARK VINA RESULT:      -3.7      3.262      5.415
REMARK  Name = 
REMARK  8 active torsions:
REMARK  status: ('A' for Active; 'I' for Inactive)
REMARK    1  A    between atoms: C_1  and  C_2
REMARK    2  A    between atoms: C_2  and  O_3
REMARK    3  A    between atoms: C_2  and  C_4
REMARK    4  A    between atoms: C_2  and  C_8
REMARK    5  A    between atoms: C_4  and  C_5
REMARK    6  A    between atoms: C_5  and  O_6
REMARK    7  A    between atoms: C_8  and  C_9
REMARK    8  A    between atoms: C_9  and  O_10
REMARK                            x       y       z     vdW  Elec       q    Type
REMARK                         _______ _______ _______ _____ _____    ______ ____
ROOT
ATOM      1  C   UNL     1       8.326  -2.426  25.345  0.00  0.00    +0.042 C 
ATOM      2  C   UNL     1       8.793  -3.146  24.070  0.00  0.00    +0.083 C 
ENDROOT
BRANCH   2   3
ATOM      3  O   UNL     1      10.240  -3.155  24.044  0.00  0.00    -0.388 OA
ATOM      4  H   UNL     1      10.540  -3.733  24.780  0.00  0.00    +0.210 HD
ENDBRANCH   2   3
BRANCH   2   5
ATOM      5  C   UNL     1       8.287  -2.433  22.806  0.00  0.00    +0.155 C 
BRANCH   5   6
ATOM      6  C   UNL     1       9.192  -1.310  22.354  0.00  0.00    +0.307 C 
ATOM      7  O   UNL     1       9.182  -0.191  22.845  0.00  0.00    -0.251 OA
BRANCH   6   8
ATOM      8  O   UNL     1      10.003  -1.650  21.328  0.00  0.00    -0.481 OA
ATOM      9  H   UNL     1       9.927  -1.027  20.571  0.00  0.00    +0.295 HD
ENDBRANCH   6   8
ENDBRANCH   5   6
ENDBRANCH   2   5
BRANCH   2  10
ATOM     10  C   UNL     1       8.321  -4.610  24.123  0.00  0.00    +0.155 C 
BRANCH  10  11
ATOM     11  C   UNL     1       8.837  -5.414  25.297  0.00  0.00    +0.307 C 
ATOM     12  O   UNL     1       8.126  -5.767  26.224  0.00  0.00    -0.251 OA
BRANCH  11  13
ATOM     13  O   UNL     1      10.167  -5.637  25.284  0.00  0.00    -0.481 OA
ATOM     14  H   UNL     1      10.487  -6.034  24.443  0.00  0.00    +0.295 HD
ENDBRANCH  11  13
ENDBRANCH  10  11
ENDBRANCH   2  10
TORSDOF 7
ENDMDL
MODEL 8
REMARK VINA RESULT:      -3.7      2.113      2.697
REMARK  Name = 
REMARK  8 active torsions:
REMARK  status: ('A' for Active; 'I' for Inactive)
REMARK    1  A    between atoms: C_1  and  C_2
REMARK    2  A    between atoms: C_2  and  O_3
REMARK    3  A    between atoms: C_2  and  C_4
REMARK    4  A    between atoms: C_2  and  C_8
REMARK    5  A    between atoms: C_4  and  C_5
REMARK    6  A    between atoms: C_5  and  O_6
REMARK    7  A    between atoms: C_8  and  C_9
REMARK    8  A    between atoms: C_9  and  O_10
REMARK                            x       y       z     vdW  Elec       q    Type
REMARK                         _______ _______ _______ _____ _____    ______ ____
ROOT
ATOM      1  C   UNL     1      10.230  -1.875  23.014  0.00  0.00    +0.042 C 
ATOM      2  C   UNL     1       9.121  -0.840  22.776  0.00  0.00    +0.083 C 
ENDROOT
BRANCH   2   3
ATOM      3  O   UNL     1       9.131   0.113  23.866  0.00  0.00    -0.388 OA
ATOM      4  H   UNL     1       8.764   0.955  23.519  0.00  0.00    +0.210 HD
ENDBRANCH   2   3
BRANCH   2   5
ATOM      5  C   UNL     1       7.735  -1.504  22.722  0.00  0.00    +0.155 C 
BRANCH   5   6
ATOM      6  C   UNL     1       6.721  -0.836  23.622  0.00  0.00    +0.307 C 
ATOM      7  O   UNL     1       6.396  -1.269  24.717  0.00  0.00    -0.251 OA
BRANCH   6   8
ATOM      8  O   UNL     1       6.177   0.280  23.088  0.00  0.00    -0.481 OA
ATOM      9  H   UNL     1       6.538   1.100  23.492  0.00  0.00    +0.295 HD
ENDBRANCH   6   8
ENDBRANCH   5   6
ENDBRANCH   2   5
BRANCH   2  10
ATOM     10  C   UNL     1       9.429  -0.066  21.482  0.00  0.00    +0.155 C 
BRANCH  10  11
ATOM     11  C   UNL     1       9.135   1.417  21.529  0.00  0.00    +0.307 C 
ATOM     12  O   UNL     1       8.009   1.875  21.424  0.00  0.00    -0.251 OA
BRANCH  11  13
ATOM     13  O   UNL     1      10.227   2.205  21.610  0.00  0.00    -0.481 OA
ATOM     14  H   UNL     1      10.168   2.882  22.320  0.00  0.00    +0.295 HD
ENDBRANCH  11  13
ENDBRANCH  10  11
ENDBRANCH   2  10
TORSDOF 7
ENDMDL
MODEL 9
REMARK VINA RESULT:      -3.6      5.882      6.795
REMARK  Name = 
REMARK  8 active torsions:
REMARK  status: ('A' for Active; 'I' for Inactive)
REMARK    1  A    between atoms: C_1  and  C_2
REMARK    2  A    between atoms: C_2  and  O_3
REMARK    3  A    between atoms: C_2  and  C_4
REMARK    4  A    between atoms: C_2  and  C_8
REMARK    5  A    between atoms: C_4  and  C_5
REMARK    6  A    between atoms: C_5  and  O_6
REMARK    7  A    between atoms: C_8  and  C_9
REMARK    8  A    between atoms: C_9  and  O_10
REMARK                            x       y       z     vdW  Elec       q    Type
REMARK                         _______ _______ _______ _____ _____    ______ ____
ROOT
ATOM      1  C   UNL     1       6.428  -3.009  24.498  0.00  0.00    +0.042 C 
ATOM      2  C   UNL     1       7.250  -4.231  24.062  0.00  0.00    +0.083 C 
ENDROOT
BRANCH   2   3
ATOM      3  O   UNL     1       6.787  -5.390  24.795  0.00  0.00    -0.388 OA
ATOM      4  H   UNL     1       5.984  -5.722  24.336  0.00  0.00    +0.210 HD
ENDBRANCH   2   3
BRANCH   2   5
ATOM      5  C   UNL     1       8.747  -4.035  24.355  0.00  0.00    +0.155 C 
BRANCH   5   6
ATOM      6  C   UNL     1       9.241  -4.875  25.510  0.00  0.00    +0.307 C 
ATOM      7  O   UNL     1       9.084  -4.575  26.684  0.00  0.00    -0.251 OA
BRANCH   6   8
ATOM      8  O   UNL     1       9.905  -5.987  25.124  0.00  0.00    -0.481 OA
ATOM      9  H   UNL     1      10.413  -5.847  24.294  0.00  0.00    +0.295 HD
ENDBRANCH   6   8
ENDBRANCH   5   6
ENDBRANCH   2   5
BRANCH   2  10
ATOM     10  C   UNL     1       6.995  -4.496  22.567  0.00  0.00    +0.155 C 
BRANCH  10  11
ATOM     11  C   UNL     1       5.900  -5.495  22.265  0.00  0.00    +0.307 C 
ATOM     12  O   UNL     1       4.713  -5.219  22.329  0.00  0.00    -0.251 OA
BRANCH  11  13
ATOM     13  O   UNL     1       6.335  -6.744  22.003  0.00  0.00    -0.481 OA
ATOM     14  H   UNL     1       6.196  -7.370  22.749  0.00  0.00    +0.295 HD
ENDBRANCH  11  13
ENDBRANCH  10  11
ENDBRANCH   2  10
TORSDOF 7
ENDMDL
