MODEL 1
REMARK VINA RESULT:      -7.0      0.000      0.000
REMARK  Name = 
REMARK  10 active torsions:
REMARK  status: ('A' for Active; 'I' for Inactive)
REMARK    1  A    between atoms: C_5  and  C_6
REMARK    2  A    between atoms: C_6  and  O_7
REMARK    3  A    between atoms: O_7  and  C_8
REMARK    4  A    between atoms: C_8  and  C_9
REMARK    5  A    between atoms: C_9  and  N_10
REMARK    6  A    between atoms: N_10  and  C_11
REMARK    7  A    between atoms: C_11  and  C_12
REMARK    8  A    between atoms: C_12  and  N_13
REMARK    9  A    between atoms: N_13  and  S_14
REMARK   10  A    between atoms: S_14  and  C_17
REMARK                            x       y       z     vdW  Elec       q    Type
REMARK                         _______ _______ _______ _____ _____    ______ ____
ROOT
ATOM      1  C   UNL     1       8.970  -4.677  26.595  0.00  0.00    +0.121 C 
ENDROOT
BRANCH   1   2
ATOM      2  N   UNL     1       8.051  -5.817  26.757  0.00  0.00    -0.189 NA
ATOM      3  H   UNL     1       8.338  -6.545  27.413  0.00  0.00    +0.148 HD
BRANCH   2   4
ATOM      4  S   UNL     1       6.431  -5.407  27.059  0.00  0.00    +0.059 S 
ATOM      5  O   UNL     1       6.369  -4.959  28.430  0.00  0.00    -0.153 OA
ATOM      6  O   UNL     1       5.647  -6.538  26.611  0.00  0.00    -0.153 OA
BRANCH   4   7
ATOM      7  C   UNL     1       6.159  -4.072  25.909  0.00  0.00    +0.113 A 
ATOM      8  C   UNL     1       5.981  -4.247  24.502  0.00  0.00    +0.011 A 
ATOM      9  C   UNL     1       5.738  -3.076  23.742  0.00  0.00    +0.002 A 
ATOM     10  C   UNL     1       5.534  -3.200  22.365  0.00  0.00    +0.119 A 
ATOM     11  N   UNL     1       5.546  -4.363  21.681  0.00  0.00    -0.263 NA
ATOM     12  C   UNL     1       5.792  -5.468  22.402  0.00  0.00    +0.111 A 
ATOM     13  C   UNL     1       5.696  -1.810  24.350  0.00  0.00    +0.010 A 
ATOM     14  C   UNL     1       5.882  -1.668  25.720  0.00  0.00    +0.003 A 
ATOM     15  C   UNL     1       6.015  -5.462  23.773  0.00  0.00    +0.030 A 
ATOM     16  C   UNL     1       6.108  -2.794  26.498  0.00  0.00    +0.029 A 
ENDBRANCH   4   7
ENDBRANCH   2   4
ENDBRANCH   1   2
BRANCH   1  17
ATOM     17  C   UNL     1       9.888  -4.874  25.376  0.00  0.00    +0.098 C 
BRANCH  17  18
ATOM     18  N   UNL     1       9.417  -4.183  24.167  0.00  0.00    -0.313 NA
ATOM     19  H   UNL     1      10.007  -4.459  23.381  0.00  0.00    +0.122 HD
BRANCH  18  20
ATOM     20  C   UNL     1       9.459  -2.722  24.308  0.00  0.00    +0.109 C 
BRANCH  20  21
ATOM     21  C   UNL     1      10.072  -2.049  23.081  0.00  0.00    +0.175 C 
BRANCH  21  22
ATOM     22  O   UNL     1       9.007  -1.642  22.221  0.00  0.00    -0.374 OA
BRANCH  22  23
ATOM     23  C   UNL     1       9.355  -0.469  21.492  0.00  0.00    +0.195 C 
BRANCH  23  28
ATOM     24 CL   UNL     1       8.632   4.297  25.113  0.00  0.00    -0.084 Cl
ATOM     25  C   UNL     1       8.832   2.959  24.049  0.00  0.00    +0.041 A 
ATOM     26  C   UNL     1       9.978   2.864  23.263  0.00  0.00    +0.020 A 
ATOM     27  C   UNL     1      10.145   1.765  22.414  0.00  0.00    +0.007 A 
ATOM     28  C   UNL     1       9.165   0.763  22.339  0.00  0.00    -0.022 A 
ATOM     29  C   UNL     1       8.018   0.879  23.140  0.00  0.00    +0.007 A 
ATOM     30  C   UNL     1       7.850   1.974  23.989  0.00  0.00    +0.020 A 
ENDBRANCH  23  28
ENDBRANCH  22  23
ENDBRANCH  21  22
ENDBRANCH  20  21
ENDBRANCH  18  20
ENDBRANCH  17  18
ENDBRANCH   1  17
TORSDOF 10
ENDMDL
MODEL 2
REMARK VINA RESULT:      -6.8      2.551      5.198
REMARK  Name = 
REMARK  10 active torsions:
REMARK  status: ('A' for Active; 'I' for Inactive)
REMARK    1  A    between atoms: C_5  and  C_6
REMARK    2  A    between atoms: C_6  and  O_7
REMARK    3  A    between atoms: O_7  and  C_8
REMARK    4  A    between atoms: C_8  and  C_9
REMARK    5  A    between atoms: C_9  and  N_10
REMARK    6  A    between atoms: N_10  and  C_11
REMARK    7  A    between atoms: C_11  and  C_12
REMARK    8  A    between atoms: C_12  and  N_13
REMARK    9  A    between atoms: N_13  and  S_14
REMARK   10  A    between atoms: S_14  and  C_17
REMARK                            x       y       z     vdW  Elec       q    Type
REMARK                         _______ _______ _______ _____ _____    ______ ____
ROOT
ATOM      1  C   UNL     1       3.857  -6.268  23.740  0.00  0.00    +0.121 C 
ENDROOT
BRANCH   1   2
ATOM      2  N   UNL     1       5.140  -6.293  23.016  0.00  0.00    -0.189 NA
ATOM      3  H   UNL     1       5.242  -7.008  22.294  0.00  0.00    +0.148 HD
BRANCH   2   4
ATOM      4  S   UNL     1       5.652  -4.799  22.391  0.00  0.00    +0.059 S 
ATOM      5  O   UNL     1       4.603  -3.851  22.684  0.00  0.00    -0.153 OA
ATOM      6  O   UNL     1       6.058  -5.060  21.027  0.00  0.00    -0.153 OA
BRANCH   4   7
ATOM      7  C   UNL     1       7.126  -4.478  23.342  0.00  0.00    +0.113 A 
ATOM      8  C   UNL     1       8.035  -3.409  23.078  0.00  0.00    +0.011 A 
ATOM      9  C   UNL     1       9.136  -3.279  23.961  0.00  0.00    +0.002 A 
ATOM     10  C   UNL     1      10.040  -2.232  23.757  0.00  0.00    +0.119 A 
ATOM     11  N   UNL     1       9.953  -1.314  22.773  0.00  0.00    -0.263 NA
ATOM     12  C   UNL     1       8.917  -1.449  21.930  0.00  0.00    +0.111 A 
ATOM     13  C   UNL     1       9.324  -4.176  25.026  0.00  0.00    +0.010 A 
ATOM     14  C   UNL     1       8.428  -5.214  25.254  0.00  0.00    +0.003 A 
ATOM     15  C   UNL     1       7.963  -2.453  22.034  0.00  0.00    +0.030 A 
ATOM     16  C   UNL     1       7.330  -5.363  24.419  0.00  0.00    +0.029 A 
ENDBRANCH   4   7
ENDBRANCH   2   4
ENDBRANCH   1   2
BRANCH   1  17
ATOM     17  C   UNL     1       3.753  -7.445  24.726  0.00  0.00    +0.098 C 
BRANCH  17  18
ATOM     18  N   UNL     1       4.188  -7.109  26.090  0.00  0.00    -0.313 NA
ATOM     19  H   UNL     1       3.684  -7.704  26.749  0.00  0.00    +0.122 HD
BRANCH  18  20
ATOM     20  C   UNL     1       3.935  -5.703  26.424  0.00  0.00    +0.109 C 
BRANCH  20  21
ATOM     21  C   UNL     1       4.752  -5.249  27.633  0.00  0.00    +0.175 C 
BRANCH  21  22
ATOM     22  O   UNL     1       5.629  -4.205  27.209  0.00  0.00    -0.374 OA
BRANCH  22  23
ATOM     23  C   UNL     1       4.966  -3.306  26.324  0.00  0.00    +0.195 C 
BRANCH  23  28
ATOM     24 CL   UNL     1       8.705   1.216  24.935  0.00  0.00    -0.084 Cl
ATOM     25  C   UNL     1       7.611  -0.049  25.344  0.00  0.00    +0.041 A 
ATOM     26  C   UNL     1       6.488  -0.277  24.552  0.00  0.00    +0.020 A 
ATOM     27  C   UNL     1       5.613  -1.318  24.876  0.00  0.00    +0.007 A 
ATOM     28  C   UNL     1       5.850  -2.129  25.997  0.00  0.00    -0.022 A 
ATOM     29  C   UNL     1       6.988  -1.882  26.781  0.00  0.00    +0.007 A 
ATOM     30  C   UNL     1       7.863  -0.844  26.459  0.00  0.00    +0.020 A 
ENDBRANCH  23  28
ENDBRANCH  22  23
ENDBRANCH  21  22
ENDBRANCH  20  21
ENDBRANCH  18  20
ENDBRANCH  17  18
ENDBRANCH   1  17
TORSDOF 10
ENDMDL
MODEL 3
REMARK VINA RESULT:      -6.8      3.422      5.565
REMARK  Name = 
REMARK  10 active torsions:
REMARK  status: ('A' for Active; 'I' for Inactive)
REMARK    1  A    between atoms: C_5  and  C_6
REMARK    2  A    between atoms: C_6  and  O_7
REMARK    3  A    between atoms: O_7  and  C_8
REMARK    4  A    between atoms: C_8  and  C_9
REMARK    5  A    between atoms: C_9  and  N_10
REMARK    6  A    between atoms: N_10  and  C_11
REMARK    7  A    between atoms: C_11  and  C_12
REMARK    8  A    between atoms: C_12  and  N_13
REMARK    9  A    between atoms: N_13  and  S_14
REMARK   10  A    between atoms: S_14  and  C_17
REMARK                            x       y       z     vdW  Elec       q    Type
REMARK                         _______ _______ _______ _____ _____    ______ ____
ROOT
ATOM      1  C   UNL     1       8.294   0.866  24.618  0.00  0.00    +0.121 C 
ENDROOT
BRANCH   1   2
ATOM      2  N   UNL     1       8.372  -0.314  25.498  0.00  0.00    -0.189 NA
ATOM      3  H   UNL     1       9.043  -0.266  26.266  0.00  0.00    +0.148 HD
BRANCH   2   4
ATOM      4  S   UNL     1       6.885  -0.874  26.096  0.00  0.00    +0.059 S 
ATOM      5  O   UNL     1       5.911  -0.645  25.055  0.00  0.00    -0.153 OA
ATOM      6  O   UNL     1       6.732  -0.271  27.402  0.00  0.00    -0.153 OA
BRANCH   4   7
ATOM      7  C   UNL     1       7.206  -2.612  26.337  0.00  0.00    +0.113 A 
ATOM      8  C   UNL     1       6.197  -3.584  26.614  0.00  0.00    +0.011 A 
ATOM      9  C   UNL     1       6.629  -4.928  26.739  0.00  0.00    +0.002 A 
ATOM     10  C   UNL     1       5.674  -5.919  26.987  0.00  0.00    +0.119 A 
ATOM     11  N   UNL     1       4.349  -5.703  27.118  0.00  0.00    -0.263 NA
ATOM     12  C   UNL     1       3.947  -4.427  27.014  0.00  0.00    +0.111 A 
ATOM     13  C   UNL     1       7.985  -5.271  26.614  0.00  0.00    +0.010 A 
ATOM     14  C   UNL     1       8.948  -4.303  26.353  0.00  0.00    +0.003 A 
ATOM     15  C   UNL     1       4.807  -3.363  26.776  0.00  0.00    +0.030 A 
ATOM     16  C   UNL     1       8.560  -2.978  26.210  0.00  0.00    +0.029 A 
ENDBRANCH   4   7
ENDBRANCH   2   4
ENDBRANCH   1   2
BRANCH   1  17
ATOM     17  C   UNL     1       9.689   1.467  24.372  0.00  0.00    +0.098 C 
BRANCH  17  18
ATOM     18  N   UNL     1      10.585   0.583  23.613  0.00  0.00    -0.313 NA
ATOM     19  H   UNL     1      11.388   1.126  23.295  0.00  0.00    +0.122 HD
BRANCH  18  20
ATOM     20  C   UNL     1       9.921  -0.017  22.449  0.00  0.00    +0.109 C 
BRANCH  20  21
ATOM     21  C   UNL     1      10.201  -1.515  22.342  0.00  0.00    +0.175 C 
BRANCH  21  22
ATOM     22  O   UNL     1       9.157  -2.211  23.024  0.00  0.00    -0.374 OA
BRANCH  22  23
ATOM     23  C   UNL     1       7.914  -2.065  22.344  0.00  0.00    +0.195 C 
BRANCH  23  28
ATOM     24 CL   UNL     1       4.403  -6.764  23.741  0.00  0.00    -0.084 Cl
ATOM     25  C   UNL     1       5.391  -5.423  23.306  0.00  0.00    +0.041 A 
ATOM     26  C   UNL     1       4.816  -4.167  23.129  0.00  0.00    +0.020 A 
ATOM     27  C   UNL     1       5.625  -3.076  22.796  0.00  0.00    +0.007 A 
ATOM     28  C   UNL     1       7.008  -3.237  22.627  0.00  0.00    -0.022 A 
ATOM     29  C   UNL     1       7.568  -4.511  22.811  0.00  0.00    +0.007 A 
ATOM     30  C   UNL     1       6.763  -5.601  23.145  0.00  0.00    +0.020 A 
ENDBRANCH  23  28
ENDBRANCH  22  23
ENDBRANCH  21  22
ENDBRANCH  20  21
ENDBRANCH  18  20
ENDBRANCH  17  18
ENDBRANCH   1  17
TORSDOF 10
ENDMDL
MODEL 4
REMARK VINA RESULT:      -6.8      1.998      2.906
REMARK  Name = 
REMARK  10 active torsions:
REMARK  status: ('A' for Active; 'I' for Inactive)
REMARK    1  A    between atoms: C_5  and  C_6
REMARK    2  A    between atoms: C_6  and  O_7
REMARK    3  A    between atoms: O_7  and  C_8
REMARK    4  A    between atoms: C_8  and  C_9
REMARK    5  A    between atoms: C_9  and  N_10
REMARK    6  A    between atoms: N_10  and  C_11
REMARK    7  A    between atoms: C_11  and  C_12
REMARK    8  A    between atoms: C_12  and  N_13
REMARK    9  A    between atoms: N_13  and  S_14
REMARK   10  A    between atoms: S_14  and  C_17
REMARK                            x       y       z     vdW  Elec       q    Type
REMARK                         _______ _______ _______ _____ _____    ______ ____
ROOT
ATOM      1  C   UNL     1       5.690  -5.775  28.129  0.00  0.00    +0.121 C 
ENDROOT
BRANCH   1   2
ATOM      2  N   UNL     1       4.483  -5.225  27.486  0.00  0.00    -0.189 NA
ATOM      3  H   UNL     1       4.387  -4.209  27.493  0.00  0.00    +0.148 HD
BRANCH   2   4
ATOM      4  S   UNL     1       4.167  -5.801  25.920  0.00  0.00    +0.059 S 
ATOM      5  O   UNL     1       2.734  -5.933  25.813  0.00  0.00    -0.153 OA
ATOM      6  O   UNL     1       5.034  -6.944  25.737  0.00  0.00    -0.153 OA
BRANCH   4   7
ATOM      7  C   UNL     1       4.793  -4.479  24.900  0.00  0.00    +0.113 A 
ATOM      8  C   UNL     1       5.220  -4.643  23.546  0.00  0.00    +0.011 A 
ATOM      9  C   UNL     1       5.654  -3.474  22.872  0.00  0.00    +0.002 A 
ATOM     10  C   UNL     1       6.058  -3.581  21.538  0.00  0.00    +0.119 A 
ATOM     11  N   UNL     1       6.070  -4.722  20.820  0.00  0.00    -0.263 NA
ATOM     12  C   UNL     1       5.672  -5.829  21.467  0.00  0.00    +0.111 A 
ATOM     13  C   UNL     1       5.678  -2.228  23.519  0.00  0.00    +0.010 A 
ATOM     14  C   UNL     1       5.265  -2.099  24.840  0.00  0.00    +0.003 A 
ATOM     15  C   UNL     1       5.256  -5.842  22.792  0.00  0.00    +0.030 A 
ATOM     16  C   UNL     1       4.821  -3.219  25.528  0.00  0.00    +0.029 A 
ENDBRANCH   4   7
ENDBRANCH   2   4
ENDBRANCH   1   2
BRANCH   1  17
ATOM     17  C   UNL     1       6.949  -5.001  27.699  0.00  0.00    +0.098 C 
BRANCH  17  18
ATOM     18  N   UNL     1       7.922  -5.823  26.964  0.00  0.00    -0.313 NA
ATOM     19  H   UNL     1       8.765  -5.917  27.531  0.00  0.00    +0.122 HD
BRANCH  18  20
ATOM     20  C   UNL     1       8.279  -5.234  25.667  0.00  0.00    +0.109 C 
BRANCH  20  21
ATOM     21  C   UNL     1       9.782  -5.308  25.402  0.00  0.00    +0.175 C 
BRANCH  21  22
ATOM     22  O   UNL     1      10.144  -4.193  24.587  0.00  0.00    -0.374 OA
BRANCH  22  23
ATOM     23  C   UNL     1       8.990  -3.478  24.154  0.00  0.00    +0.195 C 
BRANCH  23  28
ATOM     24 CL   UNL     1      10.237   1.998  21.960  0.00  0.00    -0.084 Cl
ATOM     25  C   UNL     1       9.919   0.429  22.592  0.00  0.00    +0.041 A 
ATOM     26  C   UNL     1      10.041   0.195  23.959  0.00  0.00    +0.020 A 
ATOM     27  C   UNL     1       9.762  -1.076  24.471  0.00  0.00    +0.007 A 
ATOM     28  C   UNL     1       9.371  -2.120  23.620  0.00  0.00    -0.022 A 
ATOM     29  C   UNL     1       9.253  -1.863  22.245  0.00  0.00    +0.007 A 
ATOM     30  C   UNL     1       9.530  -0.595  21.732  0.00  0.00    +0.020 A 
ENDBRANCH  23  28
ENDBRANCH  22  23
ENDBRANCH  21  22
ENDBRANCH  20  21
ENDBRANCH  18  20
ENDBRANCH  17  18
ENDBRANCH   1  17
TORSDOF 10
ENDMDL
MODEL 5
REMARK VINA RESULT:      -6.7      3.243      5.675
REMARK  Name = 
REMARK  10 active torsions:
REMARK  status: ('A' for Active; 'I' for Inactive)
REMARK    1  A    between atoms: C_5  and  C_6
REMARK    2  A    between atoms: C_6  and  O_7
REMARK    3  A    between atoms: O_7  and  C_8
REMARK    4  A    between atoms: C_8  and  C_9
REMARK    5  A    between atoms: C_9  and  N_10
REMARK    6  A    between atoms: N_10  and  C_11
REMARK    7  A    between atoms: C_11  and  C_12
REMARK    8  A    between atoms: C_12  and  N_13
REMARK    9  A    between atoms: N_13  and  S_14
REMARK   10  A    between atoms: S_14  and  C_17
REMARK                            x       y       z     vdW  Elec       q    Type
REMARK                         _______ _______ _______ _____ _____    ______ ____
ROOT
ATOM      1  C   UNL     1       9.488   0.571  21.502  0.00  0.00    +0.121 C 
ENDROOT
BRANCH   1   2
ATOM      2  N   UNL     1       8.694  -0.253  22.430  0.00  0.00    -0.189 NA
ATOM      3  H   UNL     1       7.825  -0.645  22.064  0.00  0.00    +0.148 HD
BRANCH   2   4
ATOM      4  S   UNL     1       9.555  -1.474  23.236  0.00  0.00    +0.059 S 
ATOM      5  O   UNL     1       9.890  -0.950  24.539  0.00  0.00    -0.153 OA
ATOM      6  O   UNL     1      10.589  -1.900  22.318  0.00  0.00    -0.153 OA
BRANCH   4   7
ATOM      7  C   UNL     1       8.348  -2.784  23.334  0.00  0.00    +0.113 A 
ATOM      8  C   UNL     1       8.244  -3.700  24.426  0.00  0.00    +0.011 A 
ATOM      9  C   UNL     1       7.200  -4.655  24.356  0.00  0.00    +0.002 A 
ATOM     10  C   UNL     1       7.043  -5.557  25.412  0.00  0.00    +0.119 A 
ATOM     11  N   UNL     1       7.815  -5.598  26.517  0.00  0.00    -0.263 NA
ATOM     12  C   UNL     1       8.812  -4.701  26.573  0.00  0.00    +0.111 A 
ATOM     13  C   UNL     1       6.330  -4.702  23.253  0.00  0.00    +0.010 A 
ATOM     14  C   UNL     1       6.460  -3.804  22.200  0.00  0.00    +0.003 A 
ATOM     15  C   UNL     1       9.064  -3.764  25.580  0.00  0.00    +0.030 A 
ATOM     16  C   UNL     1       7.462  -2.845  22.241  0.00  0.00    +0.029 A 
ENDBRANCH   4   7
ENDBRANCH   2   4
ENDBRANCH   1   2
BRANCH   1  17
ATOM     17  C   UNL     1      10.098   1.786  22.222  0.00  0.00    +0.098 C 
BRANCH  17  18
ATOM     18  N   UNL     1       9.215   2.962  22.242  0.00  0.00    -0.313 NA
ATOM     19  H   UNL     1       9.708   3.749  21.817  0.00  0.00    +0.122 HD
BRANCH  18  20
ATOM     20  C   UNL     1       8.809   3.330  23.604  0.00  0.00    +0.109 C 
BRANCH  20  21
ATOM     21  C   UNL     1       7.305   3.165  23.815  0.00  0.00    +0.175 C 
BRANCH  21  22
ATOM     22  O   UNL     1       7.030   1.772  23.970  0.00  0.00    -0.374 OA
BRANCH  22  23
ATOM     23  C   UNL     1       7.442   1.307  25.251  0.00  0.00    +0.195 C 
BRANCH  23  28
ATOM     24 CL   UNL     1       4.522  -3.723  26.843  0.00  0.00    -0.084 Cl
ATOM     25  C   UNL     1       5.376  -2.307  26.363  0.00  0.00    +0.041 A 
ATOM     26  C   UNL     1       5.104  -1.719  25.131  0.00  0.00    +0.020 A 
ATOM     27  C   UNL     1       5.786  -0.558  24.753  0.00  0.00    +0.007 A 
ATOM     28  C   UNL     1       6.748   0.014  25.599  0.00  0.00    -0.022 A 
ATOM     29  C   UNL     1       7.007  -0.595  26.837  0.00  0.00    +0.007 A 
ATOM     30  C   UNL     1       6.326  -1.753  27.217  0.00  0.00    +0.020 A 
ENDBRANCH  23  28
ENDBRANCH  22  23
ENDBRANCH  21  22
ENDBRANCH  20  21
ENDBRANCH  18  20
ENDBRANCH  17  18
ENDBRANCH   1  17
TORSDOF 10
ENDMDL
MODEL 6
REMARK VINA RESULT:      -6.6      3.467      5.747
REMARK  Name = 
REMARK  10 active torsions:
REMARK  status: ('A' for Active; 'I' for Inactive)
REMARK    1  A    between atoms: C_5  and  C_6
REMARK    2  A    between atoms: C_6  and  O_7
REMARK    3  A    between atoms: O_7  and  C_8
REMARK    4  A    between atoms: C_8  and  C_9
REMARK    5  A    between atoms: C_9  and  N_10
REMARK    6  A    between atoms: N_10  and  C_11
REMARK    7  A    between atoms: C_11  and  C_12
REMARK    8  A    between atoms: C_12  and  N_13
REMARK    9  A    between atoms: N_13  and  S_14
REMARK   10  A    between atoms: S_14  and  C_17
REMARK                            x       y       z     vdW  Elec       q    Type
REMARK                         _______ _______ _______ _____ _____    ______ ____
ROOT
ATOM      1  C   UNL     1      10.925   0.339  24.150  0.00  0.00    +0.121 C 
ENDROOT
BRANCH   1   2
ATOM      2  N   UNL     1       9.960  -0.745  24.403  0.00  0.00    -0.189 NA
ATOM      3  H   UNL     1       9.177  -0.523  25.020  0.00  0.00    +0.148 HD
BRANCH   2   4
ATOM      4  S   UNL     1       9.369  -1.529  23.018  0.00  0.00    +0.059 S 
ATOM      5  O   UNL     1      10.496  -1.708  22.134  0.00  0.00    -0.153 OA
ATOM      6  O   UNL     1       8.210  -0.771  22.599  0.00  0.00    -0.153 OA
BRANCH   4   7
ATOM      7  C   UNL     1       8.789  -3.080  23.682  0.00  0.00    +0.113 A 
ATOM      8  C   UNL     1       7.745  -3.862  23.100  0.00  0.00    +0.011 A 
ATOM      9  C   UNL     1       7.439  -5.089  23.741  0.00  0.00    +0.002 A 
ATOM     10  C   UNL     1       6.440  -5.900  23.195  0.00  0.00    +0.119 A 
ATOM     11  N   UNL     1       5.728  -5.613  22.086  0.00  0.00    -0.263 NA
ATOM     12  C   UNL     1       6.011  -4.443  21.491  0.00  0.00    +0.111 A 
ATOM     13  C   UNL     1       8.122  -5.494  24.900  0.00  0.00    +0.010 A 
ATOM     14  C   UNL     1       9.128  -4.708  25.450  0.00  0.00    +0.003 A 
ATOM     15  C   UNL     1       6.977  -3.557  21.949  0.00  0.00    +0.030 A 
ATOM     16  C   UNL     1       9.464  -3.507  24.842  0.00  0.00    +0.029 A 
ENDBRANCH   4   7
ENDBRANCH   2   4
ENDBRANCH   1   2
BRANCH   1  17
ATOM     17  C   UNL     1      10.274   1.719  24.348  0.00  0.00    +0.098 C 
BRANCH  17  18
ATOM     18  N   UNL     1       8.816   1.715  24.155  0.00  0.00    -0.313 NA
ATOM     19  H   UNL     1       8.604   2.153  23.258  0.00  0.00    +0.122 HD
BRANCH  18  20
ATOM     20  C   UNL     1       8.112   2.439  25.220  0.00  0.00    +0.109 C 
BRANCH  20  21
ATOM     21  C   UNL     1       7.475   1.486  26.231  0.00  0.00    +0.175 C 
BRANCH  21  22
ATOM     22  O   UNL     1       7.309   0.216  25.599  0.00  0.00    -0.374 OA
BRANCH  22  23
ATOM     23  C   UNL     1       7.373  -0.843  26.550  0.00  0.00    +0.195 C 
BRANCH  23  28
ATOM     24 CL   UNL     1       3.403  -5.144  25.103  0.00  0.00    -0.084 Cl
ATOM     25  C   UNL     1       4.513  -3.905  25.545  0.00  0.00    +0.041 A 
ATOM     26  C   UNL     1       5.297  -4.052  26.687  0.00  0.00    +0.020 A 
ATOM     27  C   UNL     1       6.212  -3.053  27.032  0.00  0.00    +0.007 A 
ATOM     28  C   UNL     1       6.341  -1.899  26.245  0.00  0.00    -0.022 A 
ATOM     29  C   UNL     1       5.542  -1.770  25.098  0.00  0.00    +0.007 A 
ATOM     30  C   UNL     1       4.629  -2.767  24.751  0.00  0.00    +0.020 A 
ENDBRANCH  23  28
ENDBRANCH  22  23
ENDBRANCH  21  22
ENDBRANCH  20  21
ENDBRANCH  18  20
ENDBRANCH  17  18
ENDBRANCH   1  17
TORSDOF 10
ENDMDL
MODEL 7
REMARK VINA RESULT:      -6.6      3.221      5.090
REMARK  Name = 
REMARK  10 active torsions:
REMARK  status: ('A' for Active; 'I' for Inactive)
REMARK    1  A    between atoms: C_5  and  C_6
REMARK    2  A    between atoms: C_6  and  O_7
REMARK    3  A    between atoms: O_7  and  C_8
REMARK    4  A    between atoms: C_8  and  C_9
REMARK    5  A    between atoms: C_9  and  N_10
REMARK    6  A    between atoms: N_10  and  C_11
REMARK    7  A    between atoms: C_11  and  C_12
REMARK    8  A    between atoms: C_12  and  N_13
REMARK    9  A    between atoms: N_13  and  S_14
REMARK   10  A    between atoms: S_14  and  C_17
REMARK                            x       y       z     vdW  Elec       q    Type
REMARK                         _______ _______ _______ _____ _____    ______ ____
ROOT
ATOM      1  C   UNL     1       9.383  -0.517  21.517  0.00  0.00    +0.121 C 
ENDROOT
BRANCH   1   2
ATOM      2  N   UNL     1       8.644  -1.104  22.648  0.00  0.00    -0.189 NA
ATOM      3  H   UNL     1       7.869  -1.726  22.413  0.00  0.00    +0.148 HD
BRANCH   2   4
ATOM      4  S   UNL     1       9.603  -1.839  23.841  0.00  0.00    +0.059 S 
ATOM      5  O   UNL     1       9.932  -0.808  24.797  0.00  0.00    -0.153 OA
ATOM      6  O   UNL     1      10.642  -2.550  23.128  0.00  0.00    -0.153 OA
BRANCH   4   7
ATOM      7  C   UNL     1       8.490  -3.052  24.525  0.00  0.00    +0.113 A 
ATOM      8  C   UNL     1       7.590  -3.844  23.749  0.00  0.00    +0.011 A 
ATOM      9  C   UNL     1       6.804  -4.788  24.455  0.00  0.00    +0.002 A 
ATOM     10  C   UNL     1       5.925  -5.603  23.735  0.00  0.00    +0.119 A 
ATOM     11  N   UNL     1       5.757  -5.570  22.398  0.00  0.00    -0.263 NA
ATOM     12  C   UNL     1       6.492  -4.664  21.734  0.00  0.00    +0.111 A 
ATOM     13  C   UNL     1       6.900  -4.915  25.851  0.00  0.00    +0.010 A 
ATOM     14  C   UNL     1       7.778  -4.125  26.583  0.00  0.00    +0.003 A 
ATOM     15  C   UNL     1       7.391  -3.801  22.346  0.00  0.00    +0.030 A 
ATOM     16  C   UNL     1       8.574  -3.199  25.923  0.00  0.00    +0.029 A 
ENDBRANCH   4   7
ENDBRANCH   2   4
ENDBRANCH   1   2
BRANCH   1  17
ATOM     17  C   UNL     1       9.796   0.935  21.817  0.00  0.00    +0.098 C 
BRANCH  17  18
ATOM     18  N   UNL     1       8.871   1.936  21.265  0.00  0.00    -0.313 NA
ATOM     19  H   UNL     1       9.379   2.517  20.597  0.00  0.00    +0.122 HD
BRANCH  18  20
ATOM     20  C   UNL     1       8.294   2.794  22.306  0.00  0.00    +0.109 C 
BRANCH  20  21
ATOM     21  C   UNL     1       6.801   2.531  22.498  0.00  0.00    +0.175 C 
BRANCH  21  22
ATOM     22  O   UNL     1       6.654   1.273  23.158  0.00  0.00    -0.374 OA
BRANCH  22  23
ATOM     23  C   UNL     1       7.103   1.346  24.509  0.00  0.00    +0.195 C 
BRANCH  23  28
ATOM     24 CL   UNL     1       4.431  -2.836  27.934  0.00  0.00    -0.084 Cl
ATOM     25  C   UNL     1       5.219  -1.668  26.944  0.00  0.00    +0.041 A 
ATOM     26  C   UNL     1       5.062  -1.713  25.561  0.00  0.00    +0.020 A 
ATOM     27  C   UNL     1       5.688  -0.751  24.762  0.00  0.00    +0.007 A 
ATOM     28  C   UNL     1       6.480   0.252  25.339  0.00  0.00    -0.022 A 
ATOM     29  C   UNL     1       6.626   0.280  26.735  0.00  0.00    +0.007 A 
ATOM     30  C   UNL     1       6.001  -0.679  27.535  0.00  0.00    +0.020 A 
ENDBRANCH  23  28
ENDBRANCH  22  23
ENDBRANCH  21  22
ENDBRANCH  20  21
ENDBRANCH  18  20
ENDBRANCH  17  18
ENDBRANCH   1  17
TORSDOF 10
ENDMDL
MODEL 8
REMARK VINA RESULT:      -6.6      3.024      5.274
REMARK  Name = 
REMARK  10 active torsions:
REMARK  status: ('A' for Active; 'I' for Inactive)
REMARK    1  A    between atoms: C_5  and  C_6
REMARK    2  A    between atoms: C_6  and  O_7
REMARK    3  A    between atoms: O_7  and  C_8
REMARK    4  A    between atoms: C_8  and  C_9
REMARK    5  A    between atoms: C_9  and  N_10
REMARK    6  A    between atoms: N_10  and  C_11
REMARK    7  A    between atoms: C_11  and  C_12
REMARK    8  A    between atoms: C_12  and  N_13
REMARK    9  A    between atoms: N_13  and  S_14
REMARK   10  A    between atoms: S_14  and  C_17
REMARK                            x       y       z     vdW  Elec       q    Type
REMARK                         _______ _______ _______ _____ _____    ______ ____
ROOT
ATOM      1  C   UNL     1       5.150  -3.001  24.126  0.00  0.00    +0.121 C 
ENDROOT
BRANCH   1   2
ATOM      2  N   UNL     1       5.664  -1.653  23.829  0.00  0.00    -0.189 NA
ATOM      3  H   UNL     1       5.161  -1.120  23.118  0.00  0.00    +0.148 HD
BRANCH   2   4
ATOM      4  S   UNL     1       5.927  -0.661  25.182  0.00  0.00    +0.059 S 
ATOM      5  O   UNL     1       7.028  -1.244  25.911  0.00  0.00    -0.153 OA
ATOM      6  O   UNL     1       4.632  -0.490  25.804  0.00  0.00    -0.153 OA
BRANCH   4   7
ATOM      7  C   UNL     1       6.374   0.893  24.429  0.00  0.00    +0.113 A 
ATOM      8  C   UNL     1       6.734   2.065  25.160  0.00  0.00    +0.011 A 
ATOM      9  C   UNL     1       7.099   3.202  24.397  0.00  0.00    +0.002 A 
ATOM     10  C   UNL     1       7.482   4.367  25.069  0.00  0.00    +0.119 A 
ATOM     11  N   UNL     1       7.538   4.505  26.410  0.00  0.00    -0.263 NA
ATOM     12  C   UNL     1       7.178   3.431  27.129  0.00  0.00    +0.111 A 
ATOM     13  C   UNL     1       7.083   3.171  22.993  0.00  0.00    +0.010 A 
ATOM     14  C   UNL     1       6.719   2.019  22.306  0.00  0.00    +0.003 A 
ATOM     15  C   UNL     1       6.775   2.226  26.568  0.00  0.00    +0.030 A 
ATOM     16  C   UNL     1       6.370   0.882  23.020  0.00  0.00    +0.029 A 
ENDBRANCH   4   7
ENDBRANCH   2   4
ENDBRANCH   1   2
BRANCH   1  17
ATOM     17  C   UNL     1       5.549  -4.002  23.027  0.00  0.00    +0.098 C 
BRANCH  17  18
ATOM     18  N   UNL     1       6.615  -4.929  23.434  0.00  0.00    -0.313 NA
ATOM     19  H   UNL     1       6.499  -5.146  24.425  0.00  0.00    +0.122 HD
BRANCH  18  20
ATOM     20  C   UNL     1       7.954  -4.367  23.220  0.00  0.00    +0.109 C 
BRANCH  20  21
ATOM     21  C   UNL     1       8.669  -4.080  24.539  0.00  0.00    +0.175 C 
BRANCH  21  22
ATOM     22  O   UNL     1       9.559  -2.983  24.330  0.00  0.00    -0.374 OA
BRANCH  22  23
ATOM     23  C   UNL     1       9.218  -2.262  23.149  0.00  0.00    +0.195 C 
BRANCH  23  28
ATOM     24 CL   UNL     1      10.845   3.537  23.433  0.00  0.00    -0.084 Cl
ATOM     25  C   UNL     1      10.416   1.871  23.360  0.00  0.00    +0.041 A 
ATOM     26  C   UNL     1      10.315   1.130  24.535  0.00  0.00    +0.020 A 
ATOM     27  C   UNL     1       9.947  -0.218  24.473  0.00  0.00    +0.007 A 
ATOM     28  C   UNL     1       9.690  -0.833  23.239  0.00  0.00    -0.022 A 
ATOM     29  C   UNL     1       9.798  -0.068  22.067  0.00  0.00    +0.007 A 
ATOM     30  C   UNL     1      10.163   1.278  22.126  0.00  0.00    +0.020 A 
ENDBRANCH  23  28
ENDBRANCH  22  23
ENDBRANCH  21  22
ENDBRANCH  20  21
ENDBRANCH  18  20
ENDBRANCH  17  18
ENDBRANCH   1  17
TORSDOF 10
ENDMDL
MODEL 9
REMARK VINA RESULT:      -6.5      2.404      4.306
REMARK  Name = 
REMARK  10 active torsions:
REMARK  status: ('A' for Active; 'I' for Inactive)
REMARK    1  A    between atoms: C_5  and  C_6
REMARK    2  A    between atoms: C_6  and  O_7
REMARK    3  A    between atoms: O_7  and  C_8
REMARK    4  A    between atoms: C_8  and  C_9
REMARK    5  A    between atoms: C_9  and  N_10
REMARK    6  A    between atoms: N_10  and  C_11
REMARK    7  A    between atoms: C_11  and  C_12
REMARK    8  A    between atoms: C_12  and  N_13
REMARK    9  A    between atoms: N_13  and  S_14
REMARK   10  A    between atoms: S_14  and  C_17
REMARK                            x       y       z     vdW  Elec       q    Type
REMARK                         _______ _______ _______ _____ _____    ______ ____
ROOT
ATOM      1  C   UNL     1       5.904  -6.085  27.774  0.00  0.00    +0.121 C 
ENDROOT
BRANCH   1   2
ATOM      2  N   UNL     1       6.309  -5.983  26.360  0.00  0.00    -0.189 NA
ATOM      3  H   UNL     1       5.584  -5.703  25.698  0.00  0.00    +0.148 HD
BRANCH   2   4
ATOM      4  S   UNL     1       7.709  -5.069  26.069  0.00  0.00    +0.059 S 
ATOM      5  O   UNL     1       8.773  -6.013  25.825  0.00  0.00    -0.153 OA
ATOM      6  O   UNL     1       7.793  -4.118  27.156  0.00  0.00    -0.153 OA
BRANCH   4   7
ATOM      7  C   UNL     1       7.269  -4.166  24.595  0.00  0.00    +0.113 A 
ATOM      8  C   UNL     1       8.159  -3.300  23.888  0.00  0.00    +0.011 A 
ATOM      9  C   UNL     1       7.652  -2.692  22.713  0.00  0.00    +0.002 A 
ATOM     10  C   UNL     1       8.493  -1.855  21.974  0.00  0.00    +0.119 A 
ATOM     11  N   UNL     1       9.773  -1.570  22.288  0.00  0.00    -0.263 NA
ATOM     12  C   UNL     1      10.245  -2.136  23.410  0.00  0.00    +0.111 A 
ATOM     13  C   UNL     1       6.333  -2.921  22.286  0.00  0.00    +0.010 A 
ATOM     14  C   UNL     1       5.486  -3.762  22.998  0.00  0.00    +0.003 A 
ATOM     15  C   UNL     1       9.498  -2.978  24.223  0.00  0.00    +0.030 A 
ATOM     16  C   UNL     1       5.952  -4.386  24.146  0.00  0.00    +0.029 A 
ENDBRANCH   4   7
ENDBRANCH   2   4
ENDBRANCH   1   2
BRANCH   1  17
ATOM     17  C   UNL     1       4.396  -5.827  27.939  0.00  0.00    +0.098 C 
BRANCH  17  18
ATOM     18  N   UNL     1       3.829  -4.965  26.891  0.00  0.00    -0.313 NA
ATOM     19  H   UNL     1       4.398  -5.055  26.049  0.00  0.00    +0.122 HD
BRANCH  18  20
ATOM     20  C   UNL     1       3.788  -3.554  27.294  0.00  0.00    +0.109 C 
BRANCH  20  21
ATOM     21  C   UNL     1       3.095  -2.682  26.248  0.00  0.00    +0.175 C 
BRANCH  21  22
ATOM     22  O   UNL     1       4.083  -1.849  25.641  0.00  0.00    -0.374 OA
BRANCH  22  23
ATOM     23  C   UNL     1       5.181  -1.628  26.523  0.00  0.00    +0.195 C 
BRANCH  23  28
ATOM     24 CL   UNL     1       9.327   1.868  23.889  0.00  0.00    -0.084 Cl
ATOM     25  C   UNL     1       8.163   0.839  24.630  0.00  0.00    +0.041 A 
ATOM     26  C   UNL     1       8.482   0.167  25.807  0.00  0.00    +0.020 A 
ATOM     27  C   UNL     1       7.527  -0.653  26.416  0.00  0.00    +0.007 A 
ATOM     28  C   UNL     1       6.254  -0.813  25.847  0.00  0.00    -0.022 A 
ATOM     29  C   UNL     1       5.953  -0.127  24.660  0.00  0.00    +0.007 A 
ATOM     30  C   UNL     1       6.905   0.693  24.051  0.00  0.00    +0.020 A 
ENDBRANCH  23  28
ENDBRANCH  22  23
ENDBRANCH  21  22
ENDBRANCH  20  21
ENDBRANCH  18  20
ENDBRANCH  17  18
ENDBRANCH   1  17
TORSDOF 10
ENDMDL
