MODEL 1
REMARK VINA RESULT:      -5.2      0.000      0.000
REMARK  Name = 
REMARK  3 active torsions:
REMARK  status: ('A' for Active; 'I' for Inactive)
REMARK    1  A    between atoms: C_1  and  C_2
REMARK    2  A    between atoms: N_4  and  C_5
REMARK    3  A    between atoms: C_8  and  O_9
REMARK                            x       y       z     vdW  Elec       q    Type
REMARK                         _______ _______ _______ _____ _____    ______ ____
ROOT
ATOM      1  C   UNL     1       9.956  -1.508  23.288  0.00  0.00    +0.034 A 
ATOM      2  C   UNL     1      10.339  -0.368  24.006  0.00  0.00    +0.027 A 
ATOM      3  C   UNL     1      10.317   0.892  23.399  0.00  0.00    +0.047 A 
ATOM      4  C   UNL     1       9.893   1.016  22.081  0.00  0.00    +0.117 A 
ATOM      5  C   UNL     1       9.474  -0.099  21.366  0.00  0.00    +0.047 A 
ATOM      6  C   UNL     1       9.508  -1.358  21.972  0.00  0.00    +0.027 A 
ENDROOT
BRANCH   1   9
ATOM      7  C   UNL     1       9.449  -4.705  25.222  0.00  0.00    +0.109 C 
ATOM      8  C   UNL     1       9.004  -3.415  24.583  0.00  0.00    +0.214 C 
ATOM      9  N   UNL     1      10.038  -2.758  23.939  0.00  0.00    -0.286 N 
ATOM     10  H   UNL     1      10.913  -3.260  23.839  0.00  0.00    +0.155 HD
ATOM     11  O   UNL     1       7.835  -3.052  24.657  0.00  0.00    -0.276 OA
ENDBRANCH   1   9
BRANCH   4  12
ATOM     12  O   UNL     1       9.899   2.256  21.520  0.00  0.00    -0.507 OA
ATOM     13  H   UNL     1      10.822   2.551  21.435  0.00  0.00    +0.292 HD
ENDBRANCH   4  12
TORSDOF 2
ENDMDL
MODEL 2
REMARK VINA RESULT:      -5.1      0.113      1.458
REMARK  Name = 
REMARK  3 active torsions:
REMARK  status: ('A' for Active; 'I' for Inactive)
REMARK    1  A    between atoms: C_1  and  C_2
REMARK    2  A    between atoms: N_4  and  C_5
REMARK    3  A    between atoms: C_8  and  O_9
REMARK                            x       y       z     vdW  Elec       q    Type
REMARK                         _______ _______ _______ _____ _____    ______ ____
ROOT
ATOM      1  C   UNL     1       9.988  -1.491  23.366  0.00  0.00    +0.034 A 
ATOM      2  C   UNL     1       9.582  -1.397  22.029  0.00  0.00    +0.027 A 
ATOM      3  C   UNL     1       9.512  -0.151  21.396  0.00  0.00    +0.047 A 
ATOM      4  C   UNL     1       9.864   0.998  22.094  0.00  0.00    +0.117 A 
ATOM      5  C   UNL     1      10.305   0.919  23.409  0.00  0.00    +0.047 A 
ATOM      6  C   UNL     1      10.364  -0.326  24.042  0.00  0.00    +0.027 A 
ENDROOT
BRANCH   1   9
ATOM      7  C   UNL     1       9.285  -4.759  25.112  0.00  0.00    +0.109 C 
ATOM      8  C   UNL     1       8.911  -3.432  24.504  0.00  0.00    +0.214 C 
ATOM      9  N   UNL     1      10.000  -2.771  23.964  0.00  0.00    -0.286 N 
ATOM     10  H   UNL     1      10.869  -3.288  23.900  0.00  0.00    +0.155 HD
ATOM     11  O   UNL     1       7.747  -3.046  24.516  0.00  0.00    -0.276 OA
ENDBRANCH   1   9
BRANCH   4  12
ATOM     12  O   UNL     1       9.770   2.194  21.450  0.00  0.00    -0.507 OA
ATOM     13  H   UNL     1      10.581   2.701  21.624  0.00  0.00    +0.292 HD
ENDBRANCH   4  12
TORSDOF 2
ENDMDL
MODEL 3
REMARK VINA RESULT:      -5.0      3.231      5.759
REMARK  Name = 
REMARK  3 active torsions:
REMARK  status: ('A' for Active; 'I' for Inactive)
REMARK    1  A    between atoms: C_1  and  C_2
REMARK    2  A    between atoms: N_4  and  C_5
REMARK    3  A    between atoms: C_8  and  O_9
REMARK                            x       y       z     vdW  Elec       q    Type
REMARK                         _______ _______ _______ _____ _____    ______ ____
ROOT
ATOM      1  C   UNL     1      10.005   2.270  23.123  0.00  0.00    +0.034 A 
ATOM      2  C   UNL     1       9.473   1.850  21.897  0.00  0.00    +0.027 A 
ATOM      3  C   UNL     1       9.546   0.506  21.516  0.00  0.00    +0.047 A 
ATOM      4  C   UNL     1      10.133  -0.421  22.368  0.00  0.00    +0.117 A 
ATOM      5  C   UNL     1      10.632  -0.029  23.604  0.00  0.00    +0.047 A 
ATOM      6  C   UNL     1      10.567   1.316  23.977  0.00  0.00    +0.027 A 
ENDROOT
BRANCH   1   9
ATOM      7  C   UNL     1      10.591   5.906  23.933  0.00  0.00    +0.109 C 
ATOM      8  C   UNL     1      11.010   4.518  23.524  0.00  0.00    +0.214 C 
ATOM      9  N   UNL     1       9.938   3.646  23.436  0.00  0.00    -0.286 N 
ATOM     10  H   UNL     1       9.010   4.046  23.505  0.00  0.00    +0.155 HD
ATOM     11  O   UNL     1      12.188   4.261  23.301  0.00  0.00    -0.276 OA
ENDBRANCH   1   9
BRANCH   4  12
ATOM     12  O   UNL     1      10.200  -1.717  21.958  0.00  0.00    -0.507 OA
ATOM     13  H   UNL     1       9.302  -2.011  21.721  0.00  0.00    +0.292 HD
ENDBRANCH   4  12
TORSDOF 2
ENDMDL
MODEL 4
REMARK VINA RESULT:      -4.7      2.170      5.286
REMARK  Name = 
REMARK  3 active torsions:
REMARK  status: ('A' for Active; 'I' for Inactive)
REMARK    1  A    between atoms: C_1  and  C_2
REMARK    2  A    between atoms: N_4  and  C_5
REMARK    3  A    between atoms: C_8  and  O_9
REMARK                            x       y       z     vdW  Elec       q    Type
REMARK                         _______ _______ _______ _____ _____    ______ ____
ROOT
ATOM      1  C   UNL     1       8.420  -2.855  23.959  0.00  0.00    +0.034 A 
ATOM      2  C   UNL     1       8.709  -2.572  25.300  0.00  0.00    +0.027 A 
ATOM      3  C   UNL     1       8.610  -3.573  26.273  0.00  0.00    +0.047 A 
ATOM      4  C   UNL     1       8.241  -4.860  25.902  0.00  0.00    +0.117 A 
ATOM      5  C   UNL     1       7.988  -5.168  24.572  0.00  0.00    +0.047 A 
ATOM      6  C   UNL     1       8.077  -4.163  23.604  0.00  0.00    +0.027 A 
ENDROOT
BRANCH   1   9
ATOM      7  C   UNL     1       9.373  -0.186  21.472  0.00  0.00    +0.109 C 
ATOM      8  C   UNL     1       9.629  -1.386  22.347  0.00  0.00    +0.214 C 
ATOM      9  N   UNL     1       8.497  -1.795  23.029  0.00  0.00    -0.286 N 
ATOM     10  H   UNL     1       7.618  -1.361  22.769  0.00  0.00    +0.155 HD
ATOM     11  O   UNL     1      10.742  -1.898  22.395  0.00  0.00    -0.276 OA
ENDBRANCH   1   9
BRANCH   4  12
ATOM     12  O   UNL     1       8.142  -5.805  26.878  0.00  0.00    -0.507 OA
ATOM     13  H   UNL     1       9.002  -5.872  27.329  0.00  0.00    +0.292 HD
ENDBRANCH   4  12
TORSDOF 2
ENDMDL
MODEL 5
REMARK VINA RESULT:      -4.6      2.993      5.072
REMARK  Name = 
REMARK  3 active torsions:
REMARK  status: ('A' for Active; 'I' for Inactive)
REMARK    1  A    between atoms: C_1  and  C_2
REMARK    2  A    between atoms: N_4  and  C_5
REMARK    3  A    between atoms: C_8  and  O_9
REMARK                            x       y       z     vdW  Elec       q    Type
REMARK                         _______ _______ _______ _____ _____    ______ ____
ROOT
ATOM      1  C   UNL     1       9.262   1.657  22.352  0.00  0.00    +0.034 A 
ATOM      2  C   UNL     1       9.973   1.267  23.494  0.00  0.00    +0.027 A 
ATOM      3  C   UNL     1      10.427  -0.050  23.631  0.00  0.00    +0.047 A 
ATOM      4  C   UNL     1      10.186  -0.971  22.619  0.00  0.00    +0.117 A 
ATOM      5  C   UNL     1       9.515  -0.592  21.463  0.00  0.00    +0.047 A 
ATOM      6  C   UNL     1       9.054   0.721  21.334  0.00  0.00    +0.027 A 
ENDROOT
BRANCH   1   9
ATOM      7  C   UNL     1       7.320   4.885  22.206  0.00  0.00    +0.109 C 
ATOM      8  C   UNL     1       7.474   3.395  22.366  0.00  0.00    +0.214 C 
ATOM      9  N   UNL     1       8.794   2.987  22.288  0.00  0.00    -0.286 N 
ATOM     10  H   UNL     1       9.502   3.713  22.282  0.00  0.00    +0.155 HD
ATOM     11  O   UNL     1       6.493   2.683  22.552  0.00  0.00    -0.276 OA
ENDBRANCH   1   9
BRANCH   4  12
ATOM     12  O   UNL     1      10.630  -2.246  22.793  0.00  0.00    -0.507 OA
ATOM     13  H   UNL     1      11.003  -2.559  21.951  0.00  0.00    +0.292 HD
ENDBRANCH   4  12
TORSDOF 2
ENDMDL
MODEL 6
REMARK VINA RESULT:      -4.6      3.301      5.956
REMARK  Name = 
REMARK  3 active torsions:
REMARK  status: ('A' for Active; 'I' for Inactive)
REMARK    1  A    between atoms: C_1  and  C_2
REMARK    2  A    between atoms: N_4  and  C_5
REMARK    3  A    between atoms: C_8  and  O_9
REMARK                            x       y       z     vdW  Elec       q    Type
REMARK                         _______ _______ _______ _____ _____    ______ ____
ROOT
ATOM      1  C   UNL     1       7.330  -4.092  23.050  0.00  0.00    +0.034 A 
ATOM      2  C   UNL     1       6.599  -4.228  24.237  0.00  0.00    +0.027 A 
ATOM      3  C   UNL     1       5.708  -5.294  24.403  0.00  0.00    +0.047 A 
ATOM      4  C   UNL     1       5.562  -6.234  23.390  0.00  0.00    +0.117 A 
ATOM      5  C   UNL     1       6.307  -6.136  22.222  0.00  0.00    +0.047 A 
ATOM      6  C   UNL     1       7.188  -5.063  22.055  0.00  0.00    +0.027 A 
ENDROOT
BRANCH   1   9
ATOM      7  C   UNL     1      10.025  -1.462  23.245  0.00  0.00    +0.109 C 
ATOM      8  C   UNL     1       9.400  -2.797  23.558  0.00  0.00    +0.214 C 
ATOM      9  N   UNL     1       8.183  -2.973  22.924  0.00  0.00    -0.286 N 
ATOM     10  H   UNL     1       7.919  -2.284  22.229  0.00  0.00    +0.155 HD
ATOM     11  O   UNL     1       9.969  -3.595  24.296  0.00  0.00    -0.276 OA
ENDBRANCH   1   9
BRANCH   4  12
ATOM     12  O   UNL     1       4.676  -7.250  23.581  0.00  0.00    -0.507 OA
ATOM     13  H   UNL     1       3.792  -6.938  23.322  0.00  0.00    +0.292 HD
ENDBRANCH   4  12
TORSDOF 2
ENDMDL
MODEL 7
REMARK VINA RESULT:      -4.4      1.433      1.999
REMARK  Name = 
REMARK  3 active torsions:
REMARK  status: ('A' for Active; 'I' for Inactive)
REMARK    1  A    between atoms: C_1  and  C_2
REMARK    2  A    between atoms: N_4  and  C_5
REMARK    3  A    between atoms: C_8  and  O_9
REMARK                            x       y       z     vdW  Elec       q    Type
REMARK                         _______ _______ _______ _____ _____    ______ ____
ROOT
ATOM      1  C   UNL     1       9.142  -0.526  24.388  0.00  0.00    +0.034 A 
ATOM      2  C   UNL     1       8.506  -0.429  23.144  0.00  0.00    +0.027 A 
ATOM      3  C   UNL     1       8.901   0.546  22.221  0.00  0.00    +0.047 A 
ATOM      4  C   UNL     1       9.943   1.410  22.534  0.00  0.00    +0.117 A 
ATOM      5  C   UNL     1      10.610   1.303  23.748  0.00  0.00    +0.047 A 
ATOM      6  C   UNL     1      10.206   0.335  24.672  0.00  0.00    +0.027 A 
ENDROOT
BRANCH   1   9
ATOM      7  C   UNL     1       8.230  -3.627  26.331  0.00  0.00    +0.109 C 
ATOM      8  C   UNL     1       8.931  -2.862  25.239  0.00  0.00    +0.214 C 
ATOM      9  N   UNL     1       8.673  -1.503  25.295  0.00  0.00    -0.286 N 
ATOM     10  H   UNL     1       8.186  -1.158  26.113  0.00  0.00    +0.155 HD
ATOM     11  O   UNL     1       9.643  -3.443  24.428  0.00  0.00    -0.276 OA
ENDBRANCH   1   9
BRANCH   4  12
ATOM     12  O   UNL     1      10.290   2.355  21.618  0.00  0.00    -0.507 OA
ATOM     13  H   UNL     1       9.520   2.528  21.048  0.00  0.00    +0.292 HD
ENDBRANCH   4  12
TORSDOF 2
ENDMDL
MODEL 8
REMARK VINA RESULT:      -4.4      3.068      5.303
REMARK  Name = 
REMARK  3 active torsions:
REMARK  status: ('A' for Active; 'I' for Inactive)
REMARK    1  A    between atoms: C_1  and  C_2
REMARK    2  A    between atoms: N_4  and  C_5
REMARK    3  A    between atoms: C_8  and  O_9
REMARK                            x       y       z     vdW  Elec       q    Type
REMARK                         _______ _______ _______ _____ _____    ______ ____
ROOT
ATOM      1  C   UNL     1       7.744  -3.234  23.217  0.00  0.00    +0.034 A 
ATOM      2  C   UNL     1       6.786  -2.965  22.231  0.00  0.00    +0.027 A 
ATOM      3  C   UNL     1       6.107  -4.012  21.598  0.00  0.00    +0.047 A 
ATOM      4  C   UNL     1       6.372  -5.326  21.964  0.00  0.00    +0.117 A 
ATOM      5  C   UNL     1       7.291  -5.610  22.966  0.00  0.00    +0.047 A 
ATOM      6  C   UNL     1       7.976  -4.562  23.589  0.00  0.00    +0.027 A 
ENDROOT
BRANCH   1   9
ATOM      7  C   UNL     1      10.163  -0.575  24.354  0.00  0.00    +0.109 C 
ATOM      8  C   UNL     1       9.729  -1.756  23.525  0.00  0.00    +0.214 C 
ATOM      9  N   UNL     1       8.426  -2.139  23.791  0.00  0.00    -0.286 N 
ATOM     10  H   UNL     1       7.874  -1.524  24.378  0.00  0.00    +0.155 HD
ATOM     11  O   UNL     1      10.496  -2.267  22.716  0.00  0.00    -0.276 OA
ENDBRANCH   1   9
BRANCH   4  12
ATOM     12  O   UNL     1       5.703  -6.319  21.316  0.00  0.00    -0.507 OA
ATOM     13  H   UNL     1       4.849  -5.966  21.011  0.00  0.00    +0.292 HD
ENDBRANCH   4  12
TORSDOF 2
ENDMDL
MODEL 9
REMARK VINA RESULT:      -4.3      2.315      2.954
REMARK  Name = 
REMARK  3 active torsions:
REMARK  status: ('A' for Active; 'I' for Inactive)
REMARK    1  A    between atoms: C_1  and  C_2
REMARK    2  A    between atoms: N_4  and  C_5
REMARK    3  A    between atoms: C_8  and  O_9
REMARK                            x       y       z     vdW  Elec       q    Type
REMARK                         _______ _______ _______ _____ _____    ______ ____
ROOT
ATOM      1  C   UNL     1       8.536  -2.434  23.584  0.00  0.00    +0.034 A 
ATOM      2  C   UNL     1       9.547  -1.798  22.854  0.00  0.00    +0.027 A 
ATOM      3  C   UNL     1      10.264  -0.735  23.413  0.00  0.00    +0.047 A 
ATOM      4  C   UNL     1       9.982  -0.320  24.709  0.00  0.00    +0.117 A 
ATOM      5  C   UNL     1       9.008  -0.964  25.462  0.00  0.00    +0.047 A 
ATOM      6  C   UNL     1       8.287  -2.019  24.896  0.00  0.00    +0.027 A 
ENDROOT
BRANCH   1   9
ATOM      7  C   UNL     1       7.077  -5.669  22.309  0.00  0.00    +0.109 C 
ATOM      8  C   UNL     1       7.955  -4.830  23.199  0.00  0.00    +0.214 C 
ATOM      9  N   UNL     1       7.819  -3.475  22.952  0.00  0.00    -0.286 N 
ATOM     10  H   UNL     1       7.069  -3.191  22.333  0.00  0.00    +0.155 HD
ATOM     11  O   UNL     1       8.681  -5.356  24.036  0.00  0.00    -0.276 OA
ENDBRANCH   1   9
BRANCH   4  12
ATOM     12  O   UNL     1      10.690   0.727  25.215  0.00  0.00    -0.507 OA
ATOM     13  H   UNL     1      10.834   1.374  24.502  0.00  0.00    +0.292 HD
ENDBRANCH   4  12
TORSDOF 2
ENDMDL
