MODEL 1
REMARK VINA RESULT:      -7.1      0.000      0.000
REMARK  Name = 
REMARK  5 active torsions:
REMARK  status: ('A' for Active; 'I' for Inactive)
REMARK    1  A    between atoms: C_1  and  O_2
REMARK    2  A    between atoms: O_2  and  C_3
REMARK    3  A    between atoms: C_4  and  C_11
REMARK    4  A    between atoms: C_7  and  N_8
REMARK    5  A    between atoms: N_13  and  C_14
REMARK                            x       y       z     vdW  Elec       q    Type
REMARK                         _______ _______ _______ _____ _____    ______ ____
ROOT
ATOM      1  C   UNL     1       8.636  -3.479  24.704  0.00  0.00    +0.248 C 
ATOM      2  N   UNL     1       8.156  -2.199  24.386  0.00  0.00    -0.308 N 
ATOM      3  H   UNL     1       7.208  -1.942  24.625  0.00  0.00    +0.149 HD
ATOM      4  O   UNL     1       9.784  -3.830  24.470  0.00  0.00    -0.270 OA
ENDROOT
BRANCH   2   5
ATOM      5  C   UNL     1       9.017  -1.161  23.777  0.00  0.00    +0.079 C 
ATOM      6  C   UNL     1       8.295  -0.439  22.614  0.00  0.00    +0.023 C 
ATOM      7  C   UNL     1       7.471   0.750  23.098  0.00  0.00    +0.089 C 
ATOM      8  N   UNL     1       8.326   1.715  23.770  0.00  0.00    -0.302 NA
ATOM      9  C   UNL     1       9.310   2.302  22.855  0.00  0.00    +0.084 C 
ATOM     10  C   UNL     1      10.002   1.362  21.858  0.00  0.00    +0.016 C 
ATOM     11  C   UNL     1       8.891   1.148  24.990  0.00  0.00    +0.086 C 
ATOM     12  C   UNL     1       9.281   0.046  21.543  0.00  0.00    +0.008 C 
ATOM     13  C   UNL     1       9.597  -0.202  24.837  0.00  0.00    +0.038 C 
ENDBRANCH   2   5
BRANCH   1  20
ATOM     14  C   UNL     1       6.561  -4.987  24.619  0.00  0.00    +0.152 A 
ATOM     15  C   UNL     1       5.744  -5.939  25.285  0.00  0.00    +0.104 A 
ATOM     16 CL   UNL     1       4.561  -6.906  24.448  0.00  0.00    -0.078 Cl
ATOM     17  C   UNL     1       5.927  -6.232  26.655  0.00  0.00    +0.047 A 
ATOM     18  C   UNL     1       6.904  -5.542  27.366  0.00  0.00    +0.025 A 
ATOM     19  C   UNL     1       7.764  -4.659  26.712  0.00  0.00    +0.018 A 
ATOM     20  C   UNL     1       7.634  -4.407  25.337  0.00  0.00    +0.080 A 
BRANCH  17  21
ATOM     21  N   UNL     1       5.016  -7.040  27.370  0.00  0.00    -0.357 N 
ATOM     22  H   UNL     1       4.486  -7.661  26.760  0.00  0.00    +0.142 HD
ATOM     23  H   UNL     1       5.416  -7.523  28.167  0.00  0.00    +0.142 HD
ENDBRANCH  17  21
BRANCH  14  25
ATOM     24  C   UNL     1       7.089  -5.588  22.389  0.00  0.00    +0.277 C 
ATOM     25  O   UNL     1       6.418  -4.692  23.285  0.00  0.00    -0.493 OA
ENDBRANCH  14  25
ENDBRANCH   1  20
TORSDOF 4
ENDMDL
MODEL 2
REMARK VINA RESULT:      -7.0      2.931      7.345
REMARK  Name = 
REMARK  5 active torsions:
REMARK  status: ('A' for Active; 'I' for Inactive)
REMARK    1  A    between atoms: C_1  and  O_2
REMARK    2  A    between atoms: O_2  and  C_3
REMARK    3  A    between atoms: C_4  and  C_11
REMARK    4  A    between atoms: C_7  and  N_8
REMARK    5  A    between atoms: N_13  and  C_14
REMARK                            x       y       z     vdW  Elec       q    Type
REMARK                         _______ _______ _______ _____ _____    ______ ____
ROOT
ATOM      1  C   UNL     1       8.655  -2.959  23.735  0.00  0.00    +0.248 C 
ATOM      2  N   UNL     1       7.283  -3.254  23.732  0.00  0.00    -0.308 N 
ATOM      3  H   UNL     1       6.624  -2.581  23.362  0.00  0.00    +0.149 HD
ATOM      4  O   UNL     1       9.499  -3.749  24.137  0.00  0.00    -0.270 OA
ENDROOT
BRANCH   2   5
ATOM      5  C   UNL     1       6.754  -4.560  24.180  0.00  0.00    +0.079 C 
ATOM      6  C   UNL     1       5.425  -4.396  24.957  0.00  0.00    +0.023 C 
ATOM      7  C   UNL     1       4.214  -4.399  24.031  0.00  0.00    +0.089 C 
ATOM      8  N   UNL     1       4.152  -5.646  23.286  0.00  0.00    -0.302 NA
ATOM      9  C   UNL     1       3.940  -6.798  24.169  0.00  0.00    +0.084 C 
ATOM     10  C   UNL     1       4.722  -6.835  25.489  0.00  0.00    +0.016 C 
ATOM     11  C   UNL     1       5.293  -5.770  22.386  0.00  0.00    +0.086 C 
ATOM     12  C   UNL     1       5.243  -5.492  26.015  0.00  0.00    +0.008 C 
ATOM     13  C   UNL     1       6.672  -5.575  23.021  0.00  0.00    +0.038 C 
ENDBRANCH   2   5
BRANCH   1  20
ATOM     14  C   UNL     1       9.297  -0.499  24.086  0.00  0.00    +0.152 A 
ATOM     15  C   UNL     1       9.750   0.716  23.505  0.00  0.00    +0.104 A 
ATOM     16 CL   UNL     1      10.359   2.040  24.460  0.00  0.00    -0.078 Cl
ATOM     17  C   UNL     1       9.834   0.872  22.104  0.00  0.00    +0.047 A 
ATOM     18  C   UNL     1       9.427  -0.177  21.284  0.00  0.00    +0.025 A 
ATOM     19  C   UNL     1       9.051  -1.402  21.837  0.00  0.00    +0.018 A 
ATOM     20  C   UNL     1       9.025  -1.591  23.228  0.00  0.00    +0.080 A 
BRANCH  17  21
ATOM     21  N   UNL     1      10.112   2.123  21.511  0.00  0.00    -0.357 N 
ATOM     22  H   UNL     1       9.410   2.391  20.824  0.00  0.00    +0.142 HD
ATOM     23  H   UNL     1      10.318   2.865  22.170  0.00  0.00    +0.142 HD
ENDBRANCH  17  21
BRANCH  14  25
ATOM     24  C   UNL     1       8.023  -0.191  26.060  0.00  0.00    +0.277 C 
ATOM     25  O   UNL     1       9.220  -0.688  25.445  0.00  0.00    -0.493 OA
ENDBRANCH  14  25
ENDBRANCH   1  20
TORSDOF 4
ENDMDL
MODEL 3
REMARK VINA RESULT:      -6.8      1.648      2.483
REMARK  Name = 
REMARK  5 active torsions:
REMARK  status: ('A' for Active; 'I' for Inactive)
REMARK    1  A    between atoms: C_1  and  O_2
REMARK    2  A    between atoms: O_2  and  C_3
REMARK    3  A    between atoms: C_4  and  C_11
REMARK    4  A    between atoms: C_7  and  N_8
REMARK    5  A    between atoms: N_13  and  C_14
REMARK                            x       y       z     vdW  Elec       q    Type
REMARK                         _______ _______ _______ _____ _____    ______ ____
ROOT
ATOM      1  C   UNL     1       8.760  -2.644  23.377  0.00  0.00    +0.248 C 
ATOM      2  N   UNL     1       8.286  -1.386  23.781  0.00  0.00    -0.308 N 
ATOM      3  H   UNL     1       7.347  -1.294  24.144  0.00  0.00    +0.149 HD
ATOM      4  O   UNL     1       9.898  -2.819  22.964  0.00  0.00    -0.270 OA
ENDROOT
BRANCH   2   5
ATOM      5  C   UNL     1       9.142  -0.179  23.774  0.00  0.00    +0.079 C 
ATOM      6  C   UNL     1       8.821   0.735  22.568  0.00  0.00    +0.023 C 
ATOM      7  C   UNL     1       7.701   1.722  22.877  0.00  0.00    +0.089 C 
ATOM      8  N   UNL     1       8.070   2.568  24.001  0.00  0.00    -0.302 NA
ATOM      9  C   UNL     1       9.227   3.414  23.690  0.00  0.00    +0.084 C 
ATOM     10  C   UNL     1      10.386   2.775  22.913  0.00  0.00    +0.016 C 
ATOM     11  C   UNL     1       8.202   1.780  25.221  0.00  0.00    +0.086 C 
ATOM     12  C   UNL     1      10.055   1.517  22.100  0.00  0.00    +0.008 C 
ATOM     13  C   UNL     1       9.113   0.553  25.132  0.00  0.00    +0.038 C 
ENDBRANCH   2   5
BRANCH   1  20
ATOM     14  C   UNL     1       7.324  -4.314  24.694  0.00  0.00    +0.152 A 
ATOM     15  C   UNL     1       6.297  -5.295  24.665  0.00  0.00    +0.104 A 
ATOM     16 CL   UNL     1       5.494  -5.852  26.108  0.00  0.00    -0.078 Cl
ATOM     17  C   UNL     1       5.791  -5.792  23.443  0.00  0.00    +0.047 A 
ATOM     18  C   UNL     1       6.344  -5.333  22.250  0.00  0.00    +0.025 A 
ATOM     19  C   UNL     1       7.300  -4.318  22.258  0.00  0.00    +0.018 A 
ATOM     20  C   UNL     1       7.765  -3.769  23.464  0.00  0.00    +0.080 A 
BRANCH  17  21
ATOM     21  N   UNL     1       4.900  -6.886  23.398  0.00  0.00    -0.357 N 
ATOM     22  H   UNL     1       5.378  -7.769  23.231  0.00  0.00    +0.142 HD
ATOM     23  H   UNL     1       4.250  -6.933  24.175  0.00  0.00    +0.142 HD
ENDBRANCH  17  21
BRANCH  14  25
ATOM     24  C   UNL     1       8.834  -4.599  26.498  0.00  0.00    +0.277 C 
ATOM     25  O   UNL     1       7.825  -3.800  25.865  0.00  0.00    -0.493 OA
ENDBRANCH  14  25
ENDBRANCH   1  20
TORSDOF 4
ENDMDL
MODEL 4
REMARK VINA RESULT:      -6.4      3.215      7.133
REMARK  Name = 
REMARK  5 active torsions:
REMARK  status: ('A' for Active; 'I' for Inactive)
REMARK    1  A    between atoms: C_1  and  O_2
REMARK    2  A    between atoms: O_2  and  C_3
REMARK    3  A    between atoms: C_4  and  C_11
REMARK    4  A    between atoms: C_7  and  N_8
REMARK    5  A    between atoms: N_13  and  C_14
REMARK                            x       y       z     vdW  Elec       q    Type
REMARK                         _______ _______ _______ _____ _____    ______ ____
ROOT
ATOM      1  C   UNL     1       8.569  -1.610  24.624  0.00  0.00    +0.248 C 
ATOM      2  N   UNL     1       7.931  -2.348  23.614  0.00  0.00    -0.308 N 
ATOM      3  H   UNL     1       7.905  -1.989  22.669  0.00  0.00    +0.149 HD
ATOM      4  O   UNL     1       8.662  -2.012  25.776  0.00  0.00    -0.270 OA
ENDROOT
BRANCH   2   5
ATOM      5  C   UNL     1       7.355  -3.688  23.858  0.00  0.00    +0.079 C 
ATOM      6  C   UNL     1       5.905  -3.592  24.388  0.00  0.00    +0.023 C 
ATOM      7  C   UNL     1       4.882  -3.530  23.258  0.00  0.00    +0.089 C 
ATOM      8  N   UNL     1       4.982  -4.715  22.423  0.00  0.00    -0.302 NA
ATOM      9  C   UNL     1       4.635  -5.934  23.162  0.00  0.00    +0.084 C 
ATOM     10  C   UNL     1       5.164  -6.069  24.596  0.00  0.00    +0.016 C 
ATOM     11  C   UNL     1       6.270  -4.763  21.740  0.00  0.00    +0.086 C 
ATOM     12  C   UNL     1       5.554  -4.768  25.309  0.00  0.00    +0.008 C 
ATOM     13  C   UNL     1       7.506  -4.610  22.630  0.00  0.00    +0.038 C 
ENDBRANCH   2   5
BRANCH   1  20
ATOM     14  C   UNL     1       8.348   0.689  23.506  0.00  0.00    +0.152 A 
ATOM     15  C   UNL     1       8.929   1.962  23.259  0.00  0.00    +0.104 A 
ATOM     16 CL   UNL     1       8.007   3.308  22.646  0.00  0.00    -0.078 Cl
ATOM     17  C   UNL     1      10.271   2.236  23.606  0.00  0.00    +0.047 A 
ATOM     18  C   UNL     1      11.042   1.221  24.165  0.00  0.00    +0.025 A 
ATOM     19  C   UNL     1      10.467  -0.010  24.482  0.00  0.00    +0.018 A 
ATOM     20  C   UNL     1       9.117  -0.274  24.202  0.00  0.00    +0.080 A 
BRANCH  17  21
ATOM     21  N   UNL     1      10.911   3.431  23.210  0.00  0.00    -0.357 N 
ATOM     22  H   UNL     1      10.337   3.989  22.581  0.00  0.00    +0.142 HD
ATOM     23  H   UNL     1      11.298   3.974  23.973  0.00  0.00    +0.142 HD
ENDBRANCH  17  21
BRANCH  14  25
ATOM     24  C   UNL     1       6.078   0.808  24.174  0.00  0.00    +0.277 C 
ATOM     25  O   UNL     1       7.042   0.397  23.195  0.00  0.00    -0.493 OA
ENDBRANCH  14  25
ENDBRANCH   1  20
TORSDOF 4
ENDMDL
MODEL 5
REMARK VINA RESULT:      -6.2      2.219      3.379
REMARK  Name = 
REMARK  5 active torsions:
REMARK  status: ('A' for Active; 'I' for Inactive)
REMARK    1  A    between atoms: C_1  and  O_2
REMARK    2  A    between atoms: O_2  and  C_3
REMARK    3  A    between atoms: C_4  and  C_11
REMARK    4  A    between atoms: C_7  and  N_8
REMARK    5  A    between atoms: N_13  and  C_14
REMARK                            x       y       z     vdW  Elec       q    Type
REMARK                         _______ _______ _______ _____ _____    ______ ____
ROOT
ATOM      1  C   UNL     1       6.156  -1.167  24.105  0.00  0.00    +0.248 C 
ATOM      2  N   UNL     1       7.305  -0.711  23.440  0.00  0.00    -0.308 N 
ATOM      3  H   UNL     1       7.871  -1.360  22.911  0.00  0.00    +0.149 HD
ATOM      4  O   UNL     1       5.415  -0.421  24.731  0.00  0.00    -0.270 OA
ENDROOT
BRANCH   2   5
ATOM      5  C   UNL     1       7.687   0.717  23.413  0.00  0.00    +0.079 C 
ATOM      6  C   UNL     1       8.575   1.088  24.625  0.00  0.00    +0.023 C 
ATOM      7  C   UNL     1      10.055   0.848  24.349  0.00  0.00    +0.089 C 
ATOM      8  N   UNL     1      10.491   1.639  23.210  0.00  0.00    -0.302 NA
ATOM      9  C   UNL     1      10.399   3.078  23.479  0.00  0.00    +0.084 C 
ATOM     10  C   UNL     1       9.153   3.584  24.219  0.00  0.00    +0.016 C 
ATOM     11  C   UNL     1       9.822   1.203  21.989  0.00  0.00    +0.086 C 
ATOM     12  C   UNL     1       8.381   2.550  25.048  0.00  0.00    +0.008 C 
ATOM     13  C   UNL     1       8.294   1.123  22.054  0.00  0.00    +0.038 C 
ENDBRANCH   2   5
BRANCH   1  20
ATOM     14  C   UNL     1       6.194  -3.544  25.074  0.00  0.00    +0.152 A 
ATOM     15  C   UNL     1       5.807  -4.903  24.929  0.00  0.00    +0.104 A 
ATOM     16 CL   UNL     1       5.877  -6.042  26.247  0.00  0.00    -0.078 Cl
ATOM     17  C   UNL     1       5.236  -5.379  23.728  0.00  0.00    +0.047 A 
ATOM     18  C   UNL     1       5.089  -4.500  22.659  0.00  0.00    +0.025 A 
ATOM     19  C   UNL     1       5.394  -3.147  22.808  0.00  0.00    +0.018 A 
ATOM     20  C   UNL     1       5.902  -2.648  24.018  0.00  0.00    +0.080 A 
BRANCH  17  21
ATOM     21  N   UNL     1       5.010  -6.755  23.507  0.00  0.00    -0.357 N 
ATOM     22  H   UNL     1       5.871  -7.264  23.315  0.00  0.00    +0.142 HD
ATOM     23  H   UNL     1       4.437  -7.207  24.212  0.00  0.00    +0.142 HD
ENDBRANCH  17  21
BRANCH  14  25
ATOM     24  C   UNL     1       8.151  -3.237  26.374  0.00  0.00    +0.277 C 
ATOM     25  O   UNL     1       6.737  -3.047  26.234  0.00  0.00    -0.493 OA
ENDBRANCH  14  25
ENDBRANCH   1  20
TORSDOF 4
ENDMDL
MODEL 6
REMARK VINA RESULT:      -5.9      2.513      3.735
REMARK  Name = 
REMARK  5 active torsions:
REMARK  status: ('A' for Active; 'I' for Inactive)
REMARK    1  A    between atoms: C_1  and  O_2
REMARK    2  A    between atoms: O_2  and  C_3
REMARK    3  A    between atoms: C_4  and  C_11
REMARK    4  A    between atoms: C_7  and  N_8
REMARK    5  A    between atoms: N_13  and  C_14
REMARK                            x       y       z     vdW  Elec       q    Type
REMARK                         _______ _______ _______ _____ _____    ______ ____
ROOT
ATOM      1  C   UNL     1       9.342   0.042  25.068  0.00  0.00    +0.248 C 
ATOM      2  N   UNL     1       8.439   1.099  24.871  0.00  0.00    -0.308 N 
ATOM      3  H   UNL     1       7.452   0.906  24.768  0.00  0.00    +0.149 HD
ATOM      4  O   UNL     1      10.541   0.221  25.234  0.00  0.00    -0.270 OA
ENDROOT
BRANCH   2   5
ATOM      5  C   UNL     1       8.864   2.516  24.889  0.00  0.00    +0.079 C 
ATOM      6  C   UNL     1       9.315   2.988  23.485  0.00  0.00    +0.023 C 
ATOM      7  C   UNL     1       8.149   3.510  22.653  0.00  0.00    +0.089 C 
ATOM      8  N   UNL     1       7.512   4.631  23.325  0.00  0.00    -0.302 NA
ATOM      9  C   UNL     1       8.416   5.779  23.447  0.00  0.00    +0.084 C 
ATOM     10  C   UNL     1       9.874   5.496  23.834  0.00  0.00    +0.016 C 
ATOM     11  C   UNL     1       6.897   4.203  24.577  0.00  0.00    +0.086 C 
ATOM     12  C   UNL     1      10.391   4.077  23.568  0.00  0.00    +0.008 C 
ATOM     13  C   UNL     1       7.801   3.426  25.537  0.00  0.00    +0.038 C 
ENDBRANCH   2   5
BRANCH   1  20
ATOM     14  C   UNL     1       8.232  -1.932  23.861  0.00  0.00    +0.152 A 
ATOM     15  C   UNL     1       7.793  -3.282  23.925  0.00  0.00    +0.104 A 
ATOM     16 CL   UNL     1       7.389  -4.203  22.501  0.00  0.00    -0.078 Cl
ATOM     17  C   UNL     1       7.768  -3.988  25.148  0.00  0.00    +0.047 A 
ATOM     18  C   UNL     1       8.146  -3.328  26.313  0.00  0.00    +0.025 A 
ATOM     19  C   UNL     1       8.650  -2.028  26.259  0.00  0.00    +0.018 A 
ATOM     20  C   UNL     1       8.741  -1.337  25.040  0.00  0.00    +0.080 A 
BRANCH  17  21
ATOM     21  N   UNL     1       7.173  -5.264  25.257  0.00  0.00    -0.357 N 
ATOM     22  H   UNL     1       6.475  -5.430  24.534  0.00  0.00    +0.142 HD
ATOM     23  H   UNL     1       7.832  -6.029  25.348  0.00  0.00    +0.142 HD
ENDBRANCH  17  21
BRANCH  14  25
ATOM     24  C   UNL     1       9.456  -1.448  21.891  0.00  0.00    +0.277 C 
ATOM     25  O   UNL     1       8.283  -1.224  22.685  0.00  0.00    -0.493 OA
ENDBRANCH  14  25
ENDBRANCH   1  20
TORSDOF 4
ENDMDL
MODEL 7
REMARK VINA RESULT:      -5.9      3.774      7.752
REMARK  Name = 
REMARK  5 active torsions:
REMARK  status: ('A' for Active; 'I' for Inactive)
REMARK    1  A    between atoms: C_1  and  O_2
REMARK    2  A    between atoms: O_2  and  C_3
REMARK    3  A    between atoms: C_4  and  C_11
REMARK    4  A    between atoms: C_7  and  N_8
REMARK    5  A    between atoms: N_13  and  C_14
REMARK                            x       y       z     vdW  Elec       q    Type
REMARK                         _______ _______ _______ _____ _____    ______ ____
ROOT
ATOM      1  C   UNL     1       9.806   0.500  24.393  0.00  0.00    +0.248 C 
ATOM      2  N   UNL     1       8.931  -0.280  23.621  0.00  0.00    -0.308 N 
ATOM      3  H   UNL     1       8.357   0.158  22.913  0.00  0.00    +0.149 HD
ATOM      4  O   UNL     1      10.548   0.019  25.238  0.00  0.00    -0.270 OA
ENDROOT
BRANCH   2   5
ATOM      5  C   UNL     1       8.869  -1.753  23.743  0.00  0.00    +0.079 C 
ATOM      6  C   UNL     1       8.061  -2.183  24.991  0.00  0.00    +0.023 C 
ATOM      7  C   UNL     1       6.570  -2.300  24.698  0.00  0.00    +0.089 C 
ATOM      8  N   UNL     1       6.338  -3.280  23.649  0.00  0.00    -0.302 NA
ATOM      9  C   UNL     1       6.735  -4.629  24.065  0.00  0.00    +0.084 C 
ATOM     10  C   UNL     1       8.047  -4.773  24.848  0.00  0.00    +0.016 C 
ATOM     11  C   UNL     1       6.918  -2.835  22.387  0.00  0.00    +0.086 C 
ATOM     12  C   UNL     1       8.560  -3.516  25.563  0.00  0.00    +0.008 C 
ATOM     13  C   UNL     1       8.390  -2.418  22.436  0.00  0.00    +0.038 C 
ENDBRANCH   2   5
BRANCH   1  20
ATOM     14  C   UNL     1       8.595   2.763  24.338  0.00  0.00    +0.152 A 
ATOM     15  C   UNL     1       8.692   4.170  24.168  0.00  0.00    +0.104 A 
ATOM     16 CL   UNL     1       7.416   5.260  24.638  0.00  0.00    -0.078 Cl
ATOM     17  C   UNL     1       9.884   4.773  23.707  0.00  0.00    +0.047 A 
ATOM     18  C   UNL     1      10.966   3.960  23.380  0.00  0.00    +0.025 A 
ATOM     19  C   UNL     1      10.913   2.585  23.611  0.00  0.00    +0.018 A 
ATOM     20  C   UNL     1       9.757   1.981  24.129  0.00  0.00    +0.080 A 
BRANCH  17  21
ATOM     21  N   UNL     1       9.941   6.142  23.368  0.00  0.00    -0.357 N 
ATOM     22  H   UNL     1      10.673   6.637  23.874  0.00  0.00    +0.142 HD
ATOM     23  H   UNL     1       9.959   6.329  22.372  0.00  0.00    +0.142 HD
ENDBRANCH  17  21
BRANCH  14  25
ATOM     24  C   UNL     1       7.287   2.171  26.223  0.00  0.00    +0.277 C 
ATOM     25  O   UNL     1       7.456   2.149  24.799  0.00  0.00    -0.493 OA
ENDBRANCH  14  25
ENDBRANCH   1  20
TORSDOF 4
ENDMDL
MODEL 8
REMARK VINA RESULT:      -5.8      4.011      7.815
REMARK  Name = 
REMARK  5 active torsions:
REMARK  status: ('A' for Active; 'I' for Inactive)
REMARK    1  A    between atoms: C_1  and  O_2
REMARK    2  A    between atoms: O_2  and  C_3
REMARK    3  A    between atoms: C_4  and  C_11
REMARK    4  A    between atoms: C_7  and  N_8
REMARK    5  A    between atoms: N_13  and  C_14
REMARK                            x       y       z     vdW  Elec       q    Type
REMARK                         _______ _______ _______ _____ _____    ______ ____
ROOT
ATOM      1  C   UNL     1       6.125   0.777  24.158  0.00  0.00    +0.248 C 
ATOM      2  N   UNL     1       6.768  -0.361  23.645  0.00  0.00    -0.308 N 
ATOM      3  H   UNL     1       7.565  -0.256  23.031  0.00  0.00    +0.149 HD
ATOM      4  O   UNL     1       5.180   0.708  24.932  0.00  0.00    -0.270 OA
ENDROOT
BRANCH   2   5
ATOM      5  C   UNL     1       6.374  -1.733  24.032  0.00  0.00    +0.079 C 
ATOM      6  C   UNL     1       6.042  -2.597  22.791  0.00  0.00    +0.023 C 
ATOM      7  C   UNL     1       7.280  -3.281  22.220  0.00  0.00    +0.089 C 
ATOM      8  N   UNL     1       7.888  -4.141  23.221  0.00  0.00    -0.302 NA
ATOM      9  C   UNL     1       7.003  -5.247  23.601  0.00  0.00    +0.084 C 
ATOM     10  C   UNL     1       5.514  -4.930  23.795  0.00  0.00    +0.016 C 
ATOM     11  C   UNL     1       8.396  -3.355  24.341  0.00  0.00    +0.086 C 
ATOM     12  C   UNL     1       4.987  -3.665  23.105  0.00  0.00    +0.008 C 
ATOM     13  C   UNL     1       7.405  -2.380  24.980  0.00  0.00    +0.038 C 
ENDBRANCH   2   5
BRANCH   1  20
ATOM     14  C   UNL     1       7.892   2.638  24.125  0.00  0.00    +0.152 A 
ATOM     15  C   UNL     1       8.360   3.834  23.518  0.00  0.00    +0.104 A 
ATOM     16 CL   UNL     1       9.964   4.458  23.796  0.00  0.00    -0.078 Cl
ATOM     17  C   UNL     1       7.582   4.527  22.564  0.00  0.00    +0.047 A 
ATOM     18  C   UNL     1       6.317   4.040  22.247  0.00  0.00    +0.025 A 
ATOM     19  C   UNL     1       5.872   2.828  22.776  0.00  0.00    +0.018 A 
ATOM     20  C   UNL     1       6.663   2.097  23.676  0.00  0.00    +0.080 A 
BRANCH  17  21
ATOM     21  N   UNL     1       7.955   5.802  22.086  0.00  0.00    -0.357 N 
ATOM     22  H   UNL     1       8.959   5.881  21.933  0.00  0.00    +0.142 HD
ATOM     23  H   UNL     1       7.411   6.131  21.296  0.00  0.00    +0.142 HD
ENDBRANCH  17  21
BRANCH  14  25
ATOM     24  C   UNL     1       9.754   1.223  24.504  0.00  0.00    +0.277 C 
ATOM     25  O   UNL     1       8.631   1.934  25.043  0.00  0.00    -0.493 OA
ENDBRANCH  14  25
ENDBRANCH   1  20
TORSDOF 4
ENDMDL
MODEL 9
REMARK VINA RESULT:      -5.8      3.463      7.622
REMARK  Name = 
REMARK  5 active torsions:
REMARK  status: ('A' for Active; 'I' for Inactive)
REMARK    1  A    between atoms: C_1  and  O_2
REMARK    2  A    between atoms: O_2  and  C_3
REMARK    3  A    between atoms: C_4  and  C_11
REMARK    4  A    between atoms: C_7  and  N_8
REMARK    5  A    between atoms: N_13  and  C_14
REMARK                            x       y       z     vdW  Elec       q    Type
REMARK                         _______ _______ _______ _____ _____    ______ ____
ROOT
ATOM      1  C   UNL     1       8.291  -0.512  23.116  0.00  0.00    +0.248 C 
ATOM      2  N   UNL     1       7.808  -1.055  24.316  0.00  0.00    -0.308 N 
ATOM      3  H   UNL     1       7.355  -0.457  24.994  0.00  0.00    +0.149 HD
ATOM      4  O   UNL     1       8.815  -1.195  22.246  0.00  0.00    -0.270 OA
ENDROOT
BRANCH   2   5
ATOM      5  C   UNL     1       7.861  -2.505  24.606  0.00  0.00    +0.079 C 
ATOM      6  C   UNL     1       7.967  -2.775  26.126  0.00  0.00    +0.023 C 
ATOM      7  C   UNL     1       6.599  -2.850  26.793  0.00  0.00    +0.089 C 
ATOM      8  N   UNL     1       5.806  -3.914  26.199  0.00  0.00    -0.302 NA
ATOM      9  C   UNL     1       6.400  -5.234  26.435  0.00  0.00    +0.084 C 
ATOM     10  C   UNL     1       7.923  -5.363  26.292  0.00  0.00    +0.016 C 
ATOM     11  C   UNL     1       5.508  -3.621  24.801  0.00  0.00    +0.086 C 
ATOM     12  C   UNL     1       8.736  -4.069  26.424  0.00  0.00    +0.008 C 
ATOM     13  C   UNL     1       6.710  -3.270  23.920  0.00  0.00    +0.038 C 
ENDBRANCH   2   5
BRANCH   1  20
ATOM     14  C   UNL     1       8.844   1.904  23.782  0.00  0.00    +0.152 A 
ATOM     15  C   UNL     1       8.717   3.288  23.485  0.00  0.00    +0.104 A 
ATOM     16 CL   UNL     1       9.719   4.501  24.233  0.00  0.00    -0.078 Cl
ATOM     17  C   UNL     1       7.839   3.745  22.478  0.00  0.00    +0.047 A 
ATOM     18  C   UNL     1       7.059   2.816  21.794  0.00  0.00    +0.025 A 
ATOM     19  C   UNL     1       7.225   1.449  22.019  0.00  0.00    +0.018 A 
ATOM     20  C   UNL     1       8.142   0.979  22.973  0.00  0.00    +0.080 A 
BRANCH  17  21
ATOM     21  N   UNL     1       7.572   5.118  22.291  0.00  0.00    -0.357 N 
ATOM     22  H   UNL     1       6.632   5.375  22.590  0.00  0.00    +0.142 HD
ATOM     23  H   UNL     1       8.283   5.740  22.660  0.00  0.00    +0.142 HD
ENDBRANCH  17  21
BRANCH  14  25
ATOM     24  C   UNL     1      11.028   1.135  24.286  0.00  0.00    +0.277 C 
ATOM     25  O   UNL     1       9.701   1.428  24.744  0.00  0.00    -0.493 OA
ENDBRANCH  14  25
ENDBRANCH   1  20
TORSDOF 4
ENDMDL
