MODEL 1
REMARK VINA RESULT:      -5.1      0.000      0.000
REMARK  Name = 
REMARK  9 active torsions:
REMARK  status: ('A' for Active; 'I' for Inactive)
REMARK    1  A    between atoms: N_1  and  CA_2
REMARK    2  A    between atoms: CA_2  and  C_4
REMARK    3  A    between atoms: CA_2  and  C_13
REMARK    4  A    between atoms: C_4  and  C_5
REMARK    5  A    between atoms: C_5  and  C_6
REMARK    6  A    between atoms: C_6  and  N_7
REMARK    7  A    between atoms: N_10  and  C_11
REMARK    8  A    between atoms: N_10  and  C_12
REMARK    9  A    between atoms: C_13  and  O_14
REMARK                            x       y       z     vdW  Elec       q    Type
REMARK                         _______ _______ _______ _____ _____    ______ ____
ROOT
ATOM      1  C   UNL     1       8.412  -3.054  23.730  0.00  0.00    +0.043 C 
ENDROOT
BRANCH   1   2
ATOM      2  C   UNL     1       8.286  -4.476  24.280  0.00  0.00    +0.033 C 
BRANCH   2   3
ATOM      3  CA  UNL     1       8.990  -4.684  25.626  0.00  0.00    +0.161 C 
BRANCH   3   4
ATOM      4  N   UNL     1       9.799  -5.943  25.646  0.00  0.00    -0.318 NA
ATOM      5  H1  UNL     1      10.408  -5.946  24.822  0.00  0.00    +0.119 HD
ATOM      6  H2  UNL     1      10.460  -5.867  26.427  0.00  0.00    +0.119 HD
ENDBRANCH   3   4
BRANCH   3   7
ATOM      7  C   UNL     1       7.941  -4.765  26.752  0.00  0.00    +0.322 C 
ATOM      8  OXT UNL     1       7.107  -3.909  27.006  0.00  0.00    -0.249 OA
BRANCH   7   9
ATOM      9  O   UNL     1       8.050  -5.933  27.440  0.00  0.00    -0.480 OA
ATOM     10  H   UNL     1       8.573  -5.706  28.251  0.00  0.00    +0.295 HD
ENDBRANCH   7   9
ENDBRANCH   3   7
ENDBRANCH   2   3
ENDBRANCH   1   2
BRANCH   1  11
ATOM     11  C   UNL     1       9.869  -2.594  23.757  0.00  0.00    +0.243 C 
BRANCH  11  12
ATOM     12  N   UNL     1       9.889  -1.151  23.947  0.00  0.00    -0.114 NA
ATOM     13  C   UNL     1       9.926  -0.362  22.927  0.00  0.00    +0.381 C 
ATOM     14  N   UNL     1       9.916   1.008  23.079  0.00  0.00    -0.268 N 
ATOM     15  C   UNL     1      10.132   1.991  22.024  0.00  0.00    +0.242 C 
ATOM     16  C   UNL     1       9.908   1.600  24.419  0.00  0.00    +0.242 C 
ATOM     17  N   UNL     1       9.962  -0.775  21.631  0.00  0.00    -0.289 N 
ATOM     18  H   UNL     1       9.318  -0.266  21.041  0.00  0.00    +0.255 HD
ATOM     19  H   UNL     1       9.829  -1.767  21.504  0.00  0.00    +0.255 HD
ENDBRANCH  11  12
ENDBRANCH   1  11
TORSDOF 7
ENDMDL
MODEL 2
REMARK VINA RESULT:      -5.1      0.750      1.405
REMARK  Name = 
REMARK  9 active torsions:
REMARK  status: ('A' for Active; 'I' for Inactive)
REMARK    1  A    between atoms: N_1  and  CA_2
REMARK    2  A    between atoms: CA_2  and  C_4
REMARK    3  A    between atoms: CA_2  and  C_13
REMARK    4  A    between atoms: C_4  and  C_5
REMARK    5  A    between atoms: C_5  and  C_6
REMARK    6  A    between atoms: C_6  and  N_7
REMARK    7  A    between atoms: N_10  and  C_11
REMARK    8  A    between atoms: N_10  and  C_12
REMARK    9  A    between atoms: C_13  and  O_14
REMARK                            x       y       z     vdW  Elec       q    Type
REMARK                         _______ _______ _______ _____ _____    ______ ____
ROOT
ATOM      1  C   UNL     1       8.504  -3.083  23.543  0.00  0.00    +0.043 C 
ENDROOT
BRANCH   1   2
ATOM      2  C   UNL     1       8.435  -4.461  24.205  0.00  0.00    +0.033 C 
BRANCH   2   3
ATOM      3  CA  UNL     1       9.125  -4.527  25.572  0.00  0.00    +0.161 C 
BRANCH   3   4
ATOM      4  N   UNL     1      10.032  -5.712  25.685  0.00  0.00    -0.318 NA
ATOM      5  H1  UNL     1       9.602  -6.385  26.328  0.00  0.00    +0.119 HD
ATOM      6  H2  UNL     1      10.008  -6.200  24.783  0.00  0.00    +0.119 HD
ENDBRANCH   3   4
BRANCH   3   7
ATOM      7  C   UNL     1       8.062  -4.623  26.684  0.00  0.00    +0.322 C 
ATOM      8  OXT UNL     1       7.238  -3.762  26.953  0.00  0.00    -0.249 OA
BRANCH   7   9
ATOM      9  O   UNL     1       8.145  -5.811  27.340  0.00  0.00    -0.480 OA
ATOM     10  H   UNL     1       8.018  -6.501  26.639  0.00  0.00    +0.295 HD
ENDBRANCH   7   9
ENDBRANCH   3   7
ENDBRANCH   2   3
ENDBRANCH   1   2
BRANCH   1  11
ATOM     11  C   UNL     1       9.705  -2.295  24.065  0.00  0.00    +0.243 C 
BRANCH  11  12
ATOM     12  N   UNL     1       9.769  -1.031  23.347  0.00  0.00    -0.114 NA
ATOM     13  C   UNL     1       9.978   0.069  23.987  0.00  0.00    +0.381 C 
ATOM     14  N   UNL     1      10.071   1.277  23.327  0.00  0.00    -0.268 N 
ATOM     15  C   UNL     1      10.125   2.593  23.951  0.00  0.00    +0.242 C 
ATOM     16  C   UNL     1       9.890   1.338  21.875  0.00  0.00    +0.242 C 
ATOM     17  N   UNL     1      10.138   0.161  25.335  0.00  0.00    -0.289 N 
ATOM     18  H   UNL     1      10.915   0.752  25.596  0.00  0.00    +0.255 HD
ATOM     19  H   UNL     1      10.210  -0.727  25.810  0.00  0.00    +0.255 HD
ENDBRANCH  11  12
ENDBRANCH   1  11
TORSDOF 7
ENDMDL
MODEL 3
REMARK VINA RESULT:      -5.1      6.066      8.861
REMARK  Name = 
REMARK  9 active torsions:
REMARK  status: ('A' for Active; 'I' for Inactive)
REMARK    1  A    between atoms: N_1  and  CA_2
REMARK    2  A    between atoms: CA_2  and  C_4
REMARK    3  A    between atoms: CA_2  and  C_13
REMARK    4  A    between atoms: C_4  and  C_5
REMARK    5  A    between atoms: C_5  and  C_6
REMARK    6  A    between atoms: C_6  and  N_7
REMARK    7  A    between atoms: N_10  and  C_11
REMARK    8  A    between atoms: N_10  and  C_12
REMARK    9  A    between atoms: C_13  and  O_14
REMARK                            x       y       z     vdW  Elec       q    Type
REMARK                         _______ _______ _______ _____ _____    ______ ____
ROOT
ATOM      1  C   UNL     1       9.853   6.132  24.649  0.00  0.00    +0.043 C 
ENDROOT
BRANCH   1   2
ATOM      2  C   UNL     1      10.841   5.791  23.532  0.00  0.00    +0.033 C 
BRANCH   2   3
ATOM      3  CA  UNL     1      12.272   5.548  24.024  0.00  0.00    +0.161 C 
BRANCH   3   4
ATOM      4  N   UNL     1      12.783   6.687  24.847  0.00  0.00    -0.318 NA
ATOM      5  H1  UNL     1      12.488   7.563  24.403  0.00  0.00    +0.119 HD
ATOM      6  H2  UNL     1      12.260   6.683  25.730  0.00  0.00    +0.119 HD
ENDBRANCH   3   4
BRANCH   3   7
ATOM      7  C   UNL     1      13.211   5.365  22.814  0.00  0.00    +0.322 C 
ATOM      8  OXT UNL     1      12.892   5.503  21.644  0.00  0.00    -0.249 OA
BRANCH   7   9
ATOM      9  O   UNL     1      14.467   5.034  23.216  0.00  0.00    -0.480 OA
ATOM     10  H   UNL     1      14.441   4.054  23.362  0.00  0.00    +0.295 HD
ENDBRANCH   7   9
ENDBRANCH   3   7
ENDBRANCH   2   3
ENDBRANCH   1   2
BRANCH   1  11
ATOM     11  C   UNL     1       8.911   4.957  24.911  0.00  0.00    +0.243 C 
BRANCH  11  12
ATOM     12  N   UNL     1       9.283   3.866  24.022  0.00  0.00    -0.114 NA
ATOM     13  C   UNL     1       9.017   2.647  24.344  0.00  0.00    +0.381 C 
ATOM     14  N   UNL     1       9.333   1.598  23.506  0.00  0.00    -0.268 N 
ATOM     15  C   UNL     1       9.246   0.180  23.835  0.00  0.00    +0.242 C 
ATOM     16  C   UNL     1      10.023   1.850  22.239  0.00  0.00    +0.242 C 
ATOM     17  N   UNL     1       8.405   2.268  25.499  0.00  0.00    -0.289 N 
ATOM     18  H   UNL     1       7.676   1.584  25.347  0.00  0.00    +0.255 HD
ATOM     19  H   UNL     1       8.046   3.031  26.052  0.00  0.00    +0.255 HD
ENDBRANCH  11  12
ENDBRANCH   1  11
TORSDOF 7
ENDMDL
MODEL 4
REMARK VINA RESULT:      -5.0      1.793      2.247
REMARK  Name = 
REMARK  9 active torsions:
REMARK  status: ('A' for Active; 'I' for Inactive)
REMARK    1  A    between atoms: N_1  and  CA_2
REMARK    2  A    between atoms: CA_2  and  C_4
REMARK    3  A    between atoms: CA_2  and  C_13
REMARK    4  A    between atoms: C_4  and  C_5
REMARK    5  A    between atoms: C_5  and  C_6
REMARK    6  A    between atoms: C_6  and  N_7
REMARK    7  A    between atoms: N_10  and  C_11
REMARK    8  A    between atoms: N_10  and  C_12
REMARK    9  A    between atoms: C_13  and  O_14
REMARK                            x       y       z     vdW  Elec       q    Type
REMARK                         _______ _______ _______ _____ _____    ______ ____
ROOT
ATOM      1  C   UNL     1       8.449  -2.421  24.853  0.00  0.00    +0.043 C 
ENDROOT
BRANCH   1   2
ATOM      2  C   UNL     1       8.502  -3.279  26.119  0.00  0.00    +0.033 C 
BRANCH   2   3
ATOM      3  CA  UNL     1       8.056  -4.730  25.904  0.00  0.00    +0.161 C 
BRANCH   3   4
ATOM      4  N   UNL     1       8.127  -5.530  27.166  0.00  0.00    -0.318 NA
ATOM      5  H1  UNL     1       8.529  -6.446  26.943  0.00  0.00    +0.119 HD
ATOM      6  H2  UNL     1       8.842  -5.097  27.760  0.00  0.00    +0.119 HD
ENDBRANCH   3   4
BRANCH   3   7
ATOM      7  C   UNL     1       8.964  -5.400  24.854  0.00  0.00    +0.322 C 
ATOM      8  OXT UNL     1       8.645  -5.657  23.703  0.00  0.00    -0.249 OA
BRANCH   7   9
ATOM      9  O   UNL     1      10.193  -5.669  25.369  0.00  0.00    -0.480 OA
ATOM     10  H   UNL     1      10.105  -6.560  25.794  0.00  0.00    +0.295 HD
ENDBRANCH   7   9
ENDBRANCH   3   7
ENDBRANCH   2   3
ENDBRANCH   1   2
BRANCH   1  11
ATOM     11  C   UNL     1       9.860  -2.078  24.377  0.00  0.00    +0.243 C 
BRANCH  11  12
ATOM     12  N   UNL     1       9.779  -0.907  23.516  0.00  0.00    -0.114 NA
ATOM     13  C   UNL     1      10.149   0.248  23.954  0.00  0.00    +0.381 C 
ATOM     14  N   UNL     1      10.110   1.367  23.149  0.00  0.00    -0.268 N 
ATOM     15  C   UNL     1      10.330   2.742  23.580  0.00  0.00    +0.242 C 
ATOM     16  C   UNL     1       9.601   1.270  21.779  0.00  0.00    +0.242 C 
ATOM     17  N   UNL     1      10.618   0.485  25.210  0.00  0.00    -0.289 N 
ATOM     18  H   UNL     1      11.445   1.066  25.214  0.00  0.00    +0.255 HD
ATOM     19  H   UNL     1      10.781  -0.345  25.759  0.00  0.00    +0.255 HD
ENDBRANCH  11  12
ENDBRANCH   1  11
TORSDOF 7
ENDMDL
MODEL 5
REMARK VINA RESULT:      -5.0      2.863      4.611
REMARK  Name = 
REMARK  9 active torsions:
REMARK  status: ('A' for Active; 'I' for Inactive)
REMARK    1  A    between atoms: N_1  and  CA_2
REMARK    2  A    between atoms: CA_2  and  C_4
REMARK    3  A    between atoms: CA_2  and  C_13
REMARK    4  A    between atoms: C_4  and  C_5
REMARK    5  A    between atoms: C_5  and  C_6
REMARK    6  A    between atoms: C_6  and  N_7
REMARK    7  A    between atoms: N_10  and  C_11
REMARK    8  A    between atoms: N_10  and  C_12
REMARK    9  A    between atoms: C_13  and  O_14
REMARK                            x       y       z     vdW  Elec       q    Type
REMARK                         _______ _______ _______ _____ _____    ______ ____
ROOT
ATOM      1  C   UNL     1       9.456  -2.831  24.157  0.00  0.00    +0.043 C 
ENDROOT
BRANCH   1   2
ATOM      2  C   UNL     1       8.848  -3.147  25.525  0.00  0.00    +0.033 C 
BRANCH   2   3
ATOM      3  CA  UNL     1       9.078  -4.590  25.987  0.00  0.00    +0.161 C 
BRANCH   3   4
ATOM      4  N   UNL     1       9.611  -5.453  24.887  0.00  0.00    -0.318 NA
ATOM      5  H1  UNL     1       9.188  -5.147  24.005  0.00  0.00    +0.119 HD
ATOM      6  H2  UNL     1      10.602  -5.215  24.768  0.00  0.00    +0.119 HD
ENDBRANCH   3   4
BRANCH   3   7
ATOM      7  C   UNL     1       7.747  -5.196  26.475  0.00  0.00    +0.322 C 
ATOM      8  OXT UNL     1       6.656  -5.021  25.954  0.00  0.00    -0.249 OA
BRANCH   7   9
ATOM      9  O   UNL     1       7.937  -5.973  27.575  0.00  0.00    -0.480 OA
ATOM     10  H   UNL     1       7.227  -5.698  28.210  0.00  0.00    +0.295 HD
ENDBRANCH   7   9
ENDBRANCH   3   7
ENDBRANCH   2   3
ENDBRANCH   1   2
BRANCH   1  11
ATOM     11  C   UNL     1       8.360  -2.493  23.147  0.00  0.00    +0.243 C 
BRANCH  11  12
ATOM     12  N   UNL     1       7.764  -3.739  22.686  0.00  0.00    -0.114 NA
ATOM     13  C   UNL     1       6.519  -3.985  22.915  0.00  0.00    +0.381 C 
ATOM     14  N   UNL     1       5.923  -5.144  22.464  0.00  0.00    -0.268 N 
ATOM     15  C   UNL     1       4.586  -5.612  22.810  0.00  0.00    +0.242 C 
ATOM     16  C   UNL     1       6.713  -6.147  21.747  0.00  0.00    +0.242 C 
ATOM     17  N   UNL     1       5.677  -3.155  23.589  0.00  0.00    -0.289 N 
ATOM     18  H   UNL     1       4.784  -3.047  23.128  0.00  0.00    +0.255 HD
ATOM     19  H   UNL     1       6.064  -2.248  23.801  0.00  0.00    +0.255 HD
ENDBRANCH  11  12
ENDBRANCH   1  11
TORSDOF 7
ENDMDL
MODEL 6
REMARK VINA RESULT:      -4.9      3.123      6.061
REMARK  Name = 
REMARK  9 active torsions:
REMARK  status: ('A' for Active; 'I' for Inactive)
REMARK    1  A    between atoms: N_1  and  CA_2
REMARK    2  A    between atoms: CA_2  and  C_4
REMARK    3  A    between atoms: CA_2  and  C_13
REMARK    4  A    between atoms: C_4  and  C_5
REMARK    5  A    between atoms: C_5  and  C_6
REMARK    6  A    between atoms: C_6  and  N_7
REMARK    7  A    between atoms: N_10  and  C_11
REMARK    8  A    between atoms: N_10  and  C_12
REMARK    9  A    between atoms: C_13  and  O_14
REMARK                            x       y       z     vdW  Elec       q    Type
REMARK                         _______ _______ _______ _____ _____    ______ ____
ROOT
ATOM      1  C   UNL     1       9.071   0.623  21.528  0.00  0.00    +0.043 C 
ENDROOT
BRANCH   1   2
ATOM      2  C   UNL     1      10.017   1.754  21.937  0.00  0.00    +0.033 C 
BRANCH   2   3
ATOM      3  CA  UNL     1       9.609   2.465  23.233  0.00  0.00    +0.161 C 
BRANCH   3   4
ATOM      4  N   UNL     1      10.347   3.754  23.420  0.00  0.00    -0.318 NA
ATOM      5  H1  UNL     1       9.658   4.504  23.532  0.00  0.00    +0.119 HD
ATOM      6  H2  UNL     1      10.801   3.712  24.339  0.00  0.00    +0.119 HD
ENDBRANCH   3   4
BRANCH   3   7
ATOM      7  C   UNL     1       9.910   1.555  24.440  0.00  0.00    +0.322 C 
ATOM      8  OXT UNL     1      10.906   0.860  24.571  0.00  0.00    -0.249 OA
BRANCH   7   9
ATOM      9  O   UNL     1       8.918   1.627  25.367  0.00  0.00    -0.480 OA
ATOM     10  H   UNL     1       8.993   2.537  25.753  0.00  0.00    +0.295 HD
ENDBRANCH   7   9
ENDBRANCH   3   7
ENDBRANCH   2   3
ENDBRANCH   1   2
BRANCH   1  11
ATOM     11  C   UNL     1       9.806  -0.717  21.523  0.00  0.00    +0.243 C 
BRANCH  11  12
ATOM     12  N   UNL     1       8.862  -1.758  21.900  0.00  0.00    -0.114 NA
ATOM     13  C   UNL     1       8.963  -2.343  23.045  0.00  0.00    +0.381 C 
ATOM     14  N   UNL     1       8.063  -3.311  23.438  0.00  0.00    -0.268 N 
ATOM     15  C   UNL     1       8.177  -4.160  24.618  0.00  0.00    +0.242 C 
ATOM     16  C   UNL     1       6.990  -3.728  22.534  0.00  0.00    +0.242 C 
ATOM     17  N   UNL     1       9.924  -2.072  23.969  0.00  0.00    -0.289 N 
ATOM     18  H   UNL     1       9.552  -1.980  24.904  0.00  0.00    +0.255 HD
ATOM     19  H   UNL     1      10.501  -1.273  23.752  0.00  0.00    +0.255 HD
ENDBRANCH  11  12
ENDBRANCH   1  11
TORSDOF 7
ENDMDL
MODEL 7
REMARK VINA RESULT:      -4.9      1.444      1.497
REMARK  Name = 
REMARK  9 active torsions:
REMARK  status: ('A' for Active; 'I' for Inactive)
REMARK    1  A    between atoms: N_1  and  CA_2
REMARK    2  A    between atoms: CA_2  and  C_4
REMARK    3  A    between atoms: CA_2  and  C_13
REMARK    4  A    between atoms: C_4  and  C_5
REMARK    5  A    between atoms: C_5  and  C_6
REMARK    6  A    between atoms: C_6  and  N_7
REMARK    7  A    between atoms: N_10  and  C_11
REMARK    8  A    between atoms: N_10  and  C_12
REMARK    9  A    between atoms: C_13  and  O_14
REMARK                            x       y       z     vdW  Elec       q    Type
REMARK                         _______ _______ _______ _____ _____    ______ ____
ROOT
ATOM      1  C   UNL     1       7.457  -3.917  23.310  0.00  0.00    +0.043 C 
ENDROOT
BRANCH   1   2
ATOM      2  C   UNL     1       8.092  -5.098  24.047  0.00  0.00    +0.033 C 
BRANCH   2   3
ATOM      3  CA  UNL     1       8.993  -4.686  25.217  0.00  0.00    +0.161 C 
BRANCH   3   4
ATOM      4  N   UNL     1      10.200  -5.563  25.331  0.00  0.00    -0.318 NA
ATOM      5  H1  UNL     1      10.999  -5.063  24.930  0.00  0.00    +0.119 HD
ATOM      6  H2  UNL     1      10.437  -5.626  26.327  0.00  0.00    +0.119 HD
ENDBRANCH   3   4
BRANCH   3   7
ATOM      7  C   UNL     1       8.201  -4.779  26.537  0.00  0.00    +0.322 C 
ATOM      8  OXT UNL     1       7.684  -3.839  27.120  0.00  0.00    -0.249 OA
BRANCH   7   9
ATOM      9  O   UNL     1       8.138  -6.062  26.981  0.00  0.00    -0.480 OA
ATOM     10  H   UNL     1       8.076  -5.991  27.968  0.00  0.00    +0.295 HD
ENDBRANCH   7   9
ENDBRANCH   3   7
ENDBRANCH   2   3
ENDBRANCH   1   2
BRANCH   1  11
ATOM     11  C   UNL     1       8.532  -2.947  22.821  0.00  0.00    +0.243 C 
BRANCH  11  12
ATOM     12  N   UNL     1       7.999  -1.595  22.904  0.00  0.00    -0.114 NA
ATOM     13  C   UNL     1       8.557  -0.636  22.247  0.00  0.00    +0.381 C 
ATOM     14  N   UNL     1       8.055   0.648  22.286  0.00  0.00    -0.268 N 
ATOM     15  C   UNL     1       8.694   1.837  21.736  0.00  0.00    +0.242 C 
ATOM     16  C   UNL     1       6.891   0.957  23.119  0.00  0.00    +0.242 C 
ATOM     17  N   UNL     1       9.656  -0.777  21.457  0.00  0.00    -0.289 N 
ATOM     18  H   UNL     1       9.558  -0.310  20.566  0.00  0.00    +0.255 HD
ATOM     19  H   UNL     1       9.947  -1.732  21.311  0.00  0.00    +0.255 HD
ENDBRANCH  11  12
ENDBRANCH   1  11
TORSDOF 7
ENDMDL
MODEL 8
REMARK VINA RESULT:      -4.8      2.218      2.855
REMARK  Name = 
REMARK  9 active torsions:
REMARK  status: ('A' for Active; 'I' for Inactive)
REMARK    1  A    between atoms: N_1  and  CA_2
REMARK    2  A    between atoms: CA_2  and  C_4
REMARK    3  A    between atoms: CA_2  and  C_13
REMARK    4  A    between atoms: C_4  and  C_5
REMARK    5  A    between atoms: C_5  and  C_6
REMARK    6  A    between atoms: C_6  and  N_7
REMARK    7  A    between atoms: N_10  and  C_11
REMARK    8  A    between atoms: N_10  and  C_12
REMARK    9  A    between atoms: C_13  and  O_14
REMARK                            x       y       z     vdW  Elec       q    Type
REMARK                         _______ _______ _______ _____ _____    ______ ____
ROOT
ATOM      1  C   UNL     1       6.221  -3.479  26.096  0.00  0.00    +0.043 C 
ENDROOT
BRANCH   1   2
ATOM      2  C   UNL     1       6.756  -4.865  25.733  0.00  0.00    +0.033 C 
BRANCH   2   3
ATOM      3  CA  UNL     1       8.193  -5.118  26.204  0.00  0.00    +0.161 C 
BRANCH   3   4
ATOM      4  N   UNL     1       8.763  -3.936  26.923  0.00  0.00    -0.318 NA
ATOM      5  H1  UNL     1       9.264  -4.275  27.750  0.00  0.00    +0.119 HD
ATOM      6  H2  UNL     1       9.510  -3.554  26.334  0.00  0.00    +0.119 HD
ENDBRANCH   3   4
BRANCH   3   7
ATOM      7  C   UNL     1       9.090  -5.423  24.988  0.00  0.00    +0.322 C 
ATOM      8  OXT UNL     1       8.711  -5.497  23.829  0.00  0.00    -0.249 OA
BRANCH   7   9
ATOM      9  O   UNL     1      10.385  -5.595  25.366  0.00  0.00    -0.480 OA
ATOM     10  H   UNL     1      10.827  -6.015  24.585  0.00  0.00    +0.295 HD
ENDBRANCH   7   9
ENDBRANCH   3   7
ENDBRANCH   2   3
ENDBRANCH   1   2
BRANCH   1  11
ATOM     11  C   UNL     1       6.168  -2.582  24.859  0.00  0.00    +0.243 C 
BRANCH  11  12
ATOM     12  N   UNL     1       7.433  -1.870  24.756  0.00  0.00    -0.114 NA
ATOM     13  C   UNL     1       8.174  -2.011  23.710  0.00  0.00    +0.381 C 
ATOM     14  N   UNL     1       9.363  -1.326  23.575  0.00  0.00    -0.268 N 
ATOM     15  C   UNL     1      10.362  -1.536  22.534  0.00  0.00    +0.242 C 
ATOM     16  C   UNL     1       9.832  -0.448  24.649  0.00  0.00    +0.242 C 
ATOM     17  N   UNL     1       7.873  -2.812  22.651  0.00  0.00    -0.289 N 
ATOM     18  H   UNL     1       8.026  -2.356  21.762  0.00  0.00    +0.255 HD
ATOM     19  H   UNL     1       6.946  -3.208  22.676  0.00  0.00    +0.255 HD
ENDBRANCH  11  12
ENDBRANCH   1  11
TORSDOF 7
ENDMDL
MODEL 9
REMARK VINA RESULT:      -4.8      3.100      6.008
REMARK  Name = 
REMARK  9 active torsions:
REMARK  status: ('A' for Active; 'I' for Inactive)
REMARK    1  A    between atoms: N_1  and  CA_2
REMARK    2  A    between atoms: CA_2  and  C_4
REMARK    3  A    between atoms: CA_2  and  C_13
REMARK    4  A    between atoms: C_4  and  C_5
REMARK    5  A    between atoms: C_5  and  C_6
REMARK    6  A    between atoms: C_6  and  N_7
REMARK    7  A    between atoms: N_10  and  C_11
REMARK    8  A    between atoms: N_10  and  C_12
REMARK    9  A    between atoms: C_13  and  O_14
REMARK                            x       y       z     vdW  Elec       q    Type
REMARK                         _______ _______ _______ _____ _____    ______ ____
ROOT
ATOM      1  C   UNL     1      10.071  -0.064  24.402  0.00  0.00    +0.043 C 
ENDROOT
BRANCH   1   2
ATOM      2  C   UNL     1       9.370   1.183  23.860  0.00  0.00    +0.033 C 
BRANCH   2   3
ATOM      3  CA  UNL     1       8.842   1.024  22.429  0.00  0.00    +0.161 C 
BRANCH   3   4
ATOM      4  N   UNL     1       9.482   1.993  21.485  0.00  0.00    -0.318 NA
ATOM      5  H1  UNL     1       8.930   2.012  20.621  0.00  0.00    +0.119 HD
ATOM      6  H2  UNL     1       9.342   2.932  21.874  0.00  0.00    +0.119 HD
ENDBRANCH   3   4
BRANCH   3   7
ATOM      7  C   UNL     1       7.319   1.263  22.410  0.00  0.00    +0.322 C 
ATOM      8  OXT UNL     1       6.769   2.298  22.067  0.00  0.00    -0.249 OA
BRANCH   7   9
ATOM      9  O   UNL     1       6.645   0.156  22.820  0.00  0.00    -0.480 OA
ATOM     10  H   UNL     1       6.203  -0.193  22.004  0.00  0.00    +0.295 HD
ENDBRANCH   7   9
ENDBRANCH   3   7
ENDBRANCH   2   3
ENDBRANCH   1   2
BRANCH   1  11
ATOM     11  C   UNL     1      10.158  -1.144  23.325  0.00  0.00    +0.243 C 
BRANCH  11  12
ATOM     12  N   UNL     1       9.840  -2.426  23.937  0.00  0.00    -0.114 NA
ATOM     13  C   UNL     1       8.767  -3.058  23.601  0.00  0.00    +0.381 C 
ATOM     14  N   UNL     1       8.458  -4.287  24.144  0.00  0.00    -0.268 N 
ATOM     15  C   UNL     1       7.201  -5.007  23.980  0.00  0.00    +0.242 C 
ATOM     16  C   UNL     1       9.332  -4.884  25.157  0.00  0.00    +0.242 C 
ATOM     17  N   UNL     1       7.857  -2.608  22.694  0.00  0.00    -0.289 N 
ATOM     18  H   UNL     1       7.571  -3.325  22.041  0.00  0.00    +0.255 HD
ATOM     19  H   UNL     1       8.141  -1.782  22.191  0.00  0.00    +0.255 HD
ENDBRANCH  11  12
ENDBRANCH   1  11
TORSDOF 7
ENDMDL
