MODEL 1
REMARK VINA RESULT:      -7.2      0.000      0.000
REMARK  Name = 
REMARK  8 active torsions:
REMARK  status: ('A' for Active; 'I' for Inactive)
REMARK    1  A    between atoms: O_1  and  C_2
REMARK    2  A    between atoms: C_4  and  C_6
REMARK    3  A    between atoms: C_6  and  O_7
REMARK    4  A    between atoms: O_7  and  P_8
REMARK    5  A    between atoms: P_8  and  O_9
REMARK    6  A    between atoms: P_8  and  O_10
REMARK    7  A    between atoms: C_13  and  N_18
REMARK    8  A    between atoms: C_15  and  O_17
REMARK                            x       y       z     vdW  Elec       q    Type
REMARK                         _______ _______ _______ _____ _____    ______ ____
ROOT
ATOM      1  C   UNL     1       8.183  -5.417  25.914  0.00  0.00    +0.178 C 
ATOM      2  C   UNL     1       9.342  -4.541  25.448  0.00  0.00    +0.195 C 
ATOM      3  C   UNL     1       8.742  -3.721  24.293  0.00  0.00    +0.252 C 
ATOM      4  O   UNL     1       7.323  -3.994  24.241  0.00  0.00    -0.346 OA
ATOM      5  C   UNL     1       6.966  -4.610  25.482  0.00  0.00    +0.178 C 
ENDROOT
BRANCH   3   6
ATOM      6  N   UNL     1       8.941  -2.287  24.465  0.00  0.00    -0.301 N 
ATOM      7  C   UNL     1       9.199  -1.366  23.468  0.00  0.00    +0.071 A 
ATOM      8  C   UNL     1       9.306  -1.446  22.075  0.00  0.00    +0.028 A 
ATOM      9  C   UNL     1       9.587  -0.257  21.387  0.00  0.00    +0.002 A 
ATOM     10  C   UNL     1       9.766   0.954  22.065  0.00  0.00    +0.002 A 
ATOM     11  C   UNL     1       9.658   1.013  23.456  0.00  0.00    +0.030 A 
ATOM     12  C   UNL     1       9.368  -0.165  24.162  0.00  0.00    +0.089 A 
ATOM     13  N   UNL     1       9.208  -0.340  25.508  0.00  0.00    -0.236 NA
ATOM     14  C   UNL     1       8.927  -1.611  25.656  0.00  0.00    +0.202 A 
ENDBRANCH   3   6
BRANCH   1  15
ATOM     15  O   UNL     1       8.234  -5.619  27.324  0.00  0.00    -0.386 OA
ATOM     16  H   UNL     1       8.062  -4.760  27.750  0.00  0.00    +0.210 HD
ENDBRANCH   1  15
BRANCH   2  17
ATOM     17  O   UNL     1      10.422  -5.373  25.003  0.00  0.00    -0.385 OA
ATOM     18  H   UNL     1      11.221  -4.817  24.956  0.00  0.00    +0.210 HD
ENDBRANCH   2  17
BRANCH   5  19
ATOM     19  C   UNL     1       5.702  -5.445  25.333  0.00  0.00    +0.206 C 
BRANCH  19  20
ATOM     20  O   UNL     1       5.780  -6.508  26.264  0.00  0.00    -0.284 OA
BRANCH  20  21
ATOM     21  P   UNL     1       4.707  -6.548  27.442  0.00  0.00    +0.472 P 
ATOM     22  O   UNL     1       4.344  -5.277  28.120  0.00  0.00    -0.228 OA
BRANCH  21  23
ATOM     23  O   UNL     1       5.378  -7.619  28.419  0.00  0.00    -0.303 OA
ATOM     24  H   UNL     1       5.170  -8.526  28.123  0.00  0.00    +0.222 HD
ENDBRANCH  21  23
BRANCH  21  25
ATOM     25  O   UNL     1       3.525  -7.435  26.848  0.00  0.00    -0.303 OA
ATOM     26  H   UNL     1       2.929  -6.884  26.310  0.00  0.00    +0.222 HD
ENDBRANCH  21  25
ENDBRANCH  20  21
ENDBRANCH  19  20
ENDBRANCH   5  19
TORSDOF 8
ENDMDL
MODEL 2
REMARK VINA RESULT:      -7.1      1.741      2.248
REMARK  Name = 
REMARK  8 active torsions:
REMARK  status: ('A' for Active; 'I' for Inactive)
REMARK    1  A    between atoms: O_1  and  C_2
REMARK    2  A    between atoms: C_4  and  C_6
REMARK    3  A    between atoms: C_6  and  O_7
REMARK    4  A    between atoms: O_7  and  P_8
REMARK    5  A    between atoms: P_8  and  O_9
REMARK    6  A    between atoms: P_8  and  O_10
REMARK    7  A    between atoms: C_13  and  N_18
REMARK    8  A    between atoms: C_15  and  O_17
REMARK                            x       y       z     vdW  Elec       q    Type
REMARK                         _______ _______ _______ _____ _____    ______ ____
ROOT
ATOM      1  C   UNL     1       8.095  -5.476  25.915  0.00  0.00    +0.178 C 
ATOM      2  C   UNL     1       9.239  -4.581  25.448  0.00  0.00    +0.195 C 
ATOM      3  C   UNL     1       8.628  -3.777  24.287  0.00  0.00    +0.252 C 
ATOM      4  O   UNL     1       7.214  -4.076  24.234  0.00  0.00    -0.346 OA
ATOM      5  C   UNL     1       6.865  -4.692  25.477  0.00  0.00    +0.178 C 
ENDROOT
BRANCH   3   6
ATOM      6  N   UNL     1       8.801  -2.339  24.453  0.00  0.00    -0.301 N 
ATOM      7  C   UNL     1       9.088  -1.424  23.459  0.00  0.00    +0.071 A 
ATOM      8  C   UNL     1       9.253  -1.516  22.071  0.00  0.00    +0.028 A 
ATOM      9  C   UNL     1       9.547  -0.330  21.384  0.00  0.00    +0.002 A 
ATOM     10  C   UNL     1       9.682   0.890  22.056  0.00  0.00    +0.002 A 
ATOM     11  C   UNL     1       9.517   0.960  23.441  0.00  0.00    +0.030 A 
ATOM     12  C   UNL     1       9.213  -0.214  24.146  0.00  0.00    +0.089 A 
ATOM     13  N   UNL     1       9.000  -0.379  25.487  0.00  0.00    -0.236 NA
ATOM     14  C   UNL     1       8.729  -1.652  25.635  0.00  0.00    +0.202 A 
ENDBRANCH   3   6
BRANCH   1  15
ATOM     15  O   UNL     1       8.146  -5.670  27.326  0.00  0.00    -0.386 OA
ATOM     16  H   UNL     1       8.748  -6.417  27.499  0.00  0.00    +0.210 HD
ENDBRANCH   1  15
BRANCH   2  17
ATOM     17  O   UNL     1      10.336  -5.396  25.009  0.00  0.00    -0.385 OA
ATOM     18  H   UNL     1      10.974  -4.813  24.560  0.00  0.00    +0.210 HD
ENDBRANCH   2  17
BRANCH   5  19
ATOM     19  C   UNL     1       5.617  -5.550  25.329  0.00  0.00    +0.206 C 
BRANCH  19  20
ATOM     20  O   UNL     1       4.736  -4.875  24.450  0.00  0.00    -0.284 OA
BRANCH  20  21
ATOM     21  P   UNL     1       4.173  -5.680  23.196  0.00  0.00    +0.472 P 
ATOM     22  O   UNL     1       2.734  -5.551  22.852  0.00  0.00    -0.228 OA
BRANCH  21  23
ATOM     23  O   UNL     1       4.603  -7.170  23.581  0.00  0.00    -0.303 OA
ATOM     24  H   UNL     1       4.190  -7.435  24.424  0.00  0.00    +0.222 HD
ENDBRANCH  21  23
BRANCH  21  25
ATOM     25  O   UNL     1       5.238  -5.386  22.048  0.00  0.00    -0.303 OA
ATOM     26  H   UNL     1       4.879  -4.740  21.414  0.00  0.00    +0.222 HD
ENDBRANCH  21  25
ENDBRANCH  20  21
ENDBRANCH  19  20
ENDBRANCH   5  19
TORSDOF 8
ENDMDL
MODEL 3
REMARK VINA RESULT:      -6.7      2.374      3.303
REMARK  Name = 
REMARK  8 active torsions:
REMARK  status: ('A' for Active; 'I' for Inactive)
REMARK    1  A    between atoms: O_1  and  C_2
REMARK    2  A    between atoms: C_4  and  C_6
REMARK    3  A    between atoms: C_6  and  O_7
REMARK    4  A    between atoms: O_7  and  P_8
REMARK    5  A    between atoms: P_8  and  O_9
REMARK    6  A    between atoms: P_8  and  O_10
REMARK    7  A    between atoms: C_13  and  N_18
REMARK    8  A    between atoms: C_15  and  O_17
REMARK                            x       y       z     vdW  Elec       q    Type
REMARK                         _______ _______ _______ _____ _____    ______ ____
ROOT
ATOM      1  C   UNL     1       7.376  -3.258  25.394  0.00  0.00    +0.178 C 
ATOM      2  C   UNL     1       8.227  -1.992  25.344  0.00  0.00    +0.195 C 
ATOM      3  C   UNL     1       9.358  -2.347  24.364  0.00  0.00    +0.252 C 
ATOM      4  O   UNL     1       9.058  -3.638  23.785  0.00  0.00    -0.346 OA
ATOM      5  C   UNL     1       7.679  -3.910  24.051  0.00  0.00    +0.178 C 
ENDROOT
BRANCH   3   6
ATOM      6  N   UNL     1       9.495  -1.369  23.291  0.00  0.00    -0.301 N 
ATOM      7  C   UNL     1       9.831  -0.036  23.430  0.00  0.00    +0.071 A 
ATOM      8  C   UNL     1      10.174   0.771  24.521  0.00  0.00    +0.028 A 
ATOM      9  C   UNL     1      10.457   2.118  24.253  0.00  0.00    +0.002 A 
ATOM     10  C   UNL     1      10.386   2.635  22.956  0.00  0.00    +0.002 A 
ATOM     11  C   UNL     1      10.039   1.815  21.881  0.00  0.00    +0.030 A 
ATOM     12  C   UNL     1       9.761   0.461  22.126  0.00  0.00    +0.089 A 
ATOM     13  N   UNL     1       9.415  -0.518  21.237  0.00  0.00    -0.236 NA
ATOM     14  C   UNL     1       9.289  -1.605  21.958  0.00  0.00    +0.202 A 
ENDBRANCH   3   6
BRANCH   1  15
ATOM     15  O   UNL     1       5.995  -2.935  25.546  0.00  0.00    -0.386 OA
ATOM     16  H   UNL     1       5.662  -3.428  26.317  0.00  0.00    +0.210 HD
ENDBRANCH   1  15
BRANCH   2  17
ATOM     17  O   UNL     1       8.732  -1.703  26.655  0.00  0.00    -0.385 OA
ATOM     18  H   UNL     1       8.528  -2.467  27.224  0.00  0.00    +0.210 HD
ENDBRANCH   2  17
BRANCH   5  19
ATOM     19  C   UNL     1       7.403  -5.407  24.026  0.00  0.00    +0.206 C 
BRANCH  19  20
ATOM     20  O   UNL     1       6.040  -5.596  24.354  0.00  0.00    -0.284 OA
BRANCH  20  21
ATOM     21  P   UNL     1       5.045  -6.026  23.187  0.00  0.00    +0.472 P 
ATOM     22  O   UNL     1       4.001  -5.064  22.749  0.00  0.00    -0.228 OA
BRANCH  21  23
ATOM     23  O   UNL     1       4.447  -7.380  23.788  0.00  0.00    -0.303 OA
ATOM     24  H   UNL     1       3.606  -7.605  23.348  0.00  0.00    +0.222 HD
ENDBRANCH  21  23
BRANCH  21  25
ATOM     25  O   UNL     1       6.007  -6.633  22.072  0.00  0.00    -0.303 OA
ATOM     26  H   UNL     1       6.216  -7.561  22.277  0.00  0.00    +0.222 HD
ENDBRANCH  21  25
ENDBRANCH  20  21
ENDBRANCH  19  20
ENDBRANCH   5  19
TORSDOF 8
ENDMDL
MODEL 4
REMARK VINA RESULT:      -6.6      4.586      7.656
REMARK  Name = 
REMARK  8 active torsions:
REMARK  status: ('A' for Active; 'I' for Inactive)
REMARK    1  A    between atoms: O_1  and  C_2
REMARK    2  A    between atoms: C_4  and  C_6
REMARK    3  A    between atoms: C_6  and  O_7
REMARK    4  A    between atoms: O_7  and  P_8
REMARK    5  A    between atoms: P_8  and  O_9
REMARK    6  A    between atoms: P_8  and  O_10
REMARK    7  A    between atoms: C_13  and  N_18
REMARK    8  A    between atoms: C_15  and  O_17
REMARK                            x       y       z     vdW  Elec       q    Type
REMARK                         _______ _______ _______ _____ _____    ______ ____
ROOT
ATOM      1  C   UNL     1       9.265  -1.031  22.782  0.00  0.00    +0.178 C 
ATOM      2  C   UNL     1       8.960  -2.499  23.065  0.00  0.00    +0.195 C 
ATOM      3  C   UNL     1       7.684  -2.451  23.924  0.00  0.00    +0.252 C 
ATOM      4  O   UNL     1       7.224  -1.081  23.964  0.00  0.00    -0.346 OA
ATOM      5  C   UNL     1       7.894  -0.379  22.912  0.00  0.00    +0.178 C 
ENDROOT
BRANCH   3   6
ATOM      6  N   UNL     1       6.619  -3.291  23.390  0.00  0.00    -0.301 N 
ATOM      7  C   UNL     1       6.039  -4.380  24.011  0.00  0.00    +0.071 A 
ATOM      8  C   UNL     1       6.202  -4.986  25.263  0.00  0.00    +0.028 A 
ATOM      9  C   UNL     1       5.407  -6.108  25.536  0.00  0.00    +0.002 A 
ATOM     10  C   UNL     1       4.500  -6.608  24.595  0.00  0.00    +0.002 A 
ATOM     11  C   UNL     1       4.355  -5.991  23.351  0.00  0.00    +0.030 A 
ATOM     12  C   UNL     1       5.134  -4.861  23.061  0.00  0.00    +0.089 A 
ATOM     13  N   UNL     1       5.151  -4.100  21.926  0.00  0.00    -0.236 NA
ATOM     14  C   UNL     1       6.028  -3.154  22.163  0.00  0.00    +0.202 A 
ENDBRANCH   3   6
BRANCH   1  15
ATOM     15  O   UNL     1       9.826  -0.871  21.482  0.00  0.00    -0.386 OA
ATOM     16  H   UNL     1       9.914   0.085  21.315  0.00  0.00    +0.210 HD
ENDBRANCH   1  15
BRANCH   2  17
ATOM     17  O   UNL     1      10.057  -3.087  23.778  0.00  0.00    -0.385 OA
ATOM     18  H   UNL     1       9.857  -4.033  23.896  0.00  0.00    +0.210 HD
ENDBRANCH   2  17
BRANCH   5  19
ATOM     19  C   UNL     1       7.955   1.113  23.203  0.00  0.00    +0.206 C 
BRANCH  19  20
ATOM     20  O   UNL     1       9.262   1.407  23.660  0.00  0.00    -0.284 OA
BRANCH  20  21
ATOM     21  P   UNL     1      10.043   2.609  22.964  0.00  0.00    +0.472 P 
ATOM     22  O   UNL     1      11.264   3.142  23.620  0.00  0.00    -0.228 OA
BRANCH  21  23
ATOM     23  O   UNL     1       8.872   3.687  22.831  0.00  0.00    -0.303 OA
ATOM     24  H   UNL     1       9.144   4.536  23.227  0.00  0.00    +0.222 HD
ENDBRANCH  21  23
BRANCH  21  25
ATOM     25  O   UNL     1      10.158   2.154  21.442  0.00  0.00    -0.303 OA
ATOM     26  H   UNL     1      10.852   1.478  21.343  0.00  0.00    +0.222 HD
ENDBRANCH  21  25
ENDBRANCH  20  21
ENDBRANCH  19  20
ENDBRANCH   5  19
TORSDOF 8
ENDMDL
MODEL 5
REMARK VINA RESULT:      -6.5      4.589      7.060
REMARK  Name = 
REMARK  8 active torsions:
REMARK  status: ('A' for Active; 'I' for Inactive)
REMARK    1  A    between atoms: O_1  and  C_2
REMARK    2  A    between atoms: C_4  and  C_6
REMARK    3  A    between atoms: C_6  and  O_7
REMARK    4  A    between atoms: O_7  and  P_8
REMARK    5  A    between atoms: P_8  and  O_9
REMARK    6  A    between atoms: P_8  and  O_10
REMARK    7  A    between atoms: C_13  and  N_18
REMARK    8  A    between atoms: C_15  and  O_17
REMARK                            x       y       z     vdW  Elec       q    Type
REMARK                         _______ _______ _______ _____ _____    ______ ____
ROOT
ATOM      1  C   UNL     1       8.759  -0.329  26.109  0.00  0.00    +0.178 C 
ATOM      2  C   UNL     1       7.690  -1.373  25.802  0.00  0.00    +0.195 C 
ATOM      3  C   UNL     1       7.862  -1.643  24.297  0.00  0.00    +0.252 C 
ATOM      4  O   UNL     1       9.042  -0.938  23.849  0.00  0.00    -0.346 OA
ATOM      5  C   UNL     1       9.789  -0.580  25.016  0.00  0.00    +0.178 C 
ENDROOT
BRANCH   3   6
ATOM      6  N   UNL     1       8.017  -3.062  23.999  0.00  0.00    -0.301 N 
ATOM      7  C   UNL     1       7.360  -3.773  23.014  0.00  0.00    +0.071 A 
ATOM      8  C   UNL     1       6.440  -3.430  22.016  0.00  0.00    +0.028 A 
ATOM      9  C   UNL     1       5.986  -4.463  21.184  0.00  0.00    +0.002 A 
ATOM     10  C   UNL     1       6.424  -5.781  21.351  0.00  0.00    +0.002 A 
ATOM     11  C   UNL     1       7.339  -6.105  22.355  0.00  0.00    +0.030 A 
ATOM     12  C   UNL     1       7.812  -5.083  23.193  0.00  0.00    +0.089 A 
ATOM     13  N   UNL     1       8.708  -5.165  24.222  0.00  0.00    -0.236 NA
ATOM     14  C   UNL     1       8.831  -3.938  24.666  0.00  0.00    +0.202 A 
ENDBRANCH   3   6
BRANCH   1  15
ATOM     15  O   UNL     1       9.293  -0.519  27.417  0.00  0.00    -0.386 OA
ATOM     16  H   UNL     1       8.562  -0.408  28.052  0.00  0.00    +0.210 HD
ENDBRANCH   1  15
BRANCH   2  17
ATOM     17  O   UNL     1       6.395  -0.834  26.099  0.00  0.00    -0.385 OA
ATOM     18  H   UNL     1       6.413   0.114  25.880  0.00  0.00    +0.210 HD
ENDBRANCH   2  17
BRANCH   5  19
ATOM     19  C   UNL     1      10.690   0.616  24.741  0.00  0.00    +0.206 C 
BRANCH  19  20
ATOM     20  O   UNL     1      10.545   0.955  23.374  0.00  0.00    -0.284 OA
BRANCH  20  21
ATOM     21  P   UNL     1       9.817   2.326  23.019  0.00  0.00    +0.472 P 
ATOM     22  O   UNL     1       8.591   2.700  23.772  0.00  0.00    -0.228 OA
BRANCH  21  23
ATOM     23  O   UNL     1       9.565   2.133  21.454  0.00  0.00    -0.303 OA
ATOM     24  H   UNL     1      10.246   2.608  20.939  0.00  0.00    +0.222 HD
ENDBRANCH  21  23
BRANCH  21  25
ATOM     25  O   UNL     1      11.005   3.385  22.968  0.00  0.00    -0.303 OA
ATOM     26  H   UNL     1      11.747   3.033  22.444  0.00  0.00    +0.222 HD
ENDBRANCH  21  25
ENDBRANCH  20  21
ENDBRANCH  19  20
ENDBRANCH   5  19
TORSDOF 8
ENDMDL
MODEL 6
REMARK VINA RESULT:      -6.5      2.537      3.913
REMARK  Name = 
REMARK  8 active torsions:
REMARK  status: ('A' for Active; 'I' for Inactive)
REMARK    1  A    between atoms: O_1  and  C_2
REMARK    2  A    between atoms: C_4  and  C_6
REMARK    3  A    between atoms: C_6  and  O_7
REMARK    4  A    between atoms: O_7  and  P_8
REMARK    5  A    between atoms: P_8  and  O_9
REMARK    6  A    between atoms: P_8  and  O_10
REMARK    7  A    between atoms: C_13  and  N_18
REMARK    8  A    between atoms: C_15  and  O_17
REMARK                            x       y       z     vdW  Elec       q    Type
REMARK                         _______ _______ _______ _____ _____    ______ ____
ROOT
ATOM      1  C   UNL     1       9.113  -2.638  23.632  0.00  0.00    +0.178 C 
ATOM      2  C   UNL     1       9.594  -1.496  22.741  0.00  0.00    +0.195 C 
ATOM      3  C   UNL     1       8.584  -0.367  23.013  0.00  0.00    +0.252 C 
ATOM      4  O   UNL     1       7.723  -0.789  24.095  0.00  0.00    -0.346 OA
ATOM      5  C   UNL     1       8.359  -1.901  24.732  0.00  0.00    +0.178 C 
ENDROOT
BRANCH   3   6
ATOM      6  N   UNL     1       9.234   0.884  23.386  0.00  0.00    -0.301 N 
ATOM      7  C   UNL     1       8.685   2.150  23.317  0.00  0.00    +0.071 A 
ATOM      8  C   UNL     1       7.428   2.645  22.951  0.00  0.00    +0.028 A 
ATOM      9  C   UNL     1       7.248   4.034  23.012  0.00  0.00    +0.002 A 
ATOM     10  C   UNL     1       8.283   4.889  23.409  0.00  0.00    +0.002 A 
ATOM     11  C   UNL     1       9.531   4.375  23.767  0.00  0.00    +0.030 A 
ATOM     12  C   UNL     1       9.728   2.987  23.722  0.00  0.00    +0.089 A 
ATOM     13  N   UNL     1      10.850   2.270  24.034  0.00  0.00    -0.236 NA
ATOM     14  C   UNL     1      10.515   1.016  23.851  0.00  0.00    +0.202 A 
ENDBRANCH   3   6
BRANCH   1  15
ATOM     15  O   UNL     1      10.215  -3.389  24.133  0.00  0.00    -0.386 OA
ATOM     16  H   UNL     1      11.018  -2.851  24.009  0.00  0.00    +0.210 HD
ENDBRANCH   1  15
BRANCH   2  17
ATOM     17  O   UNL     1       9.564  -1.914  21.370  0.00  0.00    -0.385 OA
ATOM     18  H   UNL     1      10.486  -2.031  21.078  0.00  0.00    +0.210 HD
ENDBRANCH   2  17
BRANCH   5  19
ATOM     19  C   UNL     1       7.341  -2.769  25.459  0.00  0.00    +0.206 C 
BRANCH  19  20
ATOM     20  O   UNL     1       8.037  -3.510  26.444  0.00  0.00    -0.284 OA
BRANCH  20  21
ATOM     21  P   UNL     1       7.842  -5.091  26.463  0.00  0.00    +0.472 P 
ATOM     22  O   UNL     1       7.452  -5.746  27.737  0.00  0.00    -0.228 OA
BRANCH  21  23
ATOM     23  O   UNL     1       9.262  -5.572  25.911  0.00  0.00    -0.303 OA
ATOM     24  H   UNL     1       9.796  -4.805  25.632  0.00  0.00    +0.222 HD
ENDBRANCH  21  23
BRANCH  21  25
ATOM     25  O   UNL     1       6.947  -5.379  25.177  0.00  0.00    -0.303 OA
ATOM     26  H   UNL     1       7.438  -5.153  24.367  0.00  0.00    +0.222 HD
ENDBRANCH  21  25
ENDBRANCH  20  21
ENDBRANCH  19  20
ENDBRANCH   5  19
TORSDOF 8
ENDMDL
MODEL 7
REMARK VINA RESULT:      -6.5      2.156      3.142
REMARK  Name = 
REMARK  8 active torsions:
REMARK  status: ('A' for Active; 'I' for Inactive)
REMARK    1  A    between atoms: O_1  and  C_2
REMARK    2  A    between atoms: C_4  and  C_6
REMARK    3  A    between atoms: C_6  and  O_7
REMARK    4  A    between atoms: O_7  and  P_8
REMARK    5  A    between atoms: P_8  and  O_9
REMARK    6  A    between atoms: P_8  and  O_10
REMARK    7  A    between atoms: C_13  and  N_18
REMARK    8  A    between atoms: C_15  and  O_17
REMARK                            x       y       z     vdW  Elec       q    Type
REMARK                         _______ _______ _______ _____ _____    ______ ____
ROOT
ATOM      1  C   UNL     1       6.085  -4.313  23.505  0.00  0.00    +0.178 C 
ATOM      2  C   UNL     1       6.529  -3.504  22.289  0.00  0.00    +0.195 C 
ATOM      3  C   UNL     1       6.527  -2.051  22.794  0.00  0.00    +0.252 C 
ATOM      4  O   UNL     1       6.274  -2.073  24.217  0.00  0.00    -0.346 OA
ATOM      5  C   UNL     1       6.493  -3.414  24.664  0.00  0.00    +0.178 C 
ENDROOT
BRANCH   3   6
ATOM      6  N   UNL     1       7.795  -1.373  22.549  0.00  0.00    -0.301 N 
ATOM      7  C   UNL     1       8.005  -0.009  22.503  0.00  0.00    +0.071 A 
ATOM      8  C   UNL     1       7.183   1.108  22.699  0.00  0.00    +0.028 A 
ATOM      9  C   UNL     1       7.779   2.370  22.561  0.00  0.00    +0.002 A 
ATOM     10  C   UNL     1       9.131   2.507  22.230  0.00  0.00    +0.002 A 
ATOM     11  C   UNL     1       9.933   1.381  22.035  0.00  0.00    +0.030 A 
ATOM     12  C   UNL     1       9.358   0.109  22.178  0.00  0.00    +0.089 A 
ATOM     13  N   UNL     1       9.947  -1.118  22.046  0.00  0.00    -0.236 NA
ATOM     14  C   UNL     1       8.996  -1.983  22.301  0.00  0.00    +0.202 A 
ENDBRANCH   3   6
BRANCH   1  15
ATOM     15  O   UNL     1       6.739  -5.579  23.537  0.00  0.00    -0.386 OA
ATOM     16  H   UNL     1       7.199  -5.650  24.393  0.00  0.00    +0.210 HD
ENDBRANCH   1  15
BRANCH   2  17
ATOM     17  O   UNL     1       5.593  -3.695  21.219  0.00  0.00    -0.385 OA
ATOM     18  H   UNL     1       4.884  -4.275  21.548  0.00  0.00    +0.210 HD
ENDBRANCH   2  17
BRANCH   5  19
ATOM     19  C   UNL     1       5.726  -3.692  25.950  0.00  0.00    +0.206 C 
BRANCH  19  20
ATOM     20  O   UNL     1       6.669  -4.063  26.938  0.00  0.00    -0.284 OA
BRANCH  20  21
ATOM     21  P   UNL     1       6.882  -5.616  27.220  0.00  0.00    +0.472 P 
ATOM     22  O   UNL     1       6.968  -6.081  28.629  0.00  0.00    -0.228 OA
BRANCH  21  23
ATOM     23  O   UNL     1       8.211  -5.893  26.378  0.00  0.00    -0.303 OA
ATOM     24  H   UNL     1       8.485  -5.087  25.900  0.00  0.00    +0.222 HD
ENDBRANCH  21  23
BRANCH  21  25
ATOM     25  O   UNL     1       5.816  -6.324  26.272  0.00  0.00    -0.303 OA
ATOM     26  H   UNL     1       6.072  -6.216  25.338  0.00  0.00    +0.222 HD
ENDBRANCH  21  25
ENDBRANCH  20  21
ENDBRANCH  19  20
ENDBRANCH   5  19
TORSDOF 8
ENDMDL
MODEL 8
REMARK VINA RESULT:      -6.4      5.188      7.757
REMARK  Name = 
REMARK  8 active torsions:
REMARK  status: ('A' for Active; 'I' for Inactive)
REMARK    1  A    between atoms: O_1  and  C_2
REMARK    2  A    between atoms: C_4  and  C_6
REMARK    3  A    between atoms: C_6  and  O_7
REMARK    4  A    between atoms: O_7  and  P_8
REMARK    5  A    between atoms: P_8  and  O_9
REMARK    6  A    between atoms: P_8  and  O_10
REMARK    7  A    between atoms: C_13  and  N_18
REMARK    8  A    between atoms: C_15  and  O_17
REMARK                            x       y       z     vdW  Elec       q    Type
REMARK                         _______ _______ _______ _____ _____    ______ ____
ROOT
ATOM      1  C   UNL     1       9.775   0.436  22.311  0.00  0.00    +0.178 C 
ATOM      2  C   UNL     1       9.124  -0.924  22.080  0.00  0.00    +0.195 C 
ATOM      3  C   UNL     1       8.890  -1.466  23.501  0.00  0.00    +0.252 C 
ATOM      4  O   UNL     1       9.222  -0.417  24.439  0.00  0.00    -0.346 OA
ATOM      5  C   UNL     1       9.277   0.808  23.701  0.00  0.00    +0.178 C 
ENDROOT
BRANCH   3   6
ATOM      6  N   UNL     1       7.508  -1.876  23.721  0.00  0.00    -0.301 N 
ATOM      7  C   UNL     1       6.919  -3.049  23.291  0.00  0.00    +0.071 A 
ATOM      8  C   UNL     1       7.384  -4.176  22.603  0.00  0.00    +0.028 A 
ATOM      9  C   UNL     1       6.455  -5.192  22.340  0.00  0.00    +0.002 A 
ATOM     10  C   UNL     1       5.118  -5.080  22.737  0.00  0.00    +0.002 A 
ATOM     11  C   UNL     1       4.672  -3.946  23.419  0.00  0.00    +0.030 A 
ATOM     12  C   UNL     1       5.589  -2.922  23.700  0.00  0.00    +0.089 A 
ATOM     13  N   UNL     1       5.380  -1.741  24.357  0.00  0.00    -0.236 NA
ATOM     14  C   UNL     1       6.550  -1.151  24.379  0.00  0.00    +0.202 A 
ENDBRANCH   3   6
BRANCH   1  15
ATOM     15  O   UNL     1       9.365   1.370  21.315  0.00  0.00    -0.386 OA
ATOM     16  H   UNL     1       8.551   1.800  21.632  0.00  0.00    +0.210 HD
ENDBRANCH   1  15
BRANCH   2  17
ATOM     17  O   UNL     1      10.017  -1.762  21.334  0.00  0.00    -0.385 OA
ATOM     18  H   UNL     1      10.661  -2.137  21.960  0.00  0.00    +0.210 HD
ENDBRANCH   2  17
BRANCH   5  19
ATOM     19  C   UNL     1      10.152   1.833  24.408  0.00  0.00    +0.206 C 
BRANCH  19  20
ATOM     20  O   UNL     1      10.307   2.937  23.536  0.00  0.00    -0.284 OA
BRANCH  20  21
ATOM     21  P   UNL     1       9.347   4.191  23.745  0.00  0.00    +0.472 P 
ATOM     22  O   UNL     1       8.657   4.353  25.050  0.00  0.00    -0.228 OA
BRANCH  21  23
ATOM     23  O   UNL     1       8.343   4.005  22.516  0.00  0.00    -0.303 OA
ATOM     24  H   UNL     1       7.661   4.703  22.525  0.00  0.00    +0.222 HD
ENDBRANCH  21  23
BRANCH  21  25
ATOM     25  O   UNL     1      10.204   5.419  23.203  0.00  0.00    -0.303 OA
ATOM     26  H   UNL     1       9.646   6.009  22.666  0.00  0.00    +0.222 HD
ENDBRANCH  21  25
ENDBRANCH  20  21
ENDBRANCH  19  20
ENDBRANCH   5  19
TORSDOF 8
ENDMDL
MODEL 9
REMARK VINA RESULT:      -6.4      4.154      7.453
REMARK  Name = 
REMARK  8 active torsions:
REMARK  status: ('A' for Active; 'I' for Inactive)
REMARK    1  A    between atoms: O_1  and  C_2
REMARK    2  A    between atoms: C_4  and  C_6
REMARK    3  A    between atoms: C_6  and  O_7
REMARK    4  A    between atoms: O_7  and  P_8
REMARK    5  A    between atoms: P_8  and  O_9
REMARK    6  A    between atoms: P_8  and  O_10
REMARK    7  A    between atoms: C_13  and  N_18
REMARK    8  A    between atoms: C_15  and  O_17
REMARK                            x       y       z     vdW  Elec       q    Type
REMARK                         _______ _______ _______ _____ _____    ______ ____
ROOT
ATOM      1  C   UNL     1       7.078  -1.847  22.625  0.00  0.00    +0.178 C 
ATOM      2  C   UNL     1       6.184  -3.075  22.764  0.00  0.00    +0.195 C 
ATOM      3  C   UNL     1       7.165  -4.206  23.121  0.00  0.00    +0.252 C 
ATOM      4  O   UNL     1       8.467  -3.615  23.335  0.00  0.00    -0.346 OA
ATOM      5  C   UNL     1       8.271  -2.207  23.499  0.00  0.00    +0.178 C 
ENDROOT
BRANCH   3   6
ATOM      6  N   UNL     1       6.770  -4.927  24.325  0.00  0.00    -0.301 N 
ATOM      7  C   UNL     1       5.630  -5.689  24.493  0.00  0.00    +0.071 A 
ATOM      8  C   UNL     1       4.571  -6.052  23.651  0.00  0.00    +0.028 A 
ATOM      9  C   UNL     1       3.568  -6.861  24.202  0.00  0.00    +0.002 A 
ATOM     10  C   UNL     1       3.615  -7.277  25.537  0.00  0.00    +0.002 A 
ATOM     11  C   UNL     1       4.678  -6.901  26.361  0.00  0.00    +0.030 A 
ATOM     12  C   UNL     1       5.697  -6.099  25.826  0.00  0.00    +0.089 A 
ATOM     13  N   UNL     1       6.825  -5.626  26.437  0.00  0.00    -0.236 NA
ATOM     14  C   UNL     1       7.459  -4.953  25.508  0.00  0.00    +0.202 A 
ENDBRANCH   3   6
BRANCH   1  15
ATOM     15  O   UNL     1       6.403  -0.675  23.075  0.00  0.00    -0.386 OA
ATOM     16  H   UNL     1       6.075  -0.204  22.288  0.00  0.00    +0.210 HD
ENDBRANCH   1  15
BRANCH   2  17
ATOM     17  O   UNL     1       5.517  -3.326  21.519  0.00  0.00    -0.385 OA
ATOM     18  H   UNL     1       4.713  -2.777  21.500  0.00  0.00    +0.210 HD
ENDBRANCH   2  17
BRANCH   5  19
ATOM     19  C   UNL     1       9.537  -1.436  23.151  0.00  0.00    +0.206 C 
BRANCH  19  20
ATOM     20  O   UNL     1       9.158  -0.336  22.346  0.00  0.00    -0.284 OA
BRANCH  20  21
ATOM     21  P   UNL     1       9.607   1.120  22.814  0.00  0.00    +0.472 P 
ATOM     22  O   UNL     1      10.684   1.242  23.829  0.00  0.00    -0.228 OA
BRANCH  21  23
ATOM     23  O   UNL     1       8.209   1.722  23.296  0.00  0.00    -0.303 OA
ATOM     24  H   UNL     1       7.659   1.963  22.526  0.00  0.00    +0.222 HD
ENDBRANCH  21  23
BRANCH  21  25
ATOM     25  O   UNL     1       9.783   1.920  21.448  0.00  0.00    -0.303 OA
ATOM     26  H   UNL     1      10.578   2.481  21.486  0.00  0.00    +0.222 HD
ENDBRANCH  21  25
ENDBRANCH  20  21
ENDBRANCH  19  20
ENDBRANCH   5  19
TORSDOF 8
ENDMDL
