MODEL 1
REMARK VINA RESULT:      -7.1      0.000      0.000
REMARK  Name = 
REMARK  6 active torsions:
REMARK  status: ('A' for Active; 'I' for Inactive)
REMARK    1  A    between atoms: C_2  and  C_14
REMARK    2  A    between atoms: C_10  and  C_12
REMARK    3  A    between atoms: C_14  and  O_16
REMARK    4  A    between atoms: C_14  and  C_17
REMARK    5  A    between atoms: C_24  and  O_25
REMARK    6  A    between atoms: O_25  and  C_26
REMARK                            x       y       z     vdW  Elec       q    Type
REMARK                         _______ _______ _______ _____ _____    ______ ____
ROOT
ATOM      1  C   UNL     1       8.502  -2.974  24.246  0.00  0.00    +0.162 C 
ENDROOT
BRANCH   1   2
ATOM      2  C   UNL     1       7.375  -3.713  23.527  0.00  0.00    -0.007 A 
ATOM      3  C   UNL     1       6.544  -4.672  24.167  0.00  0.00    +0.010 A 
ATOM      4  C   UNL     1       5.502  -5.244  23.396  0.00  0.00    +0.072 A 
ATOM      5  C   UNL     1       4.675  -6.193  23.976  0.00  0.00    +0.032 A 
ATOM      6  C   UNL     1       4.838  -6.618  25.294  0.00  0.00    +0.048 A 
ATOM      7  C   UNL     1       5.850  -6.072  26.070  0.00  0.00    +0.121 A 
ATOM      8  N   UNL     1       5.263  -4.922  22.117  0.00  0.00    -0.255 NA
ATOM      9  C   UNL     1       6.075  -4.027  21.530  0.00  0.00    +0.112 A 
ATOM     10  C   UNL     1       6.687  -5.101  25.511  0.00  0.00    +0.056 A 
ATOM     11  C   UNL     1       7.124  -3.411  22.179  0.00  0.00    +0.026 A 
BRANCH   7  12
ATOM     12  O   UNL     1       6.130  -6.397  27.369  0.00  0.00    -0.495 OA
ATOM     13  C   UNL     1       5.029  -6.781  28.186  0.00  0.00    +0.277 C 
ENDBRANCH   7  12
ENDBRANCH   1   2
BRANCH   1  14
ATOM     14  C   UNL     1       8.662  -1.498  23.720  0.00  0.00    +0.090 C 
ATOM     15  N   UNL     1       8.201  -0.428  24.670  0.00  0.00    -0.296 NA
ATOM     16  C   UNL     1       8.088   0.841  23.891  0.00  0.00    +0.092 C 
ATOM     17  C   UNL     1       9.462   1.293  23.320  0.00  0.00    +0.028 C 
ATOM     18  C   UNL     1      10.519   0.221  23.687  0.00  0.00    -0.000 C 
ATOM     19  C   UNL     1      10.573   0.126  25.223  0.00  0.00    +0.019 C 
ATOM     20  C   UNL     1       9.165  -0.175  25.762  0.00  0.00    +0.085 C 
ATOM     21  C   UNL     1      10.080  -1.168  23.190  0.00  0.00    +0.026 C 
BRANCH  17  22
ATOM     22  C   UNL     1       9.394   1.560  21.836  0.00  0.00    -0.030 C 
ATOM     23  C   UNL     1       8.275   1.476  21.107  0.00  0.00    +0.004 C 
ENDBRANCH  17  22
ENDBRANCH   1  14
BRANCH   1  24
ATOM     24  O   UNL     1       9.685  -3.773  24.120  0.00  0.00    -0.386 OA
ATOM     25  H   UNL     1       9.445  -4.600  23.684  0.00  0.00    +0.210 HD
ENDBRANCH   1  24
TORSDOF 5
ENDMDL
MODEL 2
REMARK VINA RESULT:      -7.0      0.942      1.027
REMARK  Name = 
REMARK  6 active torsions:
REMARK  status: ('A' for Active; 'I' for Inactive)
REMARK    1  A    between atoms: C_2  and  C_14
REMARK    2  A    between atoms: C_10  and  C_12
REMARK    3  A    between atoms: C_14  and  O_16
REMARK    4  A    between atoms: C_14  and  C_17
REMARK    5  A    between atoms: C_24  and  O_25
REMARK    6  A    between atoms: O_25  and  C_26
REMARK                            x       y       z     vdW  Elec       q    Type
REMARK                         _______ _______ _______ _____ _____    ______ ____
ROOT
ATOM      1  C   UNL     1       8.923  -2.442  24.096  0.00  0.00    +0.162 C 
ENDROOT
BRANCH   1   2
ATOM      2  C   UNL     1       7.767  -3.315  23.613  0.00  0.00    -0.007 A 
ATOM      3  C   UNL     1       7.077  -4.227  24.458  0.00  0.00    +0.010 A 
ATOM      4  C   UNL     1       5.989  -4.937  23.894  0.00  0.00    +0.072 A 
ATOM      5  C   UNL     1       5.295  -5.846  24.678  0.00  0.00    +0.032 A 
ATOM      6  C   UNL     1       5.638  -6.097  26.006  0.00  0.00    +0.048 A 
ATOM      7  C   UNL     1       6.698  -5.413  26.582  0.00  0.00    +0.121 A 
ATOM      8  N   UNL     1       5.582  -4.786  22.626  0.00  0.00    -0.255 NA
ATOM      9  C   UNL     1       6.263  -3.932  21.843  0.00  0.00    +0.112 A 
ATOM     10  C   UNL     1       7.403  -4.480  25.815  0.00  0.00    +0.056 A 
ATOM     11  C   UNL     1       7.341  -3.194  22.280  0.00  0.00    +0.026 A 
BRANCH   7  12
ATOM     12  O   UNL     1       7.148  -5.562  27.866  0.00  0.00    -0.495 OA
ATOM     13  C   UNL     1       6.227  -6.094  28.811  0.00  0.00    +0.277 C 
ENDBRANCH   7  12
ENDBRANCH   1   2
BRANCH   1  14
ATOM     14  C   UNL     1       8.726  -0.933  23.689  0.00  0.00    +0.090 C 
ATOM     15  N   UNL     1       8.715   0.041  24.835  0.00  0.00    -0.296 NA
ATOM     16  C   UNL     1       8.168   1.331  24.317  0.00  0.00    +0.092 C 
ATOM     17  C   UNL     1       9.071   1.936  23.207  0.00  0.00    +0.028 C 
ATOM     18  C   UNL     1      10.236   0.951  22.932  0.00  0.00    -0.000 C 
ATOM     19  C   UNL     1      11.025   0.785  24.244  0.00  0.00    +0.019 C 
ATOM     20  C   UNL     1      10.068   0.328  25.357  0.00  0.00    +0.085 C 
ATOM     21  C   UNL     1       9.694  -0.447  22.582  0.00  0.00    +0.026 C 
BRANCH  17  22
ATOM     22  C   UNL     1       8.285   2.270  21.962  0.00  0.00    -0.030 C 
ATOM     23  C   UNL     1       7.057   2.801  21.968  0.00  0.00    +0.004 C 
ENDBRANCH  17  22
ENDBRANCH   1  14
BRANCH   1  24
ATOM     24  O   UNL     1      10.135  -3.028  23.604  0.00  0.00    -0.386 OA
ATOM     25  H   UNL     1      10.059  -3.987  23.682  0.00  0.00    +0.210 HD
ENDBRANCH   1  24
TORSDOF 5
ENDMDL
MODEL 3
REMARK VINA RESULT:      -6.8      2.027      3.320
REMARK  Name = 
REMARK  6 active torsions:
REMARK  status: ('A' for Active; 'I' for Inactive)
REMARK    1  A    between atoms: C_2  and  C_14
REMARK    2  A    between atoms: C_10  and  C_12
REMARK    3  A    between atoms: C_14  and  O_16
REMARK    4  A    between atoms: C_14  and  C_17
REMARK    5  A    between atoms: C_24  and  O_25
REMARK    6  A    between atoms: O_25  and  C_26
REMARK                            x       y       z     vdW  Elec       q    Type
REMARK                         _______ _______ _______ _____ _____    ______ ____
ROOT
ATOM      1  C   UNL     1       8.919  -4.531  25.245  0.00  0.00    +0.162 C 
ENDROOT
BRANCH   1   2
ATOM      2  C   UNL     1       7.671  -5.126  25.893  0.00  0.00    -0.007 A 
ATOM      3  C   UNL     1       6.539  -5.557  25.149  0.00  0.00    +0.010 A 
ATOM      4  C   UNL     1       5.470  -6.140  25.873  0.00  0.00    +0.072 A 
ATOM      5  C   UNL     1       4.341  -6.563  25.190  0.00  0.00    +0.032 A 
ATOM      6  C   UNL     1       4.213  -6.426  23.808  0.00  0.00    +0.048 A 
ATOM      7  C   UNL     1       5.247  -5.861  23.075  0.00  0.00    +0.121 A 
ATOM      8  N   UNL     1       5.480  -6.307  27.203  0.00  0.00    -0.255 NA
ATOM      9  C   UNL     1       6.553  -5.873  27.886  0.00  0.00    +0.112 A 
ATOM     10  C   UNL     1       6.402  -5.440  23.743  0.00  0.00    +0.056 A 
ATOM     11  C   UNL     1       7.648  -5.285  27.289  0.00  0.00    +0.026 A 
BRANCH   7  12
ATOM     12  O   UNL     1       5.256  -5.659  21.722  0.00  0.00    -0.495 OA
ATOM     13  C   UNL     1       6.524  -5.691  21.077  0.00  0.00    +0.277 C 
ENDBRANCH   7  12
ENDBRANCH   1   2
BRANCH   1  14
ATOM     14  C   UNL     1       8.596  -3.202  24.463  0.00  0.00    +0.090 C 
ATOM     15  N   UNL     1       7.565  -2.317  25.108  0.00  0.00    -0.296 NA
ATOM     16  C   UNL     1       7.130  -1.322  24.083  0.00  0.00    +0.092 C 
ATOM     17  C   UNL     1       8.304  -0.408  23.632  0.00  0.00    +0.028 C 
ATOM     18  C   UNL     1       9.594  -0.880  24.348  0.00  0.00    -0.000 C 
ATOM     19  C   UNL     1       9.359  -0.753  25.865  0.00  0.00    +0.019 C 
ATOM     20  C   UNL     1       8.101  -1.549  26.251  0.00  0.00    +0.085 C 
ATOM     21  C   UNL     1       9.848  -2.375  24.082  0.00  0.00    +0.026 C 
BRANCH  17  22
ATOM     22  C   UNL     1       8.449  -0.380  22.129  0.00  0.00    -0.030 C 
ATOM     23  C   UNL     1       9.269   0.445  21.468  0.00  0.00    +0.004 C 
ENDBRANCH  17  22
ENDBRANCH   1  14
BRANCH   1  24
ATOM     24  O   UNL     1       9.511  -5.557  24.437  0.00  0.00    -0.386 OA
ATOM     25  H   UNL     1       9.002  -6.368  24.560  0.00  0.00    +0.210 HD
ENDBRANCH   1  24
TORSDOF 5
ENDMDL
MODEL 4
REMARK VINA RESULT:      -6.5      2.640      7.266
REMARK  Name = 
REMARK  6 active torsions:
REMARK  status: ('A' for Active; 'I' for Inactive)
REMARK    1  A    between atoms: C_2  and  C_14
REMARK    2  A    between atoms: C_10  and  C_12
REMARK    3  A    between atoms: C_14  and  O_16
REMARK    4  A    between atoms: C_14  and  C_17
REMARK    5  A    between atoms: C_24  and  O_25
REMARK    6  A    between atoms: O_25  and  C_26
REMARK                            x       y       z     vdW  Elec       q    Type
REMARK                         _______ _______ _______ _____ _____    ______ ____
ROOT
ATOM      1  C   UNL     1       8.594  -1.156  22.262  0.00  0.00    +0.162 C 
ENDROOT
BRANCH   1   2
ATOM      2  C   UNL     1       9.188   0.082  22.929  0.00  0.00    -0.007 A 
ATOM      3  C   UNL     1       8.479   1.307  23.064  0.00  0.00    +0.010 A 
ATOM      4  C   UNL     1       9.130   2.361  23.751  0.00  0.00    +0.072 A 
ATOM      5  C   UNL     1       8.480   3.577  23.896  0.00  0.00    +0.032 A 
ATOM      6  C   UNL     1       7.206   3.807  23.377  0.00  0.00    +0.048 A 
ATOM      7  C   UNL     1       6.547   2.790  22.702  0.00  0.00    +0.121 A 
ATOM      8  N   UNL     1      10.358   2.256  24.276  0.00  0.00    -0.255 NA
ATOM      9  C   UNL     1      11.015   1.095  24.118  0.00  0.00    +0.112 A 
ATOM     10  C   UNL     1       7.177   1.550  22.558  0.00  0.00    +0.056 A 
ATOM     11  C   UNL     1      10.485   0.005  23.462  0.00  0.00    +0.026 A 
BRANCH   7  12
ATOM     12  O   UNL     1       5.303   2.875  22.139  0.00  0.00    -0.495 OA
ATOM     13  C   UNL     1       4.402   3.816  22.711  0.00  0.00    +0.277 C 
ENDBRANCH   7  12
ENDBRANCH   1   2
BRANCH   1  14
ATOM     14  C   UNL     1       7.873  -2.093  23.303  0.00  0.00    +0.090 C 
ATOM     15  N   UNL     1       6.464  -2.478  22.947  0.00  0.00    -0.296 NA
ATOM     16  C   UNL     1       5.833  -3.042  24.177  0.00  0.00    +0.092 C 
ATOM     17  C   UNL     1       6.555  -4.332  24.658  0.00  0.00    +0.028 C 
ATOM     18  C   UNL     1       7.771  -4.585  23.731  0.00  0.00    -0.000 C 
ATOM     19  C   UNL     1       7.236  -4.763  22.298  0.00  0.00    +0.019 C 
ATOM     20  C   UNL     1       6.401  -3.531  21.912  0.00  0.00    +0.085 C 
ATOM     21  C   UNL     1       8.690  -3.350  23.691  0.00  0.00    +0.026 C 
BRANCH  17  22
ATOM     22  C   UNL     1       6.941  -4.251  26.115  0.00  0.00    -0.030 C 
ATOM     23  C   UNL     1       7.201  -5.314  26.884  0.00  0.00    +0.004 C 
ENDBRANCH  17  22
ENDBRANCH   1  14
BRANCH   1  24
ATOM     24  O   UNL     1       9.650  -1.795  21.531  0.00  0.00    -0.386 OA
ATOM     25  H   UNL     1       9.941  -1.193  20.835  0.00  0.00    +0.210 HD
ENDBRANCH   1  24
TORSDOF 5
ENDMDL
MODEL 5
REMARK VINA RESULT:      -6.4      2.800      7.048
REMARK  Name = 
REMARK  6 active torsions:
REMARK  status: ('A' for Active; 'I' for Inactive)
REMARK    1  A    between atoms: C_2  and  C_14
REMARK    2  A    between atoms: C_10  and  C_12
REMARK    3  A    between atoms: C_14  and  O_16
REMARK    4  A    between atoms: C_14  and  C_17
REMARK    5  A    between atoms: C_24  and  O_25
REMARK    6  A    between atoms: O_25  and  C_26
REMARK                            x       y       z     vdW  Elec       q    Type
REMARK                         _______ _______ _______ _____ _____    ______ ____
ROOT
ATOM      1  C   UNL     1       7.051  -0.866  24.156  0.00  0.00    +0.162 C 
ENDROOT
BRANCH   1   2
ATOM      2  C   UNL     1       8.008   0.055  23.402  0.00  0.00    -0.007 A 
ATOM      3  C   UNL     1       8.341   1.363  23.848  0.00  0.00    +0.010 A 
ATOM      4  C   UNL     1       9.284   2.090  23.080  0.00  0.00    +0.072 A 
ATOM      5  C   UNL     1       9.630   3.373  23.471  0.00  0.00    +0.032 A 
ATOM      6  C   UNL     1       9.072   3.985  24.593  0.00  0.00    +0.048 A 
ATOM      7  C   UNL     1       8.148   3.294  25.363  0.00  0.00    +0.121 A 
ATOM      8  N   UNL     1       9.871   1.606  21.976  0.00  0.00    -0.255 NA
ATOM      9  C   UNL     1       9.524   0.375  21.564  0.00  0.00    +0.112 A 
ATOM     10  C   UNL     1       7.796   1.991  24.996  0.00  0.00    +0.056 A 
ATOM     11  C   UNL     1       8.614  -0.420  22.227  0.00  0.00    +0.026 A 
BRANCH   7  12
ATOM     12  O   UNL     1       7.518   3.768  26.481  0.00  0.00    -0.495 OA
ATOM     13  C   UNL     1       6.784   2.826  27.253  0.00  0.00    +0.277 C 
ENDBRANCH   7  12
ENDBRANCH   1   2
BRANCH   1  14
ATOM     14  C   UNL     1       7.180  -2.362  23.679  0.00  0.00    +0.090 C 
ATOM     15  N   UNL     1       7.709  -3.317  24.712  0.00  0.00    -0.296 NA
ATOM     16  C   UNL     1       8.099  -4.571  24.000  0.00  0.00    +0.092 C 
ATOM     17  C   UNL     1       6.877  -5.254  23.323  0.00  0.00    +0.028 C 
ATOM     18  C   UNL     1       5.632  -4.359  23.545  0.00  0.00    -0.000 C 
ATOM     19  C   UNL     1       5.412  -4.233  25.064  0.00  0.00    +0.019 C 
ATOM     20  C   UNL     1       6.694  -3.695  25.719  0.00  0.00    +0.085 C 
ATOM     21  C   UNL     1       5.892  -2.930  23.034  0.00  0.00    +0.026 C 
BRANCH  17  22
ATOM     22  C   UNL     1       7.133  -5.545  21.864  0.00  0.00    -0.030 C 
ATOM     23  C   UNL     1       6.184  -5.900  20.991  0.00  0.00    +0.004 C 
ENDBRANCH  17  22
ENDBRANCH   1  14
BRANCH   1  24
ATOM     24  O   UNL     1       5.733  -0.317  24.017  0.00  0.00    -0.386 OA
ATOM     25  H   UNL     1       5.535  -0.246  23.075  0.00  0.00    +0.210 HD
ENDBRANCH   1  24
TORSDOF 5
ENDMDL
MODEL 6
REMARK VINA RESULT:      -6.3      3.585      8.308
REMARK  Name = 
REMARK  6 active torsions:
REMARK  status: ('A' for Active; 'I' for Inactive)
REMARK    1  A    between atoms: C_2  and  C_14
REMARK    2  A    between atoms: C_10  and  C_12
REMARK    3  A    between atoms: C_14  and  O_16
REMARK    4  A    between atoms: C_14  and  C_17
REMARK    5  A    between atoms: C_24  and  O_25
REMARK    6  A    between atoms: O_25  and  C_26
REMARK                            x       y       z     vdW  Elec       q    Type
REMARK                         _______ _______ _______ _____ _____    ______ ____
ROOT
ATOM      1  C   UNL     1       9.270   1.159  23.874  0.00  0.00    +0.162 C 
ENDROOT
BRANCH   1   2
ATOM      2  C   UNL     1       8.422   2.413  23.677  0.00  0.00    -0.007 A 
ATOM      3  C   UNL     1       8.973   3.722  23.616  0.00  0.00    +0.010 A 
ATOM      4  C   UNL     1       8.077   4.793  23.377  0.00  0.00    +0.072 A 
ATOM      5  C   UNL     1       8.569   6.088  23.322  0.00  0.00    +0.032 A 
ATOM      6  C   UNL     1       9.921   6.379  23.506  0.00  0.00    +0.048 A 
ATOM      7  C   UNL     1      10.819   5.348  23.740  0.00  0.00    +0.121 A 
ATOM      8  N   UNL     1       6.758   4.630  23.201  0.00  0.00    -0.255 NA
ATOM      9  C   UNL     1       6.260   3.386  23.283  0.00  0.00    +0.112 A 
ATOM     10  C   UNL     1      10.347   4.032  23.784  0.00  0.00    +0.056 A 
ATOM     11  C   UNL     1       7.034   2.270  23.518  0.00  0.00    +0.026 A 
BRANCH   7  12
ATOM     12  O   UNL     1      12.165   5.485  23.943  0.00  0.00    -0.495 OA
ATOM     13  C   UNL     1      13.008   5.287  22.814  0.00  0.00    +0.277 C 
ENDBRANCH   7  12
ENDBRANCH   1   2
BRANCH   1  14
ATOM     14  C   UNL     1       8.552  -0.127  23.317  0.00  0.00    +0.090 C 
ATOM     15  N   UNL     1       9.366  -0.949  22.356  0.00  0.00    -0.296 NA
ATOM     16  C   UNL     1       8.431  -1.889  21.671  0.00  0.00    +0.092 C 
ATOM     17  C   UNL     1       7.767  -2.876  22.672  0.00  0.00    +0.028 C 
ATOM     18  C   UNL     1       8.241  -2.512  24.103  0.00  0.00    -0.000 C 
ATOM     19  C   UNL     1       9.774  -2.653  24.136  0.00  0.00    +0.019 C 
ATOM     20  C   UNL     1      10.388  -1.776  23.032  0.00  0.00    +0.085 C 
ATOM     21  C   UNL     1       7.943  -1.034  24.415  0.00  0.00    +0.026 C 
BRANCH  17  22
ATOM     22  C   UNL     1       6.263  -2.883  22.541  0.00  0.00    -0.030 C 
ATOM     23  C   UNL     1       5.475  -3.869  22.985  0.00  0.00    +0.004 C 
ENDBRANCH  17  22
ENDBRANCH   1  14
BRANCH   1  24
ATOM     24  O   UNL     1       9.608   1.085  25.265  0.00  0.00    -0.386 OA
ATOM     25  H   UNL     1       8.831   1.344  25.778  0.00  0.00    +0.210 HD
ENDBRANCH   1  24
TORSDOF 5
ENDMDL
MODEL 7
REMARK VINA RESULT:      -6.2      1.320      2.108
REMARK  Name = 
REMARK  6 active torsions:
REMARK  status: ('A' for Active; 'I' for Inactive)
REMARK    1  A    between atoms: C_2  and  C_14
REMARK    2  A    between atoms: C_10  and  C_12
REMARK    3  A    between atoms: C_14  and  O_16
REMARK    4  A    between atoms: C_14  and  C_17
REMARK    5  A    between atoms: C_24  and  O_25
REMARK    6  A    between atoms: O_25  and  C_26
REMARK                            x       y       z     vdW  Elec       q    Type
REMARK                         _______ _______ _______ _____ _____    ______ ____
ROOT
ATOM      1  C   UNL     1       8.634  -3.972  24.875  0.00  0.00    +0.162 C 
ENDROOT
BRANCH   1   2
ATOM      2  C   UNL     1       7.577  -4.685  24.034  0.00  0.00    -0.007 A 
ATOM      3  C   UNL     1       6.494  -5.411  24.600  0.00  0.00    +0.010 A 
ATOM      4  C   UNL     1       5.556  -5.980  23.704  0.00  0.00    +0.072 A 
ATOM      5  C   UNL     1       4.491  -6.707  24.211  0.00  0.00    +0.032 A 
ATOM      6  C   UNL     1       4.313  -6.911  25.580  0.00  0.00    +0.048 A 
ATOM      7  C   UNL     1       5.217  -6.363  26.478  0.00  0.00    +0.121 A 
ATOM      8  N   UNL     1       5.637  -5.860  22.371  0.00  0.00    -0.255 NA
ATOM      9  C   UNL     1       6.681  -5.185  21.861  0.00  0.00    +0.112 A 
ATOM     10  C   UNL     1       6.291  -5.612  25.989  0.00  0.00    +0.056 A 
ATOM     11  C   UNL     1       7.657  -4.596  22.635  0.00  0.00    +0.026 A 
BRANCH   7  12
ATOM     12  O   UNL     1       5.171  -6.486  27.840  0.00  0.00    -0.495 OA
ATOM     13  C   UNL     1       3.880  -6.553  28.435  0.00  0.00    +0.277 C 
ENDBRANCH   7  12
ENDBRANCH   1   2
BRANCH   1  14
ATOM     14  C   UNL     1       8.515  -2.405  24.760  0.00  0.00    +0.090 C 
ATOM     15  N   UNL     1       9.782  -1.695  24.374  0.00  0.00    -0.296 NA
ATOM     16  C   UNL     1       9.584  -0.243  24.662  0.00  0.00    +0.092 C 
ATOM     17  C   UNL     1       8.437   0.364  23.807  0.00  0.00    +0.028 C 
ATOM     18  C   UNL     1       7.802  -0.770  22.965  0.00  0.00    -0.000 C 
ATOM     19  C   UNL     1       8.904  -1.353  22.061  0.00  0.00    +0.019 C 
ATOM     20  C   UNL     1      10.087  -1.807  22.931  0.00  0.00    +0.085 C 
ATOM     21  C   UNL     1       7.340  -1.927  23.871  0.00  0.00    +0.026 C 
BRANCH  17  22
ATOM     22  C   UNL     1       7.426   1.093  24.659  0.00  0.00    -0.030 C 
ATOM     23  C   UNL     1       7.564   1.307  25.973  0.00  0.00    +0.004 C 
ENDBRANCH  17  22
ENDBRANCH   1  14
BRANCH   1  24
ATOM     24  O   UNL     1       9.912  -4.493  24.487  0.00  0.00    -0.386 OA
ATOM     25  H   UNL     1      10.569  -4.183  25.123  0.00  0.00    +0.210 HD
ENDBRANCH   1  24
TORSDOF 5
ENDMDL
MODEL 8
REMARK VINA RESULT:      -6.2      2.968      7.599
REMARK  Name = 
REMARK  6 active torsions:
REMARK  status: ('A' for Active; 'I' for Inactive)
REMARK    1  A    between atoms: C_2  and  C_14
REMARK    2  A    between atoms: C_10  and  C_12
REMARK    3  A    between atoms: C_14  and  O_16
REMARK    4  A    between atoms: C_14  and  C_17
REMARK    5  A    between atoms: C_24  and  O_25
REMARK    6  A    between atoms: O_25  and  C_26
REMARK                            x       y       z     vdW  Elec       q    Type
REMARK                         _______ _______ _______ _____ _____    ______ ____
ROOT
ATOM      1  C   UNL     1       8.904  -0.080  25.575  0.00  0.00    +0.162 C 
ENDROOT
BRANCH   1   2
ATOM      2  C   UNL     1       8.095   1.215  25.559  0.00  0.00    -0.007 A 
ATOM      3  C   UNL     1       8.549   2.407  24.932  0.00  0.00    +0.010 A 
ATOM      4  C   UNL     1       7.674   3.521  24.946  0.00  0.00    +0.072 A 
ATOM      5  C   UNL     1       8.080   4.708  24.357  0.00  0.00    +0.032 A 
ATOM      6  C   UNL     1       9.331   4.851  23.757  0.00  0.00    +0.048 A 
ATOM      7  C   UNL     1      10.205   3.774  23.728  0.00  0.00    +0.121 A 
ATOM      8  N   UNL     1       6.457   3.500  25.507  0.00  0.00    -0.255 NA
ATOM      9  C   UNL     1       6.059   2.368  26.110  0.00  0.00    +0.112 A 
ATOM     10  C   UNL     1       9.810   2.562  24.302  0.00  0.00    +0.056 A 
ATOM     11  C   UNL     1       6.828   1.225  26.165  0.00  0.00    +0.026 A 
BRANCH   7  12
ATOM     12  O   UNL     1      11.459   3.773  23.181  0.00  0.00    -0.495 OA
ATOM     13  C   UNL     1      12.236   4.952  23.353  0.00  0.00    +0.277 C 
ENDBRANCH   7  12
ENDBRANCH   1   2
BRANCH   1  14
ATOM     14  C   UNL     1       8.265  -1.182  24.648  0.00  0.00    +0.090 C 
ATOM     15  N   UNL     1       7.538  -0.658  23.442  0.00  0.00    -0.296 NA
ATOM     16  C   UNL     1       6.712  -1.777  22.899  0.00  0.00    +0.092 C 
ATOM     17  C   UNL     1       7.592  -2.967  22.425  0.00  0.00    +0.028 C 
ATOM     18  C   UNL     1       9.073  -2.637  22.742  0.00  0.00    -0.000 C 
ATOM     19  C   UNL     1       9.437  -1.351  21.976  0.00  0.00    +0.019 C 
ATOM     20  C   UNL     1       8.451  -0.236  22.359  0.00  0.00    +0.085 C 
ATOM     21  C   UNL     1       9.248  -2.305  24.235  0.00  0.00    +0.026 C 
BRANCH  17  22
ATOM     22  C   UNL     1       7.145  -4.275  23.033  0.00  0.00    -0.030 C 
ATOM     23  C   UNL     1       7.197  -5.454  22.402  0.00  0.00    +0.004 C 
ENDBRANCH  17  22
ENDBRANCH   1  14
BRANCH   1  24
ATOM     24  O   UNL     1       9.048  -0.477  26.945  0.00  0.00    -0.386 OA
ATOM     25  H   UNL     1       8.541  -1.288  27.078  0.00  0.00    +0.210 HD
ENDBRANCH   1  24
TORSDOF 5
ENDMDL
MODEL 9
REMARK VINA RESULT:      -6.2      4.338      8.518
REMARK  Name = 
REMARK  6 active torsions:
REMARK  status: ('A' for Active; 'I' for Inactive)
REMARK    1  A    between atoms: C_2  and  C_14
REMARK    2  A    between atoms: C_10  and  C_12
REMARK    3  A    between atoms: C_14  and  O_16
REMARK    4  A    between atoms: C_14  and  C_17
REMARK    5  A    between atoms: C_24  and  O_25
REMARK    6  A    between atoms: O_25  and  C_26
REMARK                            x       y       z     vdW  Elec       q    Type
REMARK                         _______ _______ _______ _____ _____    ______ ____
ROOT
ATOM      1  C   UNL     1       8.666   1.974  22.148  0.00  0.00    +0.162 C 
ENDROOT
BRANCH   1   2
ATOM      2  C   UNL     1       7.937   3.259  22.534  0.00  0.00    -0.007 A 
ATOM      3  C   UNL     1       8.599   4.398  23.069  0.00  0.00    +0.010 A 
ATOM      4  C   UNL     1       7.808   5.543  23.335  0.00  0.00    +0.072 A 
ATOM      5  C   UNL     1       8.409   6.672  23.869  0.00  0.00    +0.032 A 
ATOM      6  C   UNL     1       9.771   6.718  24.168  0.00  0.00    +0.048 A 
ATOM      7  C   UNL     1      10.567   5.611  23.916  0.00  0.00    +0.121 A 
ATOM      8  N   UNL     1       6.490   5.603  23.101  0.00  0.00    -0.255 NA
ATOM      9  C   UNL     1       5.884   4.508  22.613  0.00  0.00    +0.112 A 
ATOM     10  C   UNL     1       9.984   4.466  23.362  0.00  0.00    +0.056 A 
ATOM     11  C   UNL     1       6.550   3.336  22.324  0.00  0.00    +0.026 A 
BRANCH   7  12
ATOM     12  O   UNL     1      11.909   5.513  24.163  0.00  0.00    -0.495 OA
ATOM     13  C   UNL     1      12.698   4.862  23.174  0.00  0.00    +0.277 C 
ENDBRANCH   7  12
ENDBRANCH   1   2
BRANCH   1  14
ATOM     14  C   UNL     1       8.626   0.908  23.307  0.00  0.00    +0.090 C 
ATOM     15  N   UNL     1       7.955  -0.391  22.956  0.00  0.00    -0.296 NA
ATOM     16  C   UNL     1       7.690  -1.114  24.235  0.00  0.00    +0.092 C 
ATOM     17  C   UNL     1       9.007  -1.464  24.984  0.00  0.00    +0.028 C 
ATOM     18  C   UNL     1      10.195  -0.872  24.185  0.00  0.00    -0.000 C 
ATOM     19  C   UNL     1      10.181  -1.512  22.785  0.00  0.00    +0.019 C 
ATOM     20  C   UNL     1       8.808  -1.274  22.133  0.00  0.00    +0.085 C 
ATOM     21  C   UNL     1      10.002   0.639  23.964  0.00  0.00    +0.026 C 
BRANCH  17  22
ATOM     22  C   UNL     1       8.979  -0.995  26.419  0.00  0.00    -0.030 C 
ATOM     23  C   UNL     1       7.932  -0.391  26.992  0.00  0.00    +0.004 C 
ENDBRANCH  17  22
ENDBRANCH   1  14
BRANCH   1  24
ATOM     24  O   UNL     1       9.989   2.342  21.735  0.00  0.00    -0.386 OA
ATOM     25  H   UNL     1       9.962   3.252  21.412  0.00  0.00    +0.210 HD
ENDBRANCH   1  24
TORSDOF 5
ENDMDL
