MODEL 1
REMARK VINA RESULT:      -6.6      0.000      0.000
REMARK  Name = 
REMARK  10 active torsions:
REMARK  status: ('A' for Active; 'I' for Inactive)
REMARK    1  A    between atoms: C_1  and  O_2
REMARK    2  A    between atoms: O_2  and  C_3
REMARK    3  A    between atoms: C_3  and  C_4
REMARK    4  A    between atoms: C_4  and  C_5
REMARK    5  A    between atoms: C_5  and  O_6
REMARK    6  A    between atoms: O_6  and  C_7
REMARK    7  A    between atoms: C_8  and  C_9
REMARK    8  A    between atoms: C_10  and  C_11
REMARK    9  A    between atoms: C_11  and  S_12
REMARK   10  A    between atoms: S_12  and  C_14
REMARK                            x       y       z     vdW  Elec       q    Type
REMARK                         _______ _______ _______ _____ _____    ______ ____
ROOT
ATOM      1  C   UNL     1       4.075  -4.820  23.315  0.00  0.00    +0.127 A 
ATOM      2  C   UNL     1       3.750  -3.895  24.306  0.00  0.00    +0.065 A 
ATOM      3  C   UNL     1       4.767  -3.184  24.903  0.00  0.00    +0.114 A 
ATOM      4  N   UNL     1       6.060  -3.294  24.551  0.00  0.00    -0.258 NA
ATOM      5  C   UNL     1       6.395  -4.209  23.600  0.00  0.00    +0.060 A 
ATOM      6  C   UNL     1       5.432  -5.039  22.992  0.00  0.00    +0.013 A 
ATOM      7  C   UNL     1       5.816  -6.111  22.011  0.00  0.00    +0.049 C 
ENDROOT
BRANCH   1   8
ATOM      8  O   UNL     1       3.129  -5.538  22.609  0.00  0.00    -0.492 OA
BRANCH   8   9
ATOM      9  C   UNL     1       1.978  -5.954  23.355  0.00  0.00    +0.231 C 
BRANCH   9  10
ATOM     10  C   UNL     1       1.932  -7.475  23.488  0.00  0.00    +0.069 C 
BRANCH  10  11
ATOM     11  C   UNL     1       2.384  -7.900  24.884  0.00  0.00    +0.163 C 
BRANCH  11  13
ATOM     12  C   UNL     1       4.234  -7.104  26.123  0.00  0.00    +0.193 C 
ATOM     13  O   UNL     1       3.807  -7.808  24.964  0.00  0.00    -0.383 OA
ENDBRANCH  11  13
ENDBRANCH  10  11
ENDBRANCH   9  10
ENDBRANCH   8   9
ENDBRANCH   1   8
BRANCH   5  14
ATOM     14  C   UNL     1       7.857  -4.178  23.201  0.00  0.00    +0.167 C 
BRANCH  14  15
ATOM     15  S   UNL     1       8.905  -3.630  24.575  0.00  0.00    +0.095 S 
ATOM     16  O   UNL     1      10.153  -4.466  24.652  0.00  0.00    -0.249 OA
BRANCH  15  17
ATOM     17  C   UNL     1       9.423  -2.081  23.971  0.00  0.00    +0.198 A 
ATOM     18  N   UNL     1       9.847  -1.080  24.805  0.00  0.00    -0.331 N 
ATOM     19  H   UNL     1       9.940  -1.175  25.807  0.00  0.00    +0.168 HD
ATOM     20  C   UNL     1      10.002   0.062  24.063  0.00  0.00    +0.067 A 
ATOM     21  C   UNL     1       9.706  -0.338  22.764  0.00  0.00    +0.090 A 
ATOM     22  C   UNL     1       9.752   0.617  21.735  0.00  0.00    +0.030 A 
ATOM     23  C   UNL     1      10.082   1.943  22.055  0.00  0.00    +0.002 A 
ATOM     24  C   UNL     1      10.370   2.311  23.371  0.00  0.00    +0.002 A 
ATOM     25  C   UNL     1      10.342   1.373  24.409  0.00  0.00    +0.028 A 
ATOM     26  N   UNL     1       9.377  -1.679  22.721  0.00  0.00    -0.220 NA
ENDBRANCH  15  17
ENDBRANCH  14  15
ENDBRANCH   5  14
TORSDOF 8
ENDMDL
MODEL 2
REMARK VINA RESULT:      -6.3      1.204      2.035
REMARK  Name = 
REMARK  10 active torsions:
REMARK  status: ('A' for Active; 'I' for Inactive)
REMARK    1  A    between atoms: C_1  and  O_2
REMARK    2  A    between atoms: O_2  and  C_3
REMARK    3  A    between atoms: C_3  and  C_4
REMARK    4  A    between atoms: C_4  and  C_5
REMARK    5  A    between atoms: C_5  and  O_6
REMARK    6  A    between atoms: O_6  and  C_7
REMARK    7  A    between atoms: C_8  and  C_9
REMARK    8  A    between atoms: C_10  and  C_11
REMARK    9  A    between atoms: C_11  and  S_12
REMARK   10  A    between atoms: S_12  and  C_14
REMARK                            x       y       z     vdW  Elec       q    Type
REMARK                         _______ _______ _______ _____ _____    ______ ____
ROOT
ATOM      1  C   UNL     1       4.785  -6.764  24.827  0.00  0.00    +0.127 A 
ATOM      2  C   UNL     1       4.846  -6.737  26.220  0.00  0.00    +0.065 A 
ATOM      3  C   UNL     1       5.711  -5.853  26.825  0.00  0.00    +0.114 A 
ATOM      4  N   UNL     1       6.471  -4.973  26.150  0.00  0.00    -0.258 NA
ATOM      5  C   UNL     1       6.439  -5.003  24.788  0.00  0.00    +0.060 A 
ATOM      6  C   UNL     1       5.644  -5.928  24.082  0.00  0.00    +0.013 A 
ATOM      7  C   UNL     1       5.681  -6.020  22.581  0.00  0.00    +0.049 C 
ENDROOT
BRANCH   1   8
ATOM      8  O   UNL     1       3.907  -7.564  24.123  0.00  0.00    -0.492 OA
BRANCH   8   9
ATOM      9  C   UNL     1       2.645  -7.812  24.757  0.00  0.00    +0.231 C 
BRANCH   9  10
ATOM     10  C   UNL     1       1.606  -8.284  23.742  0.00  0.00    +0.069 C 
BRANCH  10  11
ATOM     11  C   UNL     1       1.455  -7.260  22.619  0.00  0.00    +0.163 C 
BRANCH  11  13
ATOM     12  C   UNL     1       0.443  -5.147  22.942  0.00  0.00    +0.193 C 
ATOM     13  O   UNL     1       1.598  -5.946  23.161  0.00  0.00    -0.383 OA
ENDBRANCH  11  13
ENDBRANCH  10  11
ENDBRANCH   9  10
ENDBRANCH   8   9
ENDBRANCH   1   8
BRANCH   5  14
ATOM     14  C   UNL     1       7.247  -3.904  24.127  0.00  0.00    +0.167 C 
BRANCH  14  15
ATOM     15  S   UNL     1       8.819  -3.632  24.988  0.00  0.00    +0.095 S 
ATOM     16  O   UNL     1       9.832  -4.662  24.572  0.00  0.00    -0.249 OA
BRANCH  15  17
ATOM     17  C   UNL     1       9.332  -2.148  24.233  0.00  0.00    +0.198 A 
ATOM     18  N   UNL     1       9.683  -1.044  24.966  0.00  0.00    -0.331 N 
ATOM     19  H   UNL     1       9.723  -1.019  25.975  0.00  0.00    +0.168 HD
ATOM     20  C   UNL     1       9.852   0.009  24.103  0.00  0.00    +0.067 A 
ATOM     21  C   UNL     1       9.640  -0.549  22.847  0.00  0.00    +0.090 A 
ATOM     22  C   UNL     1       9.719   0.281  21.716  0.00  0.00    +0.030 A 
ATOM     23  C   UNL     1       9.999   1.645  21.895  0.00  0.00    +0.002 A 
ATOM     24  C   UNL     1      10.204   2.172  23.171  0.00  0.00    +0.002 A 
ATOM     25  C   UNL     1      10.141   1.360  24.310  0.00  0.00    +0.028 A 
ATOM     26  N   UNL     1       9.347  -1.896  22.944  0.00  0.00    -0.220 NA
ENDBRANCH  15  17
ENDBRANCH  14  15
ENDBRANCH   5  14
TORSDOF 8
ENDMDL
MODEL 3
REMARK VINA RESULT:      -6.2      3.765      9.241
REMARK  Name = 
REMARK  10 active torsions:
REMARK  status: ('A' for Active; 'I' for Inactive)
REMARK    1  A    between atoms: C_1  and  O_2
REMARK    2  A    between atoms: O_2  and  C_3
REMARK    3  A    between atoms: C_3  and  C_4
REMARK    4  A    between atoms: C_4  and  C_5
REMARK    5  A    between atoms: C_5  and  O_6
REMARK    6  A    between atoms: O_6  and  C_7
REMARK    7  A    between atoms: C_8  and  C_9
REMARK    8  A    between atoms: C_10  and  C_11
REMARK    9  A    between atoms: C_11  and  S_12
REMARK   10  A    between atoms: S_12  and  C_14
REMARK                            x       y       z     vdW  Elec       q    Type
REMARK                         _______ _______ _______ _____ _____    ______ ____
ROOT
ATOM      1  C   UNL     1       9.832   2.440  23.407  0.00  0.00    +0.127 A 
ATOM      2  C   UNL     1      10.230   1.767  22.252  0.00  0.00    +0.065 A 
ATOM      3  C   UNL     1       9.371   0.843  21.699  0.00  0.00    +0.114 A 
ATOM      4  N   UNL     1       8.143   0.585  22.180  0.00  0.00    -0.258 NA
ATOM      5  C   UNL     1       7.749   1.219  23.319  0.00  0.00    +0.060 A 
ATOM      6  C   UNL     1       8.592   2.119  24.000  0.00  0.00    +0.013 A 
ATOM      7  C   UNL     1       8.190   2.747  25.307  0.00  0.00    +0.049 C 
ENDROOT
BRANCH   1   8
ATOM      8  O   UNL     1      10.587   3.430  24.005  0.00  0.00    -0.492 OA
BRANCH   8   9
ATOM      9  C   UNL     1      11.537   4.088  23.155  0.00  0.00    +0.231 C 
BRANCH   9  10
ATOM     10  C   UNL     1      11.683   5.560  23.534  0.00  0.00    +0.069 C 
BRANCH  10  11
ATOM     11  C   UNL     1      10.402   6.069  24.193  0.00  0.00    +0.163 C 
BRANCH  11  13
ATOM     12  C   UNL     1       8.224   5.943  23.280  0.00  0.00    +0.193 C 
ATOM     13  O   UNL     1       9.511   6.541  23.182  0.00  0.00    -0.383 OA
ENDBRANCH  11  13
ENDBRANCH  10  11
ENDBRANCH   9  10
ENDBRANCH   8   9
ENDBRANCH   1   8
BRANCH   5  14
ATOM     14  C   UNL     1       6.312   0.940  23.716  0.00  0.00    +0.167 C 
BRANCH  14  15
ATOM     15  S   UNL     1       6.220  -0.321  25.015  0.00  0.00    +0.095 S 
ATOM     16  O   UNL     1       4.803  -0.486  25.489  0.00  0.00    -0.249 OA
BRANCH  15  17
ATOM     17  C   UNL     1       6.566  -1.751  24.083  0.00  0.00    +0.198 A 
ATOM     18  N   UNL     1       6.020  -1.960  22.843  0.00  0.00    -0.331 N 
ATOM     19  H   UNL     1       5.432  -1.295  22.360  0.00  0.00    +0.168 HD
ATOM     20  C   UNL     1       6.320  -3.239  22.451  0.00  0.00    +0.067 A 
ATOM     21  C   UNL     1       7.104  -3.733  23.488  0.00  0.00    +0.090 A 
ATOM     22  C   UNL     1       7.573  -5.056  23.410  0.00  0.00    +0.030 A 
ATOM     23  C   UNL     1       7.224  -5.834  22.295  0.00  0.00    +0.002 A 
ATOM     24  C   UNL     1       6.432  -5.306  21.273  0.00  0.00    +0.002 A 
ATOM     25  C   UNL     1       5.965  -3.988  21.326  0.00  0.00    +0.028 A 
ATOM     26  N   UNL     1       7.271  -2.786  24.480  0.00  0.00    -0.220 NA
ENDBRANCH  15  17
ENDBRANCH  14  15
ENDBRANCH   5  14
TORSDOF 8
ENDMDL
MODEL 4
REMARK VINA RESULT:      -6.2      2.496      3.810
REMARK  Name = 
REMARK  10 active torsions:
REMARK  status: ('A' for Active; 'I' for Inactive)
REMARK    1  A    between atoms: C_1  and  O_2
REMARK    2  A    between atoms: O_2  and  C_3
REMARK    3  A    between atoms: C_3  and  C_4
REMARK    4  A    between atoms: C_4  and  C_5
REMARK    5  A    between atoms: C_5  and  O_6
REMARK    6  A    between atoms: O_6  and  C_7
REMARK    7  A    between atoms: C_8  and  C_9
REMARK    8  A    between atoms: C_10  and  C_11
REMARK    9  A    between atoms: C_11  and  S_12
REMARK   10  A    between atoms: S_12  and  C_14
REMARK                            x       y       z     vdW  Elec       q    Type
REMARK                         _______ _______ _______ _____ _____    ______ ____
ROOT
ATOM      1  C   UNL     1       6.990  -3.883  25.185  0.00  0.00    +0.127 A 
ATOM      2  C   UNL     1       7.709  -5.077  25.176  0.00  0.00    +0.065 A 
ATOM      3  C   UNL     1       9.034  -5.046  24.802  0.00  0.00    +0.114 A 
ATOM      4  N   UNL     1       9.694  -3.917  24.491  0.00  0.00    -0.258 NA
ATOM      5  C   UNL     1       9.000  -2.746  24.474  0.00  0.00    +0.060 A 
ATOM      6  C   UNL     1       7.622  -2.693  24.763  0.00  0.00    +0.013 A 
ATOM      7  C   UNL     1       6.838  -1.414  24.654  0.00  0.00    +0.049 C 
ENDROOT
BRANCH   1   8
ATOM      8  O   UNL     1       5.677  -3.792  25.605  0.00  0.00    -0.492 OA
BRANCH   8   9
ATOM      9  C   UNL     1       4.782  -4.775  25.067  0.00  0.00    +0.231 C 
BRANCH   9  10
ATOM     10  C   UNL     1       4.369  -4.417  23.641  0.00  0.00    +0.069 C 
BRANCH  10  11
ATOM     11  C   UNL     1       4.797  -5.517  22.671  0.00  0.00    +0.163 C 
BRANCH  11  13
ATOM     12  C   UNL     1       6.907  -5.564  21.605  0.00  0.00    +0.193 C 
ATOM     13  O   UNL     1       5.626  -4.950  21.656  0.00  0.00    -0.383 OA
ENDBRANCH  11  13
ENDBRANCH  10  11
ENDBRANCH   9  10
ENDBRANCH   8   9
ENDBRANCH   1   8
BRANCH   5  14
ATOM     14  C   UNL     1       9.857  -1.523  24.216  0.00  0.00    +0.167 C 
BRANCH  14  15
ATOM     15  S   UNL     1       9.974  -1.161  22.443  0.00  0.00    +0.095 S 
ATOM     16  O   UNL     1       8.918  -1.914  21.682  0.00  0.00    -0.249 OA
BRANCH  15  17
ATOM     17  C   UNL     1       9.454   0.501  22.431  0.00  0.00    +0.198 A 
ATOM     18  N   UNL     1      10.066   1.459  23.197  0.00  0.00    -0.331 N 
ATOM     19  H   UNL     1      10.879   1.294  23.774  0.00  0.00    +0.168 HD
ATOM     20  C   UNL     1       9.323   2.609  23.122  0.00  0.00    +0.067 A 
ATOM     21  C   UNL     1       8.296   2.289  22.240  0.00  0.00    +0.090 A 
ATOM     22  C   UNL     1       7.324   3.262  21.951  0.00  0.00    +0.030 A 
ATOM     23  C   UNL     1       7.417   4.517  22.572  0.00  0.00    +0.002 A 
ATOM     24  C   UNL     1       8.460   4.804  23.454  0.00  0.00    +0.002 A 
ATOM     25  C   UNL     1       9.445   3.854  23.746  0.00  0.00    +0.028 A 
ATOM     26  N   UNL     1       8.410   0.985  21.798  0.00  0.00    -0.220 NA
ENDBRANCH  15  17
ENDBRANCH  14  15
ENDBRANCH   5  14
TORSDOF 8
ENDMDL
MODEL 5
REMARK VINA RESULT:      -6.2      2.928      9.026
REMARK  Name = 
REMARK  10 active torsions:
REMARK  status: ('A' for Active; 'I' for Inactive)
REMARK    1  A    between atoms: C_1  and  O_2
REMARK    2  A    between atoms: O_2  and  C_3
REMARK    3  A    between atoms: C_3  and  C_4
REMARK    4  A    between atoms: C_4  and  C_5
REMARK    5  A    between atoms: C_5  and  O_6
REMARK    6  A    between atoms: O_6  and  C_7
REMARK    7  A    between atoms: C_8  and  C_9
REMARK    8  A    between atoms: C_10  and  C_11
REMARK    9  A    between atoms: C_11  and  S_12
REMARK   10  A    between atoms: S_12  and  C_14
REMARK                            x       y       z     vdW  Elec       q    Type
REMARK                         _______ _______ _______ _____ _____    ______ ____
ROOT
ATOM      1  C   UNL     1       9.474  -0.696  24.939  0.00  0.00    +0.127 A 
ATOM      2  C   UNL     1      10.003  -1.489  23.922  0.00  0.00    +0.065 A 
ATOM      3  C   UNL     1       9.699  -2.833  23.909  0.00  0.00    +0.114 A 
ATOM      4  N   UNL     1       8.877  -3.419  24.796  0.00  0.00    -0.258 NA
ATOM      5  C   UNL     1       8.370  -2.661  25.808  0.00  0.00    +0.060 A 
ATOM      6  C   UNL     1       8.692  -1.296  25.948  0.00  0.00    +0.013 A 
ATOM      7  C   UNL     1       8.206  -0.484  27.117  0.00  0.00    +0.049 C 
ENDROOT
BRANCH   1   8
ATOM      8  O   UNL     1       9.663   0.671  25.009  0.00  0.00    -0.492 OA
BRANCH   8   9
ATOM      9  C   UNL     1      10.757   1.189  24.239  0.00  0.00    +0.231 C 
BRANCH   9  10
ATOM     10  C   UNL     1      10.259   2.134  23.148  0.00  0.00    +0.069 C 
BRANCH  10  11
ATOM     11  C   UNL     1      10.460   3.588  23.571  0.00  0.00    +0.163 C 
BRANCH  11  13
ATOM     12  C   UNL     1      12.044   5.344  23.509  0.00  0.00    +0.193 C 
ATOM     13  O   UNL     1      11.832   3.942  23.393  0.00  0.00    -0.383 OA
ENDBRANCH  11  13
ENDBRANCH  10  11
ENDBRANCH   9  10
ENDBRANCH   8   9
ENDBRANCH   1   8
BRANCH   5  14
ATOM     14  C   UNL     1       7.374  -3.390  26.688  0.00  0.00    +0.167 C 
BRANCH  14  15
ATOM     15  S   UNL     1       7.538  -5.188  26.521  0.00  0.00    +0.095 S 
ATOM     16  O   UNL     1       7.470  -5.850  27.869  0.00  0.00    -0.249 OA
BRANCH  15  17
ATOM     17  C   UNL     1       6.026  -5.566  25.743  0.00  0.00    +0.198 A 
ATOM     18  N   UNL     1       5.269  -6.647  26.112  0.00  0.00    -0.331 N 
ATOM     19  H   UNL     1       5.496  -7.266  26.879  0.00  0.00    +0.168 HD
ATOM     20  C   UNL     1       4.251  -6.790  25.205  0.00  0.00    +0.067 A 
ATOM     21  C   UNL     1       4.421  -5.716  24.338  0.00  0.00    +0.090 A 
ATOM     22  C   UNL     1       3.536  -5.575  23.255  0.00  0.00    +0.030 A 
ATOM     23  C   UNL     1       2.520  -6.527  23.082  0.00  0.00    +0.002 A 
ATOM     24  C   UNL     1       2.380  -7.595  23.971  0.00  0.00    +0.002 A 
ATOM     25  C   UNL     1       3.243  -7.748  25.062  0.00  0.00    +0.028 A 
ATOM     26  N   UNL     1       5.511  -4.950  24.704  0.00  0.00    -0.220 NA
ENDBRANCH  15  17
ENDBRANCH  14  15
ENDBRANCH   5  14
TORSDOF 8
ENDMDL
MODEL 6
REMARK VINA RESULT:      -6.2      2.112      3.154
REMARK  Name = 
REMARK  10 active torsions:
REMARK  status: ('A' for Active; 'I' for Inactive)
REMARK    1  A    between atoms: C_1  and  O_2
REMARK    2  A    between atoms: O_2  and  C_3
REMARK    3  A    between atoms: C_3  and  C_4
REMARK    4  A    between atoms: C_4  and  C_5
REMARK    5  A    between atoms: C_5  and  O_6
REMARK    6  A    between atoms: O_6  and  C_7
REMARK    7  A    between atoms: C_8  and  C_9
REMARK    8  A    between atoms: C_10  and  C_11
REMARK    9  A    between atoms: C_11  and  S_12
REMARK   10  A    between atoms: S_12  and  C_14
REMARK                            x       y       z     vdW  Elec       q    Type
REMARK                         _______ _______ _______ _____ _____    ______ ____
ROOT
ATOM      1  C   UNL     1       5.563  -4.891  24.068  0.00  0.00    +0.127 A 
ATOM      2  C   UNL     1       5.887  -5.879  23.140  0.00  0.00    +0.065 A 
ATOM      3  C   UNL     1       6.748  -5.562  22.113  0.00  0.00    +0.114 A 
ATOM      4  N   UNL     1       7.338  -4.362  21.978  0.00  0.00    -0.258 NA
ATOM      5  C   UNL     1       7.014  -3.379  22.864  0.00  0.00    +0.060 A 
ATOM      6  C   UNL     1       6.080  -3.588  23.899  0.00  0.00    +0.013 A 
ATOM      7  C   UNL     1       5.655  -2.477  24.819  0.00  0.00    +0.049 C 
ENDROOT
BRANCH   1   8
ATOM      8  O   UNL     1       4.762  -5.119  25.170  0.00  0.00    -0.492 OA
BRANCH   8   9
ATOM      9  C   UNL     1       4.723  -6.474  25.640  0.00  0.00    +0.231 C 
BRANCH   9  10
ATOM     10  C   UNL     1       5.151  -6.557  27.104  0.00  0.00    +0.069 C 
BRANCH  10  11
ATOM     11  C   UNL     1       5.902  -5.292  27.511  0.00  0.00    +0.163 C 
BRANCH  11  13
ATOM     12  C   UNL     1       8.140  -5.174  26.753  0.00  0.00    +0.193 C 
ATOM     13  O   UNL     1       7.265  -5.622  27.781  0.00  0.00    -0.383 OA
ENDBRANCH  11  13
ENDBRANCH  10  11
ENDBRANCH   9  10
ENDBRANCH   8   9
ENDBRANCH   1   8
BRANCH   5  14
ATOM     14  C   UNL     1       7.811  -2.102  22.690  0.00  0.00    +0.167 C 
BRANCH  14  15
ATOM     15  S   UNL     1       9.278  -2.089  23.756  0.00  0.00    +0.095 S 
ATOM     16  O   UNL     1      10.493  -2.526  22.985  0.00  0.00    -0.249 OA
BRANCH  15  17
ATOM     17  C   UNL     1       9.473  -0.375  23.994  0.00  0.00    +0.198 A 
ATOM     18  N   UNL     1       8.600   0.357  24.755  0.00  0.00    -0.331 N 
ATOM     19  H   UNL     1       7.824  -0.036  25.270  0.00  0.00    +0.168 HD
ATOM     20  C   UNL     1       8.901   1.685  24.598  0.00  0.00    +0.067 A 
ATOM     21  C   UNL     1      10.014   1.681  23.763  0.00  0.00    +0.090 A 
ATOM     22  C   UNL     1      10.577   2.911  23.379  0.00  0.00    +0.030 A 
ATOM     23  C   UNL     1       9.989   4.098  23.842  0.00  0.00    +0.002 A 
ATOM     24  C   UNL     1       8.870   4.066  24.676  0.00  0.00    +0.002 A 
ATOM     25  C   UNL     1       8.302   2.852  25.080  0.00  0.00    +0.028 A 
ATOM     26  N   UNL     1      10.373   0.392  23.422  0.00  0.00    -0.220 NA
ENDBRANCH  15  17
ENDBRANCH  14  15
ENDBRANCH   5  14
TORSDOF 8
ENDMDL
MODEL 7
REMARK VINA RESULT:      -6.2      3.612      9.020
REMARK  Name = 
REMARK  10 active torsions:
REMARK  status: ('A' for Active; 'I' for Inactive)
REMARK    1  A    between atoms: C_1  and  O_2
REMARK    2  A    between atoms: O_2  and  C_3
REMARK    3  A    between atoms: C_3  and  C_4
REMARK    4  A    between atoms: C_4  and  C_5
REMARK    5  A    between atoms: C_5  and  O_6
REMARK    6  A    between atoms: O_6  and  C_7
REMARK    7  A    between atoms: C_8  and  C_9
REMARK    8  A    between atoms: C_10  and  C_11
REMARK    9  A    between atoms: C_11  and  S_12
REMARK   10  A    between atoms: S_12  and  C_14
REMARK                            x       y       z     vdW  Elec       q    Type
REMARK                         _______ _______ _______ _____ _____    ______ ____
ROOT
ATOM      1  C   UNL     1       8.372   2.890  23.636  0.00  0.00    +0.127 A 
ATOM      2  C   UNL     1       7.046   2.568  23.921  0.00  0.00    +0.065 A 
ATOM      3  C   UNL     1       6.537   1.383  23.439  0.00  0.00    +0.114 A 
ATOM      4  N   UNL     1       7.262   0.487  22.746  0.00  0.00    -0.258 NA
ATOM      5  C   UNL     1       8.552   0.798  22.441  0.00  0.00    +0.060 A 
ATOM      6  C   UNL     1       9.134   2.024  22.822  0.00  0.00    +0.013 A 
ATOM      7  C   UNL     1      10.528   2.403  22.405  0.00  0.00    +0.049 C 
ENDROOT
BRANCH   1   8
ATOM      8  O   UNL     1       8.999   4.020  24.124  0.00  0.00    -0.492 OA
BRANCH   8   9
ATOM      9  C   UNL     1       8.437   5.273  23.709  0.00  0.00    +0.231 C 
BRANCH   9  10
ATOM     10  C   UNL     1       9.529   6.316  23.485  0.00  0.00    +0.069 C 
BRANCH  10  11
ATOM     11  C   UNL     1      10.871   5.800  24.001  0.00  0.00    +0.163 C 
BRANCH  11  13
ATOM     12  C   UNL     1      12.980   5.055  23.233  0.00  0.00    +0.193 C 
ATOM     13  O   UNL     1      11.823   5.828  22.937  0.00  0.00    -0.383 OA
ENDBRANCH  11  13
ENDBRANCH  10  11
ENDBRANCH   9  10
ENDBRANCH   8   9
ENDBRANCH   1   8
BRANCH   5  14
ATOM     14  C   UNL     1       9.311  -0.320  21.753  0.00  0.00    +0.167 C 
BRANCH  14  15
ATOM     15  S   UNL     1      10.037  -1.463  22.957  0.00  0.00    +0.095 S 
ATOM     16  O   UNL     1      10.108  -0.821  24.316  0.00  0.00    -0.249 OA
BRANCH  15  17
ATOM     17  C   UNL     1       8.760  -2.643  23.072  0.00  0.00    +0.198 A 
ATOM     18  N   UNL     1       7.649  -2.591  22.272  0.00  0.00    -0.331 N 
ATOM     19  H   UNL     1       7.508  -1.913  21.535  0.00  0.00    +0.168 HD
ATOM     20  C   UNL     1       6.751  -3.524  22.722  0.00  0.00    +0.067 A 
ATOM     21  C   UNL     1       7.414  -4.150  23.772  0.00  0.00    +0.090 A 
ATOM     22  C   UNL     1       6.751  -5.167  24.481  0.00  0.00    +0.030 A 
ATOM     23  C   UNL     1       5.441  -5.507  24.111  0.00  0.00    +0.002 A 
ATOM     24  C   UNL     1       4.804  -4.856  23.053  0.00  0.00    +0.002 A 
ATOM     25  C   UNL     1       5.450  -3.849  22.326  0.00  0.00    +0.028 A 
ATOM     26  N   UNL     1       8.672  -3.610  23.957  0.00  0.00    -0.220 NA
ENDBRANCH  15  17
ENDBRANCH  14  15
ENDBRANCH   5  14
TORSDOF 8
ENDMDL
MODEL 8
REMARK VINA RESULT:      -6.1      4.042      9.262
REMARK  Name = 
REMARK  10 active torsions:
REMARK  status: ('A' for Active; 'I' for Inactive)
REMARK    1  A    between atoms: C_1  and  O_2
REMARK    2  A    between atoms: O_2  and  C_3
REMARK    3  A    between atoms: C_3  and  C_4
REMARK    4  A    between atoms: C_4  and  C_5
REMARK    5  A    between atoms: C_5  and  O_6
REMARK    6  A    between atoms: O_6  and  C_7
REMARK    7  A    between atoms: C_8  and  C_9
REMARK    8  A    between atoms: C_10  and  C_11
REMARK    9  A    between atoms: C_11  and  S_12
REMARK   10  A    between atoms: S_12  and  C_14
REMARK                            x       y       z     vdW  Elec       q    Type
REMARK                         _______ _______ _______ _____ _____    ______ ____
ROOT
ATOM      1  C   UNL     1       8.672   3.344  24.603  0.00  0.00    +0.127 A 
ATOM      2  C   UNL     1       7.692   3.001  25.533  0.00  0.00    +0.065 A 
ATOM      3  C   UNL     1       7.601   1.688  25.940  0.00  0.00    +0.114 A 
ATOM      4  N   UNL     1       8.438   0.720  25.529  0.00  0.00    -0.258 NA
ATOM      5  C   UNL     1       9.386   1.036  24.603  0.00  0.00    +0.060 A 
ATOM      6  C   UNL     1       9.502   2.335  24.069  0.00  0.00    +0.013 A 
ATOM      7  C   UNL     1      10.488   2.659  22.980  0.00  0.00    +0.049 C 
ENDROOT
BRANCH   1   8
ATOM      8  O   UNL     1       8.891   4.640  24.177  0.00  0.00    -0.492 OA
BRANCH   8   9
ATOM      9  C   UNL     1       9.021   5.623  25.214  0.00  0.00    +0.231 C 
BRANCH   9  10
ATOM     10  C   UNL     1      10.243   6.507  24.980  0.00  0.00    +0.069 C 
BRANCH  10  11
ATOM     11  C   UNL     1      10.989   6.062  23.723  0.00  0.00    +0.163 C 
BRANCH  11  13
ATOM     12  C   UNL     1      13.098   5.337  22.935  0.00  0.00    +0.193 C 
ATOM     13  O   UNL     1      12.346   5.775  24.061  0.00  0.00    -0.383 OA
ENDBRANCH  11  13
ENDBRANCH  10  11
ENDBRANCH   9  10
ENDBRANCH   8   9
ENDBRANCH   1   8
BRANCH   5  14
ATOM     14  C   UNL     1      10.343  -0.096  24.287  0.00  0.00    +0.167 C 
BRANCH  14  15
ATOM     15  S   UNL     1       9.666  -1.196  23.016  0.00  0.00    +0.095 S 
ATOM     16  O   UNL     1      10.774  -1.921  22.303  0.00  0.00    -0.249 OA
BRANCH  15  17
ATOM     17  C   UNL     1       8.901  -2.396  24.020  0.00  0.00    +0.198 A 
ATOM     18  N   UNL     1       7.655  -2.207  24.557  0.00  0.00    -0.331 N 
ATOM     19  H   UNL     1       7.073  -1.401  24.375  0.00  0.00    +0.168 HD
ATOM     20  C   UNL     1       7.408  -3.224  25.442  0.00  0.00    +0.067 A 
ATOM     21  C   UNL     1       8.537  -4.032  25.348  0.00  0.00    +0.090 A 
ATOM     22  C   UNL     1       8.617  -5.178  26.158  0.00  0.00    +0.030 A 
ATOM     23  C   UNL     1       7.563  -5.461  27.040  0.00  0.00    +0.002 A 
ATOM     24  C   UNL     1       6.446  -4.626  27.110  0.00  0.00    +0.002 A 
ATOM     25  C   UNL     1       6.340  -3.486  26.304  0.00  0.00    +0.028 A 
ATOM     26  N   UNL     1       9.441  -3.518  24.439  0.00  0.00    -0.220 NA
ENDBRANCH  15  17
ENDBRANCH  14  15
ENDBRANCH   5  14
TORSDOF 8
ENDMDL
MODEL 9
REMARK VINA RESULT:      -6.1      1.373      2.468
REMARK  Name = 
REMARK  10 active torsions:
REMARK  status: ('A' for Active; 'I' for Inactive)
REMARK    1  A    between atoms: C_1  and  O_2
REMARK    2  A    between atoms: O_2  and  C_3
REMARK    3  A    between atoms: C_3  and  C_4
REMARK    4  A    between atoms: C_4  and  C_5
REMARK    5  A    between atoms: C_5  and  O_6
REMARK    6  A    between atoms: O_6  and  C_7
REMARK    7  A    between atoms: C_8  and  C_9
REMARK    8  A    between atoms: C_10  and  C_11
REMARK    9  A    between atoms: C_11  and  S_12
REMARK   10  A    between atoms: S_12  and  C_14
REMARK                            x       y       z     vdW  Elec       q    Type
REMARK                         _______ _______ _______ _____ _____    ______ ____
ROOT
ATOM      1  C   UNL     1       4.880  -6.778  25.091  0.00  0.00    +0.127 A 
ATOM      2  C   UNL     1       4.968  -6.698  26.480  0.00  0.00    +0.065 A 
ATOM      3  C   UNL     1       5.813  -5.763  27.035  0.00  0.00    +0.114 A 
ATOM      4  N   UNL     1       6.526  -4.881  26.313  0.00  0.00    -0.258 NA
ATOM      5  C   UNL     1       6.467  -4.961  24.954  0.00  0.00    +0.060 A 
ATOM      6  C   UNL     1       5.693  -5.939  24.298  0.00  0.00    +0.013 A 
ATOM      7  C   UNL     1       5.702  -6.083  22.801  0.00  0.00    +0.049 C 
ENDROOT
BRANCH   1   8
ATOM      8  O   UNL     1       4.018  -7.634  24.434  0.00  0.00    -0.492 OA
BRANCH   8   9
ATOM      9  C   UNL     1       2.620  -7.353  24.593  0.00  0.00    +0.231 C 
BRANCH   9  10
ATOM     10  C   UNL     1       1.792  -8.633  24.509  0.00  0.00    +0.069 C 
BRANCH  10  11
ATOM     11  C   UNL     1       0.574  -8.420  23.612  0.00  0.00    +0.163 C 
BRANCH  11  13
ATOM     12  C   UNL     1       0.993  -8.197  21.295  0.00  0.00    +0.193 C 
ATOM     13  O   UNL     1       0.924  -7.532  22.550  0.00  0.00    -0.383 OA
ENDBRANCH  11  13
ENDBRANCH  10  11
ENDBRANCH   9  10
ENDBRANCH   8   9
ENDBRANCH   1   8
BRANCH   5  14
ATOM     14  C   UNL     1       7.220  -3.858  24.237  0.00  0.00    +0.167 C 
BRANCH  14  15
ATOM     15  S   UNL     1       8.737  -3.410  25.124  0.00  0.00    +0.095 S 
ATOM     16  O   UNL     1       9.897  -4.229  24.630  0.00  0.00    -0.249 OA
BRANCH  15  17
ATOM     17  C   UNL     1       9.001  -1.808  24.496  0.00  0.00    +0.198 A 
ATOM     18  N   UNL     1       8.941  -1.534  23.154  0.00  0.00    -0.331 N 
ATOM     19  H   UNL     1       8.692  -2.211  22.446  0.00  0.00    +0.168 HD
ATOM     20  C   UNL     1       9.377  -0.250  22.957  0.00  0.00    +0.067 A 
ATOM     21  C   UNL     1       9.634   0.219  24.241  0.00  0.00    +0.090 A 
ATOM     22  C   UNL     1      10.126   1.526  24.398  0.00  0.00    +0.030 A 
ATOM     23  C   UNL     1      10.350   2.308  23.254  0.00  0.00    +0.002 A 
ATOM     24  C   UNL     1      10.083   1.805  21.979  0.00  0.00    +0.002 A 
ATOM     25  C   UNL     1       9.582   0.510  21.801  0.00  0.00    +0.028 A 
ATOM     26  N   UNL     1       9.368  -0.752  25.186  0.00  0.00    -0.220 NA
ENDBRANCH  15  17
ENDBRANCH  14  15
ENDBRANCH   5  14
TORSDOF 8
ENDMDL
