MODEL 1
REMARK VINA RESULT:      -6.2      0.000      0.000
REMARK  Name = 
REMARK  12 active torsions:
REMARK  status: ('A' for Active; 'I' for Inactive)
REMARK    1  A    between atoms: O_1  and  C_2
REMARK    2  A    between atoms: C_2  and  C_3
REMARK    3  A    between atoms: C_6  and  O_8
REMARK    4  A    between atoms: O_8  and  C_9
REMARK    5  A    between atoms: C_11  and  O_13
REMARK    6  A    between atoms: C_14  and  O_16
REMARK    7  A    between atoms: C_17  and  O_19
REMARK    8  A    between atoms: C_21  and  C_23
REMARK    9  A    between atoms: C_23  and  O_24
REMARK   10  A    between atoms: C_25  and  O_27
REMARK   11  A    between atoms: C_28  and  O_30
REMARK   12  A    between atoms: C_31  and  O_33
REMARK                            x       y       z     vdW  Elec       q    Type
REMARK                         _______ _______ _______ _____ _____    ______ ____
ROOT
ATOM      1  O   UNL     1       8.614  -1.207  23.861  0.00  0.00    -0.340 OA
ENDROOT
BRANCH   1   6
ATOM      2  C   UNL     1       8.750  -3.934  25.011  0.00  0.00    +0.178 C 
ATOM      3  C   UNL     1       7.798  -4.707  24.089  0.00  0.00    +0.177 C 
ATOM      4  C   UNL     1       7.211  -3.758  23.034  0.00  0.00    +0.179 C 
ATOM      5  C   UNL     1       6.604  -2.516  23.693  0.00  0.00    +0.201 C 
ATOM      6  C   UNL     1       7.616  -1.848  24.653  0.00  0.00    +0.282 C 
ATOM      7  O   UNL     1       8.110  -2.790  25.590  0.00  0.00    -0.341 OA
BRANCH   3   8
ATOM      8  O   UNL     1       8.495  -5.797  23.471  0.00  0.00    -0.386 OA
ATOM      9  H   UNL     1       8.605  -5.592  22.525  0.00  0.00    +0.210 HD
ENDBRANCH   3   8
BRANCH   4  10
ATOM     10  O   UNL     1       6.196  -4.426  22.268  0.00  0.00    -0.386 OA
ATOM     11  H   UNL     1       6.663  -4.922  21.568  0.00  0.00    +0.210 HD
ENDBRANCH   4  10
BRANCH   5  12
ATOM     12  O   UNL     1       6.173  -1.614  22.656  0.00  0.00    -0.384 OA
ATOM     13  H   UNL     1       5.230  -1.805  22.497  0.00  0.00    +0.210 HD
ENDBRANCH   5  12
BRANCH   2  14
ATOM     14  C   UNL     1       9.251  -4.825  26.159  0.00  0.00    +0.190 C 
BRANCH  14  15
ATOM     15  O   UNL     1      10.374  -5.590  25.711  0.00  0.00    -0.392 OA
ATOM     16  H   UNL     1      10.203  -6.514  25.957  0.00  0.00    +0.210 HD
ENDBRANCH  14  15
ENDBRANCH   2  14
ENDBRANCH   1   6
BRANCH   1  17
ATOM     17  C   UNL     1       8.941   0.168  24.151  0.00  0.00    +0.183 C 
ATOM     18  C   UNL     1       7.840   1.212  23.808  0.00  0.00    +0.178 C 
ATOM     19  O   UNL     1       7.488   1.183  22.412  0.00  0.00    -0.341 OA
ATOM     20  C   UNL     1       8.587   1.460  21.541  0.00  0.00    +0.279 C 
ATOM     21  C   UNL     1       9.723   0.445  21.746  0.00  0.00    +0.201 C 
ATOM     22  C   UNL     1      10.156   0.471  23.230  0.00  0.00    +0.179 C 
BRANCH  20  23
ATOM     23  O   UNL     1       9.071   2.785  21.734  0.00  0.00    -0.365 OA
ATOM     24  H   UNL     1       8.331   3.287  22.124  0.00  0.00    +0.213 HD
ENDBRANCH  20  23
BRANCH  21  25
ATOM     25  O   UNL     1       9.253  -0.857  21.354  0.00  0.00    -0.384 OA
ATOM     26  H   UNL     1       9.358  -1.413  22.156  0.00  0.00    +0.210 HD
ENDBRANCH  21  25
BRANCH  22  27
ATOM     27  O   UNL     1      10.779   1.719  23.562  0.00  0.00    -0.386 OA
ATOM     28  H   UNL     1      11.747   1.612  23.496  0.00  0.00    +0.210 HD
ENDBRANCH  22  27
BRANCH  18  29
ATOM     29  C   UNL     1       6.550   1.137  24.627  0.00  0.00    +0.190 C 
BRANCH  29  30
ATOM     30  O   UNL     1       5.422   1.029  23.778  0.00  0.00    -0.392 OA
ATOM     31  H   UNL     1       5.579   1.592  22.999  0.00  0.00    +0.210 HD
ENDBRANCH  29  30
ENDBRANCH  18  29
ENDBRANCH   1  17
TORSDOF 12
ENDMDL
MODEL 2
REMARK VINA RESULT:      -6.1      1.600      5.801
REMARK  Name = 
REMARK  12 active torsions:
REMARK  status: ('A' for Active; 'I' for Inactive)
REMARK    1  A    between atoms: O_1  and  C_2
REMARK    2  A    between atoms: C_2  and  C_3
REMARK    3  A    between atoms: C_6  and  O_8
REMARK    4  A    between atoms: O_8  and  C_9
REMARK    5  A    between atoms: C_11  and  O_13
REMARK    6  A    between atoms: C_14  and  O_16
REMARK    7  A    between atoms: C_17  and  O_19
REMARK    8  A    between atoms: C_21  and  C_23
REMARK    9  A    between atoms: C_23  and  O_24
REMARK   10  A    between atoms: C_25  and  O_27
REMARK   11  A    between atoms: C_28  and  O_30
REMARK   12  A    between atoms: C_31  and  O_33
REMARK                            x       y       z     vdW  Elec       q    Type
REMARK                         _______ _______ _______ _____ _____    ______ ____
ROOT
ATOM      1  O   UNL     1       7.731  -3.064  24.046  0.00  0.00    -0.340 OA
ENDROOT
BRANCH   1   6
ATOM      2  C   UNL     1       9.423  -0.635  23.944  0.00  0.00    +0.178 C 
ATOM      3  C   UNL     1       8.409   0.431  23.507  0.00  0.00    +0.177 C 
ATOM      4  C   UNL     1       7.029  -0.213  23.311  0.00  0.00    +0.179 C 
ATOM      5  C   UNL     1       7.122  -1.433  22.388  0.00  0.00    +0.201 C 
ATOM      6  C   UNL     1       8.215  -2.412  22.874  0.00  0.00    +0.282 C 
ATOM      7  O   UNL     1       9.452  -1.740  23.032  0.00  0.00    -0.341 OA
BRANCH   3   8
ATOM      8  O   UNL     1       8.353   1.480  24.482  0.00  0.00    -0.386 OA
ATOM      9  H   UNL     1       8.006   2.281  24.051  0.00  0.00    +0.210 HD
ENDBRANCH   3   8
BRANCH   4  10
ATOM     10  O   UNL     1       6.109   0.733  22.745  0.00  0.00    -0.386 OA
ATOM     11  H   UNL     1       5.216   0.359  22.876  0.00  0.00    +0.210 HD
ENDBRANCH   4  10
BRANCH   5  12
ATOM     12  O   UNL     1       5.827  -2.061  22.332  0.00  0.00    -0.384 OA
ATOM     13  H   UNL     1       5.463  -1.864  21.448  0.00  0.00    +0.210 HD
ENDBRANCH   5  12
BRANCH   2  14
ATOM     14  C   UNL     1      10.841  -0.047  24.020  0.00  0.00    +0.190 C 
BRANCH  14  15
ATOM     15  O   UNL     1      10.998   0.657  25.255  0.00  0.00    -0.392 OA
ATOM     16  H   UNL     1      11.880   0.437  25.597  0.00  0.00    +0.210 HD
ENDBRANCH  14  15
ENDBRANCH   2  14
ENDBRANCH   1   6
BRANCH   1  17
ATOM     17  C   UNL     1       8.057  -4.456  24.241  0.00  0.00    +0.183 C 
ATOM     18  C   UNL     1       6.918  -5.344  24.820  0.00  0.00    +0.178 C 
ATOM     19  O   UNL     1       6.465  -4.867  26.102  0.00  0.00    -0.341 OA
ATOM     20  C   UNL     1       7.493  -4.838  27.095  0.00  0.00    +0.279 C 
ATOM     21  C   UNL     1       8.656  -3.934  26.658  0.00  0.00    +0.201 C 
ATOM     22  C   UNL     1       9.197  -4.434  25.298  0.00  0.00    +0.179 C 
BRANCH  20  23
ATOM     23  O   UNL     1       7.969  -6.150  27.377  0.00  0.00    -0.365 OA
ATOM     24  H   UNL     1       7.182  -6.677  27.609  0.00  0.00    +0.213 HD
ENDBRANCH  20  23
BRANCH  21  25
ATOM     25  O   UNL     1       8.179  -2.579  26.571  0.00  0.00    -0.384 OA
ATOM     26  H   UNL     1       8.948  -2.061  26.250  0.00  0.00    +0.210 HD
ENDBRANCH  21  25
BRANCH  22  27
ATOM     27  O   UNL     1       9.823  -5.716  25.435  0.00  0.00    -0.386 OA
ATOM     28  H   UNL     1       9.905  -5.924  26.386  0.00  0.00    +0.210 HD
ENDBRANCH  22  27
BRANCH  18  29
ATOM     29  C   UNL     1       5.693  -5.549  23.927  0.00  0.00    +0.190 C 
BRANCH  29  30
ATOM     30  O   UNL     1       5.870  -4.906  22.678  0.00  0.00    -0.392 OA
ATOM     31  H   UNL     1       5.762  -3.949  22.815  0.00  0.00    +0.210 HD
ENDBRANCH  29  30
ENDBRANCH  18  29
ENDBRANCH   1  17
TORSDOF 12
ENDMDL
MODEL 3
REMARK VINA RESULT:      -6.1      2.214      3.876
REMARK  Name = 
REMARK  12 active torsions:
REMARK  status: ('A' for Active; 'I' for Inactive)
REMARK    1  A    between atoms: O_1  and  C_2
REMARK    2  A    between atoms: C_2  and  C_3
REMARK    3  A    between atoms: C_6  and  O_8
REMARK    4  A    between atoms: O_8  and  C_9
REMARK    5  A    between atoms: C_11  and  O_13
REMARK    6  A    between atoms: C_14  and  O_16
REMARK    7  A    between atoms: C_17  and  O_19
REMARK    8  A    between atoms: C_21  and  C_23
REMARK    9  A    between atoms: C_23  and  O_24
REMARK   10  A    between atoms: C_25  and  O_27
REMARK   11  A    between atoms: C_28  and  O_30
REMARK   12  A    between atoms: C_31  and  O_33
REMARK                            x       y       z     vdW  Elec       q    Type
REMARK                         _______ _______ _______ _____ _____    ______ ____
ROOT
ATOM      1  O   UNL     1       8.173  -3.275  24.627  0.00  0.00    -0.340 OA
ENDROOT
BRANCH   1   6
ATOM      2  C   UNL     1       5.993  -5.272  24.440  0.00  0.00    +0.178 C 
ATOM      3  C   UNL     1       6.081  -5.956  25.811  0.00  0.00    +0.177 C 
ATOM      4  C   UNL     1       7.221  -5.335  26.630  0.00  0.00    +0.179 C 
ATOM      5  C   UNL     1       8.527  -5.328  25.829  0.00  0.00    +0.201 C 
ATOM      6  C   UNL     1       8.320  -4.682  24.439  0.00  0.00    +0.282 C 
ATOM      7  O   UNL     1       7.250  -5.308  23.753  0.00  0.00    -0.341 OA
BRANCH   3   8
ATOM      8  O   UNL     1       4.828  -5.832  26.498  0.00  0.00    -0.386 OA
ATOM      9  H   UNL     1       4.975  -5.320  27.313  0.00  0.00    +0.210 HD
ENDBRANCH   3   8
BRANCH   4  10
ATOM     10  O   UNL     1       7.423  -6.070  27.848  0.00  0.00    -0.386 OA
ATOM     11  H   UNL     1       7.605  -5.407  28.541  0.00  0.00    +0.210 HD
ENDBRANCH   4  10
BRANCH   5  12
ATOM     12  O   UNL     1       9.530  -4.635  26.598  0.00  0.00    -0.384 OA
ATOM     13  H   UNL     1       9.131  -3.788  26.871  0.00  0.00    +0.210 HD
ENDBRANCH   5  12
BRANCH   2  14
ATOM     14  C   UNL     1       4.948  -5.960  23.548  0.00  0.00    +0.190 C 
BRANCH  14  15
ATOM     15  O   UNL     1       4.779  -7.316  23.972  0.00  0.00    -0.392 OA
ATOM     16  H   UNL     1       4.326  -7.289  24.831  0.00  0.00    +0.210 HD
ENDBRANCH  14  15
ENDBRANCH   2  14
ENDBRANCH   1   6
BRANCH   1  17
ATOM     17  C   UNL     1       9.237  -2.409  24.181  0.00  0.00    +0.183 C 
ATOM     18  C   UNL     1       9.139  -0.925  24.638  0.00  0.00    +0.178 C 
ATOM     19  O   UNL     1       7.919  -0.305  24.189  0.00  0.00    -0.341 OA
ATOM     20  C   UNL     1       7.773  -0.296  22.768  0.00  0.00    +0.279 C 
ATOM     21  C   UNL     1       7.792  -1.724  22.202  0.00  0.00    +0.201 C 
ATOM     22  C   UNL     1       9.107  -2.416  22.632  0.00  0.00    +0.179 C 
BRANCH  20  23
ATOM     23  O   UNL     1       8.790   0.490  22.155  0.00  0.00    -0.365 OA
ATOM     24  H   UNL     1       9.190   1.018  22.871  0.00  0.00    +0.213 HD
ENDBRANCH  20  23
BRANCH  21  25
ATOM     25  O   UNL     1       6.638  -2.429  22.693  0.00  0.00    -0.384 OA
ATOM     26  H   UNL     1       5.884  -2.064  22.182  0.00  0.00    +0.210 HD
ENDBRANCH  21  25
BRANCH  22  27
ATOM     27  O   UNL     1      10.238  -1.806  21.998  0.00  0.00    -0.386 OA
ATOM     28  H   UNL     1      10.111  -0.838  21.995  0.00  0.00    +0.210 HD
ENDBRANCH  22  27
BRANCH  18  29
ATOM     29  C   UNL     1       9.284  -0.663  26.138  0.00  0.00    +0.190 C 
BRANCH  29  30
ATOM     30  O   UNL     1       8.619  -1.663  26.889  0.00  0.00    -0.392 OA
ATOM     31  H   UNL     1       9.256  -2.032  27.525  0.00  0.00    +0.210 HD
ENDBRANCH  29  30
ENDBRANCH  18  29
ENDBRANCH   1  17
TORSDOF 12
ENDMDL
MODEL 4
REMARK VINA RESULT:      -5.9      1.916      3.712
REMARK  Name = 
REMARK  12 active torsions:
REMARK  status: ('A' for Active; 'I' for Inactive)
REMARK    1  A    between atoms: O_1  and  C_2
REMARK    2  A    between atoms: C_2  and  C_3
REMARK    3  A    between atoms: C_6  and  O_8
REMARK    4  A    between atoms: O_8  and  C_9
REMARK    5  A    between atoms: C_11  and  O_13
REMARK    6  A    between atoms: C_14  and  O_16
REMARK    7  A    between atoms: C_17  and  O_19
REMARK    8  A    between atoms: C_21  and  C_23
REMARK    9  A    between atoms: C_23  and  O_24
REMARK   10  A    between atoms: C_25  and  O_27
REMARK   11  A    between atoms: C_28  and  O_30
REMARK   12  A    between atoms: C_31  and  O_33
REMARK                            x       y       z     vdW  Elec       q    Type
REMARK                         _______ _______ _______ _____ _____    ______ ____
ROOT
ATOM      1  O   UNL     1       7.795  -2.146  24.696  0.00  0.00    -0.340 OA
ENDROOT
BRANCH   1   6
ATOM      2  C   UNL     1       6.566  -4.605  25.802  0.00  0.00    +0.178 C 
ATOM      3  C   UNL     1       7.806  -5.438  26.156  0.00  0.00    +0.177 C 
ATOM      4  C   UNL     1       9.078  -4.664  25.781  0.00  0.00    +0.179 C 
ATOM      5  C   UNL     1       9.017  -4.184  24.328  0.00  0.00    +0.201 C 
ATOM      6  C   UNL     1       7.703  -3.416  24.053  0.00  0.00    +0.282 C 
ATOM      7  O   UNL     1       6.582  -4.197  24.428  0.00  0.00    -0.341 OA
BRANCH   3   8
ATOM      8  O   UNL     1       7.793  -5.762  27.553  0.00  0.00    -0.386 OA
ATOM      9  H   UNL     1       7.303  -6.595  27.669  0.00  0.00    +0.210 HD
ENDBRANCH   3   8
BRANCH   4  10
ATOM     10  O   UNL     1      10.239  -5.492  25.953  0.00  0.00    -0.386 OA
ATOM     11  H   UNL     1      10.792  -5.052  26.628  0.00  0.00    +0.210 HD
ENDBRANCH   4  10
BRANCH   5  12
ATOM     12  O   UNL     1      10.177  -3.371  24.067  0.00  0.00    -0.384 OA
ATOM     13  H   UNL     1      10.911  -3.988  23.886  0.00  0.00    +0.210 HD
ENDBRANCH   5  12
BRANCH   2  14
ATOM     14  C   UNL     1       5.277  -5.406  26.043  0.00  0.00    +0.190 C 
BRANCH  14  15
ATOM     15  O   UNL     1       5.196  -6.472  25.092  0.00  0.00    -0.392 OA
ATOM     16  H   UNL     1       4.684  -6.139  24.337  0.00  0.00    +0.210 HD
ENDBRANCH  14  15
ENDBRANCH   2  14
ENDBRANCH   1   6
BRANCH   1  17
ATOM     17  C   UNL     1       7.493  -0.964  23.926  0.00  0.00    +0.183 C 
ATOM     18  C   UNL     1       8.618  -0.473  22.970  0.00  0.00    +0.178 C 
ATOM     19  O   UNL     1       9.834  -0.174  23.682  0.00  0.00    -0.341 OA
ATOM     20  C   UNL     1       9.678   0.845  24.673  0.00  0.00    +0.279 C 
ATOM     21  C   UNL     1       8.627   0.441  25.718  0.00  0.00    +0.201 C 
ATOM     22  C   UNL     1       7.292   0.145  24.997  0.00  0.00    +0.179 C 
BRANCH  20  23
ATOM     23  O   UNL     1       9.328   2.089  24.076  0.00  0.00    -0.365 OA
ATOM     24  H   UNL     1       8.507   2.377  24.517  0.00  0.00    +0.213 HD
ENDBRANCH  20  23
BRANCH  21  25
ATOM     25  O   UNL     1       9.108  -0.710  26.435  0.00  0.00    -0.384 OA
ATOM     26  H   UNL     1       8.879  -0.536  27.373  0.00  0.00    +0.210 HD
ENDBRANCH  21  25
BRANCH  22  27
ATOM     27  O   UNL     1       6.738   1.340  24.431  0.00  0.00    -0.386 OA
ATOM     28  H   UNL     1       5.814   1.162  24.169  0.00  0.00    +0.210 HD
ENDBRANCH  22  27
BRANCH  18  29
ATOM     29  C   UNL     1       8.965  -1.392  21.798  0.00  0.00    +0.190 C 
BRANCH  29  30
ATOM     30  O   UNL     1      10.356  -1.658  21.763  0.00  0.00    -0.392 OA
ATOM     31  H   UNL     1      10.652  -1.822  22.676  0.00  0.00    +0.210 HD
ENDBRANCH  29  30
ENDBRANCH  18  29
ENDBRANCH   1  17
TORSDOF 12
ENDMDL
MODEL 5
REMARK VINA RESULT:      -5.9      1.697      5.950
REMARK  Name = 
REMARK  12 active torsions:
REMARK  status: ('A' for Active; 'I' for Inactive)
REMARK    1  A    between atoms: O_1  and  C_2
REMARK    2  A    between atoms: C_2  and  C_3
REMARK    3  A    between atoms: C_6  and  O_8
REMARK    4  A    between atoms: O_8  and  C_9
REMARK    5  A    between atoms: C_11  and  O_13
REMARK    6  A    between atoms: C_14  and  O_16
REMARK    7  A    between atoms: C_17  and  O_19
REMARK    8  A    between atoms: C_21  and  C_23
REMARK    9  A    between atoms: C_23  and  O_24
REMARK   10  A    between atoms: C_25  and  O_27
REMARK   11  A    between atoms: C_28  and  O_30
REMARK   12  A    between atoms: C_31  and  O_33
REMARK                            x       y       z     vdW  Elec       q    Type
REMARK                         _______ _______ _______ _____ _____    ______ ____
ROOT
ATOM      1  O   UNL     1       8.477  -2.357  24.119  0.00  0.00    -0.340 OA
ENDROOT
BRANCH   1   6
ATOM      2  C   UNL     1       8.091   0.521  24.705  0.00  0.00    +0.178 C 
ATOM      3  C   UNL     1       8.361   1.155  23.334  0.00  0.00    +0.177 C 
ATOM      4  C   UNL     1       8.712   0.061  22.315  0.00  0.00    +0.179 C 
ATOM      5  C   UNL     1       9.834  -0.838  22.842  0.00  0.00    +0.201 C 
ATOM      6  C   UNL     1       9.499  -1.371  24.254  0.00  0.00    +0.282 C 
ATOM      7  O   UNL     1       9.185  -0.302  25.129  0.00  0.00    -0.341 OA
BRANCH   3   8
ATOM      8  O   UNL     1       7.216   1.906  22.910  0.00  0.00    -0.386 OA
ATOM      9  H   UNL     1       6.917   1.551  22.053  0.00  0.00    +0.210 HD
ENDBRANCH   3   8
BRANCH   4  10
ATOM     10  O   UNL     1       9.126   0.648  21.071  0.00  0.00    -0.386 OA
ATOM     11  H   UNL     1       9.170  -0.083  20.424  0.00  0.00    +0.210 HD
ENDBRANCH   4  10
BRANCH   5  12
ATOM     12  O   UNL     1      10.042  -1.908  21.900  0.00  0.00    -0.384 OA
ATOM     13  H   UNL     1      10.496  -1.514  21.131  0.00  0.00    +0.210 HD
ENDBRANCH   5  12
BRANCH   2  14
ATOM     14  C   UNL     1       7.868   1.600  25.776  0.00  0.00    +0.190 C 
BRANCH  14  15
ATOM     15  O   UNL     1       8.548   2.798  25.392  0.00  0.00    -0.392 OA
ATOM     16  H   UNL     1       8.158   3.523  25.908  0.00  0.00    +0.210 HD
ENDBRANCH  14  15
ENDBRANCH   2  14
ENDBRANCH   1   6
BRANCH   1  17
ATOM     17  C   UNL     1       8.821  -3.738  24.359  0.00  0.00    +0.183 C 
ATOM     18  C   UNL     1       7.728  -4.782  23.990  0.00  0.00    +0.178 C 
ATOM     19  O   UNL     1       6.503  -4.555  24.712  0.00  0.00    -0.341 OA
ATOM     20  C   UNL     1       6.658  -4.622  26.132  0.00  0.00    +0.279 C 
ATOM     21  C   UNL     1       7.676  -3.584  26.626  0.00  0.00    +0.201 C 
ATOM     22  C   UNL     1       9.021  -3.816  25.899  0.00  0.00    +0.179 C 
BRANCH  20  23
ATOM     23  O   UNL     1       7.048  -5.929  26.541  0.00  0.00    -0.365 OA
ATOM     24  H   UNL     1       7.413  -6.362  25.748  0.00  0.00    +0.213 HD
ENDBRANCH  20  23
BRANCH  21  25
ATOM     25  O   UNL     1       7.155  -2.268  26.367  0.00  0.00    -0.384 OA
ATOM     26  H   UNL     1       6.720  -2.000  27.206  0.00  0.00    +0.210 HD
ENDBRANCH  21  25
BRANCH  22  27
ATOM     27  O   UNL     1       9.613  -5.059  26.298  0.00  0.00    -0.386 OA
ATOM     28  H   UNL     1       9.764  -5.603  25.502  0.00  0.00    +0.210 HD
ENDBRANCH  22  27
BRANCH  18  29
ATOM     29  C   UNL     1       7.389  -4.916  22.505  0.00  0.00    +0.190 C 
BRANCH  29  30
ATOM     30  O   UNL     1       7.480  -3.662  21.853  0.00  0.00    -0.392 OA
ATOM     31  H   UNL     1       8.238  -3.183  22.232  0.00  0.00    +0.210 HD
ENDBRANCH  29  30
ENDBRANCH  18  29
ENDBRANCH   1  17
TORSDOF 12
ENDMDL
MODEL 6
REMARK VINA RESULT:      -5.8      1.998      3.217
REMARK  Name = 
REMARK  12 active torsions:
REMARK  status: ('A' for Active; 'I' for Inactive)
REMARK    1  A    between atoms: O_1  and  C_2
REMARK    2  A    between atoms: C_2  and  C_3
REMARK    3  A    between atoms: C_6  and  O_8
REMARK    4  A    between atoms: O_8  and  C_9
REMARK    5  A    between atoms: C_11  and  O_13
REMARK    6  A    between atoms: C_14  and  O_16
REMARK    7  A    between atoms: C_17  and  O_19
REMARK    8  A    between atoms: C_21  and  C_23
REMARK    9  A    between atoms: C_23  and  O_24
REMARK   10  A    between atoms: C_25  and  O_27
REMARK   11  A    between atoms: C_28  and  O_30
REMARK   12  A    between atoms: C_31  and  O_33
REMARK                            x       y       z     vdW  Elec       q    Type
REMARK                         _______ _______ _______ _____ _____    ______ ____
ROOT
ATOM      1  O   UNL     1       7.814  -0.939  22.843  0.00  0.00    -0.340 OA
ENDROOT
BRANCH   1   6
ATOM      2  C   UNL     1       6.816  -3.697  22.421  0.00  0.00    +0.178 C 
ATOM      3  C   UNL     1       5.596  -3.730  23.351  0.00  0.00    +0.177 C 
ATOM      4  C   UNL     1       5.449  -2.380  24.066  0.00  0.00    +0.179 C 
ATOM      5  C   UNL     1       6.763  -1.974  24.742  0.00  0.00    +0.201 C 
ATOM      6  C   UNL     1       7.942  -2.038  23.743  0.00  0.00    +0.282 C 
ATOM      7  O   UNL     1       8.004  -3.312  23.126  0.00  0.00    -0.341 OA
BRANCH   3   8
ATOM      8  O   UNL     1       4.417  -4.043  22.596  0.00  0.00    -0.386 OA
ATOM      9  H   UNL     1       4.369  -3.434  21.838  0.00  0.00    +0.210 HD
ENDBRANCH   3   8
BRANCH   4  10
ATOM     10  O   UNL     1       4.413  -2.447  25.059  0.00  0.00    -0.386 OA
ATOM     11  H   UNL     1       4.708  -1.884  25.801  0.00  0.00    +0.210 HD
ENDBRANCH   4  10
BRANCH   5  12
ATOM     12  O   UNL     1       6.602  -0.655  25.297  0.00  0.00    -0.384 OA
ATOM     13  H   UNL     1       7.227  -0.591  26.044  0.00  0.00    +0.210 HD
ENDBRANCH   5  12
BRANCH   2  14
ATOM     14  C   UNL     1       7.067  -5.076  21.792  0.00  0.00    +0.190 C 
BRANCH  14  15
ATOM     15  O   UNL     1       6.088  -5.320  20.778  0.00  0.00    -0.392 OA
ATOM     16  H   UNL     1       6.557  -5.327  19.927  0.00  0.00    +0.210 HD
ENDBRANCH  14  15
ENDBRANCH   2  14
ENDBRANCH   1   6
BRANCH   1  17
ATOM     17  C   UNL     1       8.941  -0.053  22.677  0.00  0.00    +0.183 C 
ATOM     18  C   UNL     1       9.446   0.648  23.970  0.00  0.00    +0.178 C 
ATOM     19  O   UNL     1       8.416   1.443  24.588  0.00  0.00    -0.341 OA
ATOM     20  C   UNL     1       7.910   2.478  23.742  0.00  0.00    +0.279 C 
ATOM     21  C   UNL     1       7.321   1.896  22.448  0.00  0.00    +0.201 C 
ATOM     22  C   UNL     1       8.410   1.062  21.733  0.00  0.00    +0.179 C 
BRANCH  20  23
ATOM     23  O   UNL     1       8.925   3.429  23.437  0.00  0.00    -0.365 OA
ATOM     24  H   UNL     1       8.460   4.234  23.144  0.00  0.00    +0.213 HD
ENDBRANCH  20  23
BRANCH  21  25
ATOM     25  O   UNL     1       6.176   1.092  22.784  0.00  0.00    -0.384 OA
ATOM     26  H   UNL     1       6.131   1.116  23.764  0.00  0.00    +0.210 HD
ENDBRANCH  21  25
BRANCH  22  27
ATOM     27  O   UNL     1       9.467   1.902  21.253  0.00  0.00    -0.386 OA
ATOM     28  H   UNL     1       9.707   1.618  20.350  0.00  0.00    +0.210 HD
ENDBRANCH  22  27
BRANCH  18  29
ATOM     29  C   UNL     1      10.059  -0.256  25.041  0.00  0.00    +0.190 C 
BRANCH  29  30
ATOM     30  O   UNL     1       9.382  -0.101  26.275  0.00  0.00    -0.392 OA
ATOM     31  H   UNL     1       9.825  -0.667  26.932  0.00  0.00    +0.210 HD
ENDBRANCH  29  30
ENDBRANCH  18  29
ENDBRANCH   1  17
TORSDOF 12
ENDMDL
MODEL 7
REMARK VINA RESULT:      -5.7      1.805      3.990
REMARK  Name = 
REMARK  12 active torsions:
REMARK  status: ('A' for Active; 'I' for Inactive)
REMARK    1  A    between atoms: O_1  and  C_2
REMARK    2  A    between atoms: C_2  and  C_3
REMARK    3  A    between atoms: C_6  and  O_8
REMARK    4  A    between atoms: O_8  and  C_9
REMARK    5  A    between atoms: C_11  and  O_13
REMARK    6  A    between atoms: C_14  and  O_16
REMARK    7  A    between atoms: C_17  and  O_19
REMARK    8  A    between atoms: C_21  and  C_23
REMARK    9  A    between atoms: C_23  and  O_24
REMARK   10  A    between atoms: C_25  and  O_27
REMARK   11  A    between atoms: C_28  and  O_30
REMARK   12  A    between atoms: C_31  and  O_33
REMARK                            x       y       z     vdW  Elec       q    Type
REMARK                         _______ _______ _______ _____ _____    ______ ____
ROOT
ATOM      1  O   UNL     1       8.166  -2.457  23.946  0.00  0.00    -0.340 OA
ENDROOT
BRANCH   1   6
ATOM      2  C   UNL     1       5.772  -4.126  24.458  0.00  0.00    +0.178 C 
ATOM      3  C   UNL     1       6.321  -5.159  25.451  0.00  0.00    +0.177 C 
ATOM      4  C   UNL     1       7.809  -4.887  25.715  0.00  0.00    +0.179 C 
ATOM      5  C   UNL     1       8.587  -4.781  24.399  0.00  0.00    +0.201 C 
ATOM      6  C   UNL     1       7.918  -3.768  23.441  0.00  0.00    +0.282 C 
ATOM      7  O   UNL     1       6.550  -4.088  23.255  0.00  0.00    -0.341 OA
BRANCH   3   8
ATOM      8  O   UNL     1       5.565  -5.113  26.669  0.00  0.00    -0.386 OA
ATOM      9  H   UNL     1       4.699  -4.711  26.476  0.00  0.00    +0.210 HD
ENDBRANCH   3   8
BRANCH   4  10
ATOM     10  O   UNL     1       8.378  -5.938  26.512  0.00  0.00    -0.386 OA
ATOM     11  H   UNL     1       9.347  -5.841  26.443  0.00  0.00    +0.210 HD
ENDBRANCH   4  10
BRANCH   5  12
ATOM     12  O   UNL     1       9.947  -4.415  24.702  0.00  0.00    -0.384 OA
ATOM     13  H   UNL     1      10.513  -4.939  24.105  0.00  0.00    +0.210 HD
ENDBRANCH   5  12
BRANCH   2  14
ATOM     14  C   UNL     1       4.320  -4.450  24.071  0.00  0.00    +0.190 C 
BRANCH  14  15
ATOM     15  O   UNL     1       4.223  -4.571  22.650  0.00  0.00    -0.392 OA
ATOM     16  H   UNL     1       5.125  -4.703  22.314  0.00  0.00    +0.210 HD
ENDBRANCH  14  15
ENDBRANCH   2  14
ENDBRANCH   1   6
BRANCH   1  17
ATOM     17  C   UNL     1       7.579  -1.334  23.256  0.00  0.00    +0.183 C 
ATOM     18  C   UNL     1       8.583  -0.317  22.642  0.00  0.00    +0.178 C 
ATOM     19  O   UNL     1       9.450   0.252  23.642  0.00  0.00    -0.341 OA
ATOM     20  C   UNL     1       8.750   0.952  24.672  0.00  0.00    +0.279 C 
ATOM     21  C   UNL     1       7.765   0.025  25.399  0.00  0.00    +0.201 C 
ATOM     22  C   UNL     1       6.789  -0.581  24.363  0.00  0.00    +0.179 C 
BRANCH  20  23
ATOM     23  O   UNL     1       8.064   2.083  24.145  0.00  0.00    -0.365 OA
ATOM     24  H   UNL     1       8.756   2.701  23.844  0.00  0.00    +0.213 HD
ENDBRANCH  20  23
BRANCH  21  25
ATOM     25  O   UNL     1       8.513  -0.997  26.082  0.00  0.00    -0.384 OA
ATOM     26  H   UNL     1       9.169  -0.509  26.625  0.00  0.00    +0.210 HD
ENDBRANCH  21  25
BRANCH  22  27
ATOM     27  O   UNL     1       5.932   0.429  23.814  0.00  0.00    -0.386 OA
ATOM     28  H   UNL     1       5.224  -0.008  23.302  0.00  0.00    +0.210 HD
ENDBRANCH  22  27
BRANCH  18  29
ATOM     29  C   UNL     1       9.451  -0.827  21.491  0.00  0.00    +0.190 C 
BRANCH  29  30
ATOM     30  O   UNL     1      10.444  -1.717  21.967  0.00  0.00    -0.392 OA
ATOM     31  H   UNL     1      11.228  -1.191  22.204  0.00  0.00    +0.210 HD
ENDBRANCH  29  30
ENDBRANCH  18  29
ENDBRANCH   1  17
TORSDOF 12
ENDMDL
MODEL 8
REMARK VINA RESULT:      -5.7      1.521      5.974
REMARK  Name = 
REMARK  12 active torsions:
REMARK  status: ('A' for Active; 'I' for Inactive)
REMARK    1  A    between atoms: O_1  and  C_2
REMARK    2  A    between atoms: C_2  and  C_3
REMARK    3  A    between atoms: C_6  and  O_8
REMARK    4  A    between atoms: O_8  and  C_9
REMARK    5  A    between atoms: C_11  and  O_13
REMARK    6  A    between atoms: C_14  and  O_16
REMARK    7  A    between atoms: C_17  and  O_19
REMARK    8  A    between atoms: C_21  and  C_23
REMARK    9  A    between atoms: C_23  and  O_24
REMARK   10  A    between atoms: C_25  and  O_27
REMARK   11  A    between atoms: C_28  and  O_30
REMARK   12  A    between atoms: C_31  and  O_33
REMARK                            x       y       z     vdW  Elec       q    Type
REMARK                         _______ _______ _______ _____ _____    ______ ____
ROOT
ATOM      1  O   UNL     1       8.531  -2.322  23.594  0.00  0.00    -0.340 OA
ENDROOT
BRANCH   1   6
ATOM      2  C   UNL     1       8.032   0.435  24.556  0.00  0.00    +0.178 C 
ATOM      3  C   UNL     1       8.321   1.260  23.295  0.00  0.00    +0.177 C 
ATOM      4  C   UNL     1       8.737   0.329  22.147  0.00  0.00    +0.179 C 
ATOM      5  C   UNL     1       9.873  -0.602  22.584  0.00  0.00    +0.201 C 
ATOM      6  C   UNL     1       9.515  -1.335  23.897  0.00  0.00    +0.282 C 
ATOM      7  O   UNL     1       9.141  -0.406  24.900  0.00  0.00    -0.341 OA
BRANCH   3   8
ATOM      8  O   UNL     1       7.164   2.030  22.940  0.00  0.00    -0.386 OA
ATOM      9  H   UNL     1       6.535   1.443  22.484  0.00  0.00    +0.210 HD
ENDBRANCH   3   8
BRANCH   4  10
ATOM     10  O   UNL     1       9.168   1.093  21.010  0.00  0.00    -0.386 OA
ATOM     11  H   UNL     1       8.432   1.698  20.792  0.00  0.00    +0.210 HD
ENDBRANCH   4  10
BRANCH   5  12
ATOM     12  O   UNL     1      10.143  -1.525  21.511  0.00  0.00    -0.384 OA
ATOM     13  H   UNL     1      10.606  -2.285  21.911  0.00  0.00    +0.210 HD
ENDBRANCH   5  12
BRANCH   2  14
ATOM     14  C   UNL     1       7.743   1.349  25.758  0.00  0.00    +0.190 C 
BRANCH  14  15
ATOM     15  O   UNL     1       8.383   2.612  25.559  0.00  0.00    -0.392 OA
ATOM     16  H   UNL     1       7.682   3.260  25.377  0.00  0.00    +0.210 HD
ENDBRANCH  14  15
ENDBRANCH   2  14
ENDBRANCH   1   6
BRANCH   1  17
ATOM     17  C   UNL     1       7.885  -3.005  24.688  0.00  0.00    +0.183 C 
ATOM     18  C   UNL     1       8.250  -4.508  24.859  0.00  0.00    +0.178 C 
ATOM     19  O   UNL     1       7.932  -5.274  23.681  0.00  0.00    -0.341 OA
ATOM     20  C   UNL     1       6.547  -5.236  23.333  0.00  0.00    +0.279 C 
ATOM     21  C   UNL     1       6.081  -3.794  23.076  0.00  0.00    +0.201 C 
ATOM     22  C   UNL     1       6.372  -2.943  24.334  0.00  0.00    +0.179 C 
BRANCH  20  23
ATOM     23  O   UNL     1       5.748  -5.838  24.346  0.00  0.00    -0.365 OA
ATOM     24  H   UNL     1       5.066  -5.181  24.576  0.00  0.00    +0.213 HD
ENDBRANCH  20  23
BRANCH  21  25
ATOM     25  O   UNL     1       6.773  -3.285  21.922  0.00  0.00    -0.384 OA
ATOM     26  H   UNL     1       6.127  -2.692  21.482  0.00  0.00    +0.210 HD
ENDBRANCH  21  25
BRANCH  22  27
ATOM     27  O   UNL     1       5.549  -3.353  25.433  0.00  0.00    -0.386 OA
ATOM     28  H   UNL     1       5.610  -4.324  25.524  0.00  0.00    +0.210 HD
ENDBRANCH  22  27
BRANCH  18  29
ATOM     29  C   UNL     1       9.694  -4.817  25.255  0.00  0.00    +0.190 C 
BRANCH  29  30
ATOM     30  O   UNL     1       9.845  -6.190  25.570  0.00  0.00    -0.392 OA
ATOM     31  H   UNL     1       8.960  -6.557  25.737  0.00  0.00    +0.210 HD
ENDBRANCH  29  30
ENDBRANCH  18  29
ENDBRANCH   1  17
TORSDOF 12
ENDMDL
MODEL 9
REMARK VINA RESULT:      -5.6      1.551      5.951
REMARK  Name = 
REMARK  12 active torsions:
REMARK  status: ('A' for Active; 'I' for Inactive)
REMARK    1  A    between atoms: O_1  and  C_2
REMARK    2  A    between atoms: C_2  and  C_3
REMARK    3  A    between atoms: C_6  and  O_8
REMARK    4  A    between atoms: O_8  and  C_9
REMARK    5  A    between atoms: C_11  and  O_13
REMARK    6  A    between atoms: C_14  and  O_16
REMARK    7  A    between atoms: C_17  and  O_19
REMARK    8  A    between atoms: C_21  and  C_23
REMARK    9  A    between atoms: C_23  and  O_24
REMARK   10  A    between atoms: C_25  and  O_27
REMARK   11  A    between atoms: C_28  and  O_30
REMARK   12  A    between atoms: C_31  and  O_33
REMARK                            x       y       z     vdW  Elec       q    Type
REMARK                         _______ _______ _______ _____ _____    ______ ____
ROOT
ATOM      1  O   UNL     1       8.245  -2.286  24.089  0.00  0.00    -0.340 OA
ENDROOT
BRANCH   1   6
ATOM      2  C   UNL     1       8.526   0.265  22.608  0.00  0.00    +0.178 C 
ATOM      3  C   UNL     1       7.702   1.222  23.481  0.00  0.00    +0.177 C 
ATOM      4  C   UNL     1       7.111   0.459  24.675  0.00  0.00    +0.179 C 
ATOM      5  C   UNL     1       6.363  -0.794  24.206  0.00  0.00    +0.201 C 
ATOM      6  C   UNL     1       7.252  -1.656  23.281  0.00  0.00    +0.282 C 
ATOM      7  O   UNL     1       7.758  -0.878  22.210  0.00  0.00    -0.341 OA
BRANCH   3   8
ATOM      8  O   UNL     1       8.525   2.310  23.921  0.00  0.00    -0.386 OA
ATOM      9  H   UNL     1       9.294   1.941  24.391  0.00  0.00    +0.210 HD
ENDBRANCH   3   8
BRANCH   4  10
ATOM     10  O   UNL     1       6.206   1.298  25.409  0.00  0.00    -0.386 OA
ATOM     11  H   UNL     1       6.520   1.297  26.334  0.00  0.00    +0.210 HD
ENDBRANCH   4  10
BRANCH   5  12
ATOM     12  O   UNL     1       5.930  -1.527  25.369  0.00  0.00    -0.384 OA
ATOM     13  H   UNL     1       5.454  -2.312  25.038  0.00  0.00    +0.210 HD
ENDBRANCH   5  12
BRANCH   2  14
ATOM     14  C   UNL     1       9.021   0.969  21.335  0.00  0.00    +0.190 C 
BRANCH  14  15
ATOM     15  O   UNL     1      10.019   1.933  21.682  0.00  0.00    -0.392 OA
ATOM     16  H   UNL     1      10.881   1.530  21.489  0.00  0.00    +0.210 HD
ENDBRANCH  14  15
ENDBRANCH   2  14
ENDBRANCH   1   6
BRANCH   1  17
ATOM     17  C   UNL     1       8.418  -3.714  23.973  0.00  0.00    +0.183 C 
ATOM     18  C   UNL     1       7.162  -4.576  24.291  0.00  0.00    +0.178 C 
ATOM     19  O   UNL     1       6.681  -4.350  25.630  0.00  0.00    -0.341 OA
ATOM     20  C   UNL     1       7.644  -4.656  26.641  0.00  0.00    +0.279 C 
ATOM     21  C   UNL     1       8.916  -3.812  26.466  0.00  0.00    +0.201 C 
ATOM     22  C   UNL     1       9.486  -4.054  25.049  0.00  0.00    +0.179 C 
BRANCH  20  23
ATOM     23  O   UNL     1       7.968  -6.043  26.634  0.00  0.00    -0.365 OA
ATOM     24  H   UNL     1       8.936  -6.093  26.735  0.00  0.00    +0.213 HD
ENDBRANCH  20  23
BRANCH  21  25
ATOM     25  O   UNL     1       8.582  -2.428  26.673  0.00  0.00    -0.384 OA
ATOM     26  H   UNL     1       7.942  -2.432  27.417  0.00  0.00    +0.210 HD
ENDBRANCH  21  25
BRANCH  22  27
ATOM     27  O   UNL     1       9.972  -5.396  24.914  0.00  0.00    -0.386 OA
ATOM     28  H   UNL     1       9.412  -5.867  24.268  0.00  0.00    +0.210 HD
ENDBRANCH  22  27
BRANCH  18  29
ATOM     29  C   UNL     1       5.981  -4.439  23.330  0.00  0.00    +0.190 C 
BRANCH  29  30
ATOM     30  O   UNL     1       4.815  -4.028  24.021  0.00  0.00    -0.392 OA
ATOM     31  H   UNL     1       5.030  -3.215  24.512  0.00  0.00    +0.210 HD
ENDBRANCH  29  30
ENDBRANCH  18  29
ENDBRANCH   1  17
TORSDOF 12
ENDMDL
