MODEL 1
REMARK VINA RESULT:      -5.9      0.000      0.000
REMARK  Name = 
REMARK  33 active torsions:
REMARK  status: ('A' for Active; 'I' for Inactive)
REMARK    1  A    between atoms: C_1  and  C_2
REMARK    2  A    between atoms: C_2  and  C_3
REMARK    3  A    between atoms: C_2  and  C_4
REMARK    4  A    between atoms: C_2  and  C_40
REMARK    5  A    between atoms: C_4  and  O_5
REMARK    6  A    between atoms: O_5  and  P_6
REMARK    7  A    between atoms: P_6  and  O_7
REMARK    8  A    between atoms: P_6  and  O_9
REMARK    9  A    between atoms: O_9  and  P_10
REMARK   10  A    between atoms: P_10  and  O_11
REMARK   11  A    between atoms: P_10  and  O_13
REMARK   12  A    between atoms: O_13  and  C_14
REMARK   13  A    between atoms: C_14  and  C_15
REMARK   14  A    between atoms: C_18  and  N_30
REMARK   15  A    between atoms: C_20  and  O_22
REMARK   16  A    between atoms: C_23  and  O_25
REMARK   17  A    between atoms: O_25  and  P_26
REMARK   18  A    between atoms: P_26  and  O_27
REMARK   19  A    between atoms: P_26  and  O_28
REMARK   20  A    between atoms: C_34  and  N_35
REMARK   21  A    between atoms: C_40  and  O_42
REMARK   22  A    between atoms: C_40  and  C_43
REMARK   23  A    between atoms: N_45  and  C_46
REMARK   24  A    between atoms: C_46  and  C_47
REMARK   25  A    between atoms: C_47  and  C_48
REMARK   26  A    between atoms: N_50  and  C_51
REMARK   27  A    between atoms: C_51  and  C_52
REMARK   28  A    between atoms: C_52  and  S_53
REMARK   29  A    between atoms: S_53  and  C_54
REMARK   30  A    between atoms: C_54  and  C_55
REMARK   31  A    between atoms: N_57  and  C_58
REMARK   32  A    between atoms: C_58  and  C_59
REMARK   33  A    between atoms: C_59  and  C_60
REMARK                            x       y       z     vdW  Elec       q    Type
REMARK                         _______ _______ _______ _____ _____    ______ ____
ROOT
ATOM      1  C   UNL     1       4.928   1.093  26.039  0.00  0.00    +0.181 C 
ENDROOT
BRANCH   1   3
ATOM      2  C   UNL     1       2.827   0.360  27.108  0.00  0.00    +0.016 C 
ATOM      3  C   UNL     1       4.291  -0.071  26.835  0.00  0.00    +0.024 C 
ATOM      4  C   UNL     1       4.223  -1.346  25.974  0.00  0.00    +0.016 C 
BRANCH   3   5
ATOM      5  C   UNL     1       5.069  -0.308  28.169  0.00  0.00    +0.208 C 
BRANCH   5   6
ATOM      6  C   UNL     1       4.293  -1.070  29.280  0.00  0.00    +0.242 C 
ATOM      7  N   UNL     1       4.140  -2.422  29.027  0.00  0.00    -0.313 N 
ATOM      8  H   UNL     1       4.708  -2.850  28.306  0.00  0.00    +0.149 HD
ATOM      9  O   UNL     1       3.835  -0.563  30.298  0.00  0.00    -0.273 OA
BRANCH   7  10
ATOM     10  C   UNL     1       3.159  -3.189  29.772  0.00  0.00    +0.113 C 
BRANCH  10  11
ATOM     11  C   UNL     1       1.837  -3.340  29.045  0.00  0.00    +0.114 C 
BRANCH  11  12
ATOM     12  C   UNL     1       1.903  -4.583  28.185  0.00  0.00    +0.215 C 
ATOM     13  N   UNL     1       1.788  -4.337  26.837  0.00  0.00    -0.314 N 
ATOM     14  H   UNL     1       1.482  -3.425  26.526  0.00  0.00    +0.149 HD
ATOM     15  O   UNL     1       2.026  -5.710  28.654  0.00  0.00    -0.276 OA
BRANCH  13  16
ATOM     16  C   UNL     1       1.808  -5.420  25.869  0.00  0.00    +0.115 C 
BRANCH  16  17
ATOM     17  C   UNL     1       2.686  -5.117  24.654  0.00  0.00    +0.088 C 
BRANCH  17  18
ATOM     18  S   UNL     1       4.047  -6.327  24.378  0.00  0.00    -0.150 S 
BRANCH  18  19
ATOM     19  C   UNL     1       4.475  -6.769  26.091  0.00  0.00    +0.164 C 
BRANCH  19  20
ATOM     20  C   UNL     1       5.425  -5.763  26.712  0.00  0.00    +0.223 C 
ATOM     21  N   UNL     1       6.752  -6.141  26.724  0.00  0.00    -0.314 N 
ATOM     22  H   UNL     1       6.992  -7.103  26.513  0.00  0.00    +0.149 HD
ATOM     23  O   UNL     1       5.029  -4.693  27.171  0.00  0.00    -0.275 OA
BRANCH  21  24
ATOM     24  C   UNL     1       7.734  -5.311  27.406  0.00  0.00    +0.109 C 
BRANCH  24  25
ATOM     25  C   UNL     1       8.755  -4.668  26.472  0.00  0.00    +0.056 C 
BRANCH  25  26
ATOM     26  C   UNL     1       8.226  -3.504  25.684  0.00  0.00    -0.021 A 
ATOM     27  C   UNL     1       7.597  -3.553  24.390  0.00  0.00    +0.004 A 
ATOM     28  C   UNL     1       7.286  -4.590  23.487  0.00  0.00    +0.025 A 
ATOM     29  C   UNL     1       6.620  -4.282  22.301  0.00  0.00    +0.019 A 
ATOM     30  C   UNL     1       6.250  -2.976  21.999  0.00  0.00    +0.017 A 
ATOM     31  C   UNL     1       6.531  -1.925  22.887  0.00  0.00    +0.027 A 
ATOM     32 BR   UNL     1       6.219  -5.668  21.076  0.00  0.00    -0.050 Br
ATOM     33  C   UNL     1       7.209  -2.246  24.074  0.00  0.00    +0.047 A 
ATOM     34  N   UNL     1       7.595  -1.442  25.116  0.00  0.00    -0.360 N 
ATOM     35  H   UNL     1       7.437  -0.447  25.155  0.00  0.00    +0.165 HD
ATOM     36  C   UNL     1       8.202  -2.184  26.092  0.00  0.00    +0.087 A 
ENDBRANCH  25  26
ENDBRANCH  24  25
ENDBRANCH  21  24
ENDBRANCH  19  20
ENDBRANCH  18  19
ENDBRANCH  17  18
ENDBRANCH  16  17
ENDBRANCH  13  16
ENDBRANCH  11  12
ENDBRANCH  10  11
ENDBRANCH   7  10
ENDBRANCH   5   6
BRANCH   5  37
ATOM     37  O   UNL     1       5.545   0.907  28.761  0.00  0.00    -0.382 OA
ATOM     38  H   UNL     1       6.337   1.198  28.284  0.00  0.00    +0.210 HD
ENDBRANCH   5  37
ENDBRANCH   3   5
ENDBRANCH   1   3
BRANCH   1  39
ATOM     39  O   UNL     1       4.485   2.366  26.476  0.00  0.00    -0.286 OA
BRANCH  39  40
ATOM     40  P   UNL     1       3.888   3.356  25.188  0.00  0.00    +0.483 P 
ATOM     41  O   UNL     1       4.170   2.231  24.193  0.00  0.00    -0.227 OA
BRANCH  40  42
ATOM     42  O   UNL     1       5.284   4.182  25.344  0.00  0.00    -0.302 OA
ATOM     43  H   UNL     1       5.143   5.064  24.927  0.00  0.00    +0.222 HD
ENDBRANCH  40  42
BRANCH  40  44
ATOM     44  O   UNL     1       3.289   4.344  23.901  0.00  0.00    -0.186 OA
BRANCH  44  45
ATOM     45  P   UNL     1       4.546   5.399  23.353  0.00  0.00    +0.483 P 
ATOM     46  O   UNL     1       3.476   6.213  22.611  0.00  0.00    -0.227 OA
BRANCH  45  47
ATOM     47  O   UNL     1       5.028   4.279  22.264  0.00  0.00    -0.302 OA
ATOM     48  H   UNL     1       4.965   3.400  22.676  0.00  0.00    +0.222 HD
ENDBRANCH  45  47
BRANCH  45  49
ATOM     49  O   UNL     1       5.803   6.454  22.805  0.00  0.00    -0.284 OA
BRANCH  49  50
ATOM     50  C   UNL     1       6.863   6.847  23.670  0.00  0.00    +0.206 C 
BRANCH  50  51
ATOM     51  C   UNL     1       8.190   6.341  23.063  0.00  0.00    +0.179 C 
ATOM     52  C   UNL     1       9.132   6.068  24.215  0.00  0.00    +0.194 C 
ATOM     53  C   UNL     1       9.195   4.542  24.328  0.00  0.00    +0.196 C 
ATOM     54  C   UNL     1       8.120   4.037  23.367  0.00  0.00    +0.253 C 
ATOM     55  O   UNL     1       7.973   5.081  22.382  0.00  0.00    -0.346 OA
BRANCH  54  56
ATOM     56  N   UNL     1       8.454   2.767  22.739  0.00  0.00    -0.286 N 
ATOM     57  C   UNL     1       9.218   1.785  23.319  0.00  0.00    +0.167 A 
ATOM     58  C   UNL     1       9.232   0.748  22.400  0.00  0.00    +0.147 A 
ATOM     59  C   UNL     1       9.972  -0.396  22.748  0.00  0.00    +0.147 A 
ATOM     60  N   UNL     1      10.598  -0.417  23.947  0.00  0.00    -0.219 NA
ATOM     61  C   UNL     1      10.496   0.668  24.745  0.00  0.00    +0.225 A 
ATOM     62  N   UNL     1       8.467   1.070  21.297  0.00  0.00    -0.231 NA
ATOM     63  N   UNL     1       9.824   1.820  24.521  0.00  0.00    -0.216 NA
ATOM     64  C   UNL     1       8.011   2.282  21.541  0.00  0.00    +0.203 A 
BRANCH  59  65
ATOM     65  N   UNL     1      10.081  -1.518  21.934  0.00  0.00    -0.341 N 
ATOM     66  H   UNL     1       9.646  -2.335  22.342  0.00  0.00    +0.144 HD
ATOM     67  H   UNL     1       9.901  -1.326  20.955  0.00  0.00    +0.144 HD
ENDBRANCH  59  65
ENDBRANCH  54  56
BRANCH  53  68
ATOM     68  O   UNL     1       8.933   4.181  25.691  0.00  0.00    -0.385 OA
ATOM     69  H   UNL     1       8.959   5.004  26.228  0.00  0.00    +0.210 HD
ENDBRANCH  53  68
BRANCH  52  70
ATOM     70  O   UNL     1      10.453   6.679  24.167  0.00  0.00    -0.278 OA
BRANCH  70  71
ATOM     71  P   UNL     1      11.410   5.284  23.813  0.00  0.00    +0.473 P 
ATOM     72  O   UNL     1      12.268   4.034  23.495  0.00  0.00    -0.228 OA
BRANCH  71  73
ATOM     73  O   UNL     1      12.640   6.023  24.598  0.00  0.00    -0.303 OA
ATOM     74  H   UNL     1      13.152   6.485  23.907  0.00  0.00    +0.222 HD
ENDBRANCH  71  73
BRANCH  71  75
ATOM     75  O   UNL     1      11.642   5.956  22.340  0.00  0.00    -0.303 OA
ATOM     76  H   UNL     1      11.647   5.285  21.641  0.00  0.00    +0.222 HD
ENDBRANCH  71  75
ENDBRANCH  70  71
ENDBRANCH  52  70
ENDBRANCH  50  51
ENDBRANCH  49  50
ENDBRANCH  45  49
ENDBRANCH  44  45
ENDBRANCH  40  44
ENDBRANCH  39  40
ENDBRANCH   1  39
TORSDOF 31
ENDMDL
MODEL 2
REMARK VINA RESULT:      -5.7      4.435     10.181
REMARK  Name = 
REMARK  33 active torsions:
REMARK  status: ('A' for Active; 'I' for Inactive)
REMARK    1  A    between atoms: C_1  and  C_2
REMARK    2  A    between atoms: C_2  and  C_3
REMARK    3  A    between atoms: C_2  and  C_4
REMARK    4  A    between atoms: C_2  and  C_40
REMARK    5  A    between atoms: C_4  and  O_5
REMARK    6  A    between atoms: O_5  and  P_6
REMARK    7  A    between atoms: P_6  and  O_7
REMARK    8  A    between atoms: P_6  and  O_9
REMARK    9  A    between atoms: O_9  and  P_10
REMARK   10  A    between atoms: P_10  and  O_11
REMARK   11  A    between atoms: P_10  and  O_13
REMARK   12  A    between atoms: O_13  and  C_14
REMARK   13  A    between atoms: C_14  and  C_15
REMARK   14  A    between atoms: C_18  and  N_30
REMARK   15  A    between atoms: C_20  and  O_22
REMARK   16  A    between atoms: C_23  and  O_25
REMARK   17  A    between atoms: O_25  and  P_26
REMARK   18  A    between atoms: P_26  and  O_27
REMARK   19  A    between atoms: P_26  and  O_28
REMARK   20  A    between atoms: C_34  and  N_35
REMARK   21  A    between atoms: C_40  and  O_42
REMARK   22  A    between atoms: C_40  and  C_43
REMARK   23  A    between atoms: N_45  and  C_46
REMARK   24  A    between atoms: C_46  and  C_47
REMARK   25  A    between atoms: C_47  and  C_48
REMARK   26  A    between atoms: N_50  and  C_51
REMARK   27  A    between atoms: C_51  and  C_52
REMARK   28  A    between atoms: C_52  and  S_53
REMARK   29  A    between atoms: S_53  and  C_54
REMARK   30  A    between atoms: C_54  and  C_55
REMARK   31  A    between atoms: N_57  and  C_58
REMARK   32  A    between atoms: C_58  and  C_59
REMARK   33  A    between atoms: C_59  and  C_60
REMARK                            x       y       z     vdW  Elec       q    Type
REMARK                         _______ _______ _______ _____ _____    ______ ____
ROOT
ATOM      1  C   UNL     1       7.965  -3.982  23.361  0.00  0.00    +0.181 C 
ENDROOT
BRANCH   1   3
ATOM      2  C   UNL     1       8.132  -2.017  21.877  0.00  0.00    +0.016 C 
ATOM      3  C   UNL     1       8.216  -2.456  23.361  0.00  0.00    +0.024 C 
ATOM      4  C   UNL     1       7.088  -1.718  24.105  0.00  0.00    +0.016 C 
BRANCH   3   5
ATOM      5  C   UNL     1       9.621  -2.136  23.967  0.00  0.00    +0.208 C 
BRANCH   5   6
ATOM      6  C   UNL     1       9.779  -0.729  24.609  0.00  0.00    +0.242 C 
ATOM      7  N   UNL     1      10.075   0.270  23.698  0.00  0.00    -0.313 N 
ATOM      8  H   UNL     1       9.942   0.085  22.712  0.00  0.00    +0.149 HD
ATOM      9  O   UNL     1       9.668  -0.481  25.805  0.00  0.00    -0.273 OA
BRANCH   7  10
ATOM     10  C   UNL     1      10.590   1.543  24.166  0.00  0.00    +0.113 C 
BRANCH  10  11
ATOM     11  C   UNL     1      10.415   2.667  23.163  0.00  0.00    +0.114 C 
BRANCH  11  12
ATOM     12  C   UNL     1       8.941   2.986  23.055  0.00  0.00    +0.215 C 
ATOM     13  N   UNL     1       8.675   4.283  22.682  0.00  0.00    -0.314 N 
ATOM     14  H   UNL     1       9.423   4.964  22.696  0.00  0.00    +0.149 HD
ATOM     15  O   UNL     1       8.063   2.165  23.301  0.00  0.00    -0.276 OA
BRANCH  13  16
ATOM     16  C   UNL     1       7.311   4.765  22.553  0.00  0.00    +0.115 C 
BRANCH  16  17
ATOM     17  C   UNL     1       6.870   5.628  23.736  0.00  0.00    +0.088 C 
BRANCH  17  18
ATOM     18  S   UNL     1       8.251   6.458  24.628  0.00  0.00    -0.150 S 
BRANCH  18  19
ATOM     19  C   UNL     1       8.091   5.720  26.285  0.00  0.00    +0.164 C 
BRANCH  19  20
ATOM     20  C   UNL     1       6.659   5.763  26.785  0.00  0.00    +0.223 C 
ATOM     21  N   UNL     1       6.105   4.535  27.081  0.00  0.00    -0.314 N 
ATOM     22  H   UNL     1       6.582   3.694  26.777  0.00  0.00    +0.149 HD
ATOM     23  O   UNL     1       6.047   6.822  26.911  0.00  0.00    -0.275 OA
BRANCH  21  24
ATOM     24  C   UNL     1       4.699   4.445  27.448  0.00  0.00    +0.109 C 
BRANCH  24  25
ATOM     25  C   UNL     1       3.999   3.200  26.913  0.00  0.00    +0.056 C 
BRANCH  25  26
ATOM     26  C   UNL     1       4.156   2.989  25.435  0.00  0.00    -0.021 A 
ATOM     27  C   UNL     1       3.500   3.723  24.384  0.00  0.00    +0.004 A 
ATOM     28  C   UNL     1       2.573   4.784  24.358  0.00  0.00    +0.025 A 
ATOM     29  C   UNL     1       2.160   5.297  23.127  0.00  0.00    +0.019 A 
ATOM     30  C   UNL     1       2.654   4.788  21.931  0.00  0.00    +0.017 A 
ATOM     31  C   UNL     1       3.593   3.743  21.926  0.00  0.00    +0.027 A 
ATOM     32 BR   UNL     1       0.899   6.707  23.087  0.00  0.00    -0.050 Br
ATOM     33  C   UNL     1       3.993   3.230  23.170  0.00  0.00    +0.047 A 
ATOM     34  N   UNL     1       4.893   2.237  23.467  0.00  0.00    -0.360 N 
ATOM     35  H   UNL     1       5.404   1.709  22.779  0.00  0.00    +0.165 HD
ATOM     36  C   UNL     1       5.004   2.085  24.823  0.00  0.00    +0.087 A 
ENDBRANCH  25  26
ENDBRANCH  24  25
ENDBRANCH  21  24
ENDBRANCH  19  20
ENDBRANCH  18  19
ENDBRANCH  17  18
ENDBRANCH  16  17
ENDBRANCH  13  16
ENDBRANCH  11  12
ENDBRANCH  10  11
ENDBRANCH   7  10
ENDBRANCH   5   6
BRANCH   5  37
ATOM     37  O   UNL     1      10.683  -2.273  23.015  0.00  0.00    -0.382 OA
ATOM     38  H   UNL     1      10.406  -2.894  22.323  0.00  0.00    +0.210 HD
ENDBRANCH   5  37
ENDBRANCH   3   5
ENDBRANCH   1   3
BRANCH   1  39
ATOM     39  O   UNL     1       7.538  -4.470  22.101  0.00  0.00    -0.286 OA
BRANCH  39  40
ATOM     40  P   UNL     1       5.981  -5.222  22.155  0.00  0.00    +0.483 P 
ATOM     41  O   UNL     1       5.323  -3.880  21.836  0.00  0.00    -0.227 OA
BRANCH  40  42
ATOM     42  O   UNL     1       6.190  -5.249  23.772  0.00  0.00    -0.302 OA
ATOM     43  H   UNL     1       5.335  -4.970  24.176  0.00  0.00    +0.222 HD
ENDBRANCH  40  42
BRANCH  40  44
ATOM     44  O   UNL     1       4.423  -5.972  22.208  0.00  0.00    -0.186 OA
BRANCH  44  45
ATOM     45  P   UNL     1       3.650  -5.589  23.708  0.00  0.00    +0.483 P 
ATOM     46  O   UNL     1       3.704  -7.082  24.064  0.00  0.00    -0.227 OA
BRANCH  45  47
ATOM     47  O   UNL     1       2.218  -5.409  22.938  0.00  0.00    -0.302 OA
ATOM     48  H   UNL     1       1.533  -5.216  23.601  0.00  0.00    +0.222 HD
ENDBRANCH  45  47
BRANCH  45  49
ATOM     49  O   UNL     1       2.877  -5.206  25.208  0.00  0.00    -0.284 OA
BRANCH  49  50
ATOM     50  C   UNL     1       2.493  -3.871  25.518  0.00  0.00    +0.206 C 
BRANCH  50  51
ATOM     51  C   UNL     1       2.359  -3.754  27.052  0.00  0.00    +0.179 C 
ATOM     52  C   UNL     1       3.486  -4.560  27.660  0.00  0.00    +0.194 C 
ATOM     53  C   UNL     1       4.485  -3.522  28.182  0.00  0.00    +0.196 C 
ATOM     54  C   UNL     1       3.967  -2.186  27.652  0.00  0.00    +0.253 C 
ATOM     55  O   UNL     1       2.551  -2.378  27.462  0.00  0.00    -0.346 OA
BRANCH  54  56
ATOM     56  N   UNL     1       4.230  -1.067  28.546  0.00  0.00    -0.286 N 
ATOM     57  C   UNL     1       5.256  -0.169  28.394  0.00  0.00    +0.167 A 
ATOM     58  C   UNL     1       5.095   0.743  29.426  0.00  0.00    +0.147 A 
ATOM     59  C   UNL     1       6.043   1.778  29.509  0.00  0.00    +0.147 A 
ATOM     60  N   UNL     1       7.025   1.827  28.581  0.00  0.00    -0.219 NA
ATOM     61  C   UNL     1       7.059   0.870  27.629  0.00  0.00    +0.225 A 
ATOM     62  N   UNL     1       3.977   0.432  30.173  0.00  0.00    -0.231 NA
ATOM     63  N   UNL     1       6.215  -0.171  27.448  0.00  0.00    -0.216 NA
ATOM     64  C   UNL     1       3.481  -0.652  29.610  0.00  0.00    +0.203 A 
BRANCH  59  65
ATOM     65  N   UNL     1       6.016   2.768  30.485  0.00  0.00    -0.341 N 
ATOM     66  H   UNL     1       5.483   3.579  30.198  0.00  0.00    +0.144 HD
ATOM     67  H   UNL     1       5.862   2.408  31.420  0.00  0.00    +0.144 HD
ENDBRANCH  59  65
ENDBRANCH  54  56
BRANCH  53  68
ATOM     68  O   UNL     1       5.783  -3.854  27.673  0.00  0.00    -0.385 OA
ATOM     69  H   UNL     1       5.862  -3.463  26.775  0.00  0.00    +0.210 HD
ENDBRANCH  53  68
BRANCH  52  70
ATOM     70  O   UNL     1       3.139  -5.556  28.666  0.00  0.00    -0.278 OA
BRANCH  70  71
ATOM     71  P   UNL     1       4.502  -6.609  28.520  0.00  0.00    +0.473 P 
ATOM     72  O   UNL     1       5.723  -7.553  28.388  0.00  0.00    -0.228 OA
BRANCH  71  73
ATOM     73  O   UNL     1       3.828  -7.162  27.136  0.00  0.00    -0.303 OA
ATOM     74  H   UNL     1       2.934  -7.466  27.384  0.00  0.00    +0.222 HD
ENDBRANCH  71  73
BRANCH  71  75
ATOM     75  O   UNL     1       3.716  -7.588  29.566  0.00  0.00    -0.303 OA
ATOM     76  H   UNL     1       4.330  -8.169  30.039  0.00  0.00    +0.222 HD
ENDBRANCH  71  75
ENDBRANCH  70  71
ENDBRANCH  52  70
ENDBRANCH  50  51
ENDBRANCH  49  50
ENDBRANCH  45  49
ENDBRANCH  44  45
ENDBRANCH  40  44
ENDBRANCH  39  40
ENDBRANCH   1  39
TORSDOF 31
ENDMDL
MODEL 3
REMARK VINA RESULT:      -5.5      3.048      4.810
REMARK  Name = 
REMARK  33 active torsions:
REMARK  status: ('A' for Active; 'I' for Inactive)
REMARK    1  A    between atoms: C_1  and  C_2
REMARK    2  A    between atoms: C_2  and  C_3
REMARK    3  A    between atoms: C_2  and  C_4
REMARK    4  A    between atoms: C_2  and  C_40
REMARK    5  A    between atoms: C_4  and  O_5
REMARK    6  A    between atoms: O_5  and  P_6
REMARK    7  A    between atoms: P_6  and  O_7
REMARK    8  A    between atoms: P_6  and  O_9
REMARK    9  A    between atoms: O_9  and  P_10
REMARK   10  A    between atoms: P_10  and  O_11
REMARK   11  A    between atoms: P_10  and  O_13
REMARK   12  A    between atoms: O_13  and  C_14
REMARK   13  A    between atoms: C_14  and  C_15
REMARK   14  A    between atoms: C_18  and  N_30
REMARK   15  A    between atoms: C_20  and  O_22
REMARK   16  A    between atoms: C_23  and  O_25
REMARK   17  A    between atoms: O_25  and  P_26
REMARK   18  A    between atoms: P_26  and  O_27
REMARK   19  A    between atoms: P_26  and  O_28
REMARK   20  A    between atoms: C_34  and  N_35
REMARK   21  A    between atoms: C_40  and  O_42
REMARK   22  A    between atoms: C_40  and  C_43
REMARK   23  A    between atoms: N_45  and  C_46
REMARK   24  A    between atoms: C_46  and  C_47
REMARK   25  A    between atoms: C_47  and  C_48
REMARK   26  A    between atoms: N_50  and  C_51
REMARK   27  A    between atoms: C_51  and  C_52
REMARK   28  A    between atoms: C_52  and  S_53
REMARK   29  A    between atoms: S_53  and  C_54
REMARK   30  A    between atoms: C_54  and  C_55
REMARK   31  A    between atoms: N_57  and  C_58
REMARK   32  A    between atoms: C_58  and  C_59
REMARK   33  A    between atoms: C_59  and  C_60
REMARK                            x       y       z     vdW  Elec       q    Type
REMARK                         _______ _______ _______ _____ _____    ______ ____
ROOT
ATOM      1  C   UNL     1       7.092  -0.422  26.254  0.00  0.00    +0.181 C 
ENDROOT
BRANCH   1   3
ATOM      2  C   UNL     1       6.824   1.025  28.236  0.00  0.00    +0.016 C 
ATOM      3  C   UNL     1       6.029   0.252  27.152  0.00  0.00    +0.024 C 
ATOM      4  C   UNL     1       5.231   1.302  26.358  0.00  0.00    +0.016 C 
BRANCH   3   5
ATOM      5  C   UNL     1       5.097  -0.826  27.795  0.00  0.00    +0.208 C 
BRANCH   5   6
ATOM      6  C   UNL     1       3.884  -1.275  26.932  0.00  0.00    +0.242 C 
ATOM      7  N   UNL     1       2.657  -0.938  27.478  0.00  0.00    -0.313 N 
ATOM      8  H   UNL     1       2.627  -0.258  28.227  0.00  0.00    +0.149 HD
ATOM      9  O   UNL     1       3.957  -1.879  25.868  0.00  0.00    -0.273 OA
BRANCH   7  10
ATOM     10  C   UNL     1       1.451  -1.578  26.989  0.00  0.00    +0.113 C 
BRANCH  10  11
ATOM     11  C   UNL     1       0.903  -2.630  27.935  0.00  0.00    +0.114 C 
BRANCH  11  12
ATOM     12  C   UNL     1       1.249  -3.996  27.382  0.00  0.00    +0.215 C 
ATOM     13  N   UNL     1       1.204  -5.005  28.316  0.00  0.00    -0.314 N 
ATOM     14  H   UNL     1       1.145  -4.767  29.297  0.00  0.00    +0.149 HD
ATOM     15  O   UNL     1       1.563  -4.178  26.211  0.00  0.00    -0.276 OA
BRANCH  13  16
ATOM     16  C   UNL     1       1.530  -6.375  27.961  0.00  0.00    +0.115 C 
BRANCH  16  17
ATOM     17  C   UNL     1       2.945  -6.778  28.381  0.00  0.00    +0.088 C 
BRANCH  17  18
ATOM     18  S   UNL     1       4.218  -6.569  27.066  0.00  0.00    -0.150 S 
BRANCH  18  19
ATOM     19  C   UNL     1       5.735  -6.440  28.065  0.00  0.00    +0.164 C 
BRANCH  19  20
ATOM     20  C   UNL     1       6.653  -5.345  27.556  0.00  0.00    +0.223 C 
ATOM     21  N   UNL     1       7.905  -5.769  27.159  0.00  0.00    -0.314 N 
ATOM     22  H   UNL     1       8.207  -6.706  27.401  0.00  0.00    +0.149 HD
ATOM     23  O   UNL     1       6.298  -4.169  27.508  0.00  0.00    -0.275 OA
BRANCH  21  24
ATOM     24  C   UNL     1       8.911  -4.791  26.772  0.00  0.00    +0.109 C 
BRANCH  24  25
ATOM     25  C   UNL     1       9.484  -5.015  25.376  0.00  0.00    +0.056 C 
BRANCH  25  26
ATOM     26  C   UNL     1       8.995  -4.042  24.342  0.00  0.00    -0.021 A 
ATOM     27  C   UNL     1       7.684  -4.003  23.747  0.00  0.00    +0.004 A 
ATOM     28  C   UNL     1       6.514  -4.775  23.894  0.00  0.00    +0.025 A 
ATOM     29  C   UNL     1       5.374  -4.428  23.168  0.00  0.00    +0.019 A 
ATOM     30  C   UNL     1       5.369  -3.331  22.314  0.00  0.00    +0.017 A 
ATOM     31  C   UNL     1       6.513  -2.532  22.161  0.00  0.00    +0.027 A 
ATOM     32 BR   UNL     1       3.808  -5.476  23.347  0.00  0.00    -0.050 Br
ATOM     33  C   UNL     1       7.657  -2.897  22.889  0.00  0.00    +0.047 A 
ATOM     34  N   UNL     1       8.892  -2.303  22.949  0.00  0.00    -0.360 N 
ATOM     35  H   UNL     1       9.152  -1.479  22.431  0.00  0.00    +0.165 HD
ATOM     36  C   UNL     1       9.704  -2.976  23.821  0.00  0.00    +0.087 A 
ENDBRANCH  25  26
ENDBRANCH  24  25
ENDBRANCH  21  24
ENDBRANCH  19  20
ENDBRANCH  18  19
ENDBRANCH  17  18
ENDBRANCH  16  17
ENDBRANCH  13  16
ENDBRANCH  11  12
ENDBRANCH  10  11
ENDBRANCH   7  10
ENDBRANCH   5   6
BRANCH   5  37
ATOM     37  O   UNL     1       4.571  -0.423  29.064  0.00  0.00    -0.382 OA
ATOM     38  H   UNL     1       3.608  -0.335  28.991  0.00  0.00    +0.210 HD
ENDBRANCH   5  37
ENDBRANCH   3   5
ENDBRANCH   1   3
BRANCH   1  39
ATOM     39  O   UNL     1       8.383   0.142  26.410  0.00  0.00    -0.286 OA
BRANCH  39  40
ATOM     40  P   UNL     1       9.184   0.436  24.905  0.00  0.00    +0.483 P 
ATOM     41  O   UNL     1      10.525   0.092  25.551  0.00  0.00    -0.227 OA
BRANCH  40  42
ATOM     42  O   UNL     1       8.922   2.014  25.219  0.00  0.00    -0.302 OA
ATOM     43  H   UNL     1       9.222   2.518  24.426  0.00  0.00    +0.222 HD
ENDBRANCH  40  42
BRANCH  40  44
ATOM     44  O   UNL     1       9.985   0.730  23.400  0.00  0.00    -0.186 OA
BRANCH  44  45
ATOM     45  P   UNL     1       8.898   1.523  22.314  0.00  0.00    +0.483 P 
ATOM     46  O   UNL     1       9.017   0.308  21.381  0.00  0.00    -0.227 OA
BRANCH  45  47
ATOM     47  O   UNL     1      10.095   2.525  21.827  0.00  0.00    -0.302 OA
ATOM     48  H   UNL     1      10.921   2.014  21.770  0.00  0.00    +0.222 HD
ENDBRANCH  45  47
BRANCH  45  49
ATOM     49  O   UNL     1       7.809   2.316  21.227  0.00  0.00    -0.284 OA
BRANCH  49  50
ATOM     50  C   UNL     1       6.587   2.879  21.690  0.00  0.00    +0.206 C 
BRANCH  50  51
ATOM     51  C   UNL     1       6.917   3.887  22.813  0.00  0.00    +0.179 C 
ATOM     52  C   UNL     1       6.683   5.272  22.252  0.00  0.00    +0.194 C 
ATOM     53  C   UNL     1       5.383   5.753  22.904  0.00  0.00    +0.196 C 
ATOM     54  C   UNL     1       4.842   4.528  23.640  0.00  0.00    +0.253 C 
ATOM     55  O   UNL     1       5.998   3.713  23.919  0.00  0.00    -0.346 OA
BRANCH  54  56
ATOM     56  N   UNL     1       4.124   4.857  24.864  0.00  0.00    -0.286 N 
ATOM     57  C   UNL     1       3.067   4.140  25.366  0.00  0.00    +0.167 A 
ATOM     58  C   UNL     1       2.735   4.772  26.555  0.00  0.00    +0.147 A 
ATOM     59  C   UNL     1       1.653   4.236  27.275  0.00  0.00    +0.147 A 
ATOM     60  N   UNL     1       1.028   3.143  26.779  0.00  0.00    -0.219 NA
ATOM     61  C   UNL     1       1.461   2.630  25.608  0.00  0.00    +0.225 A 
ATOM     62  N   UNL     1       3.587   5.831  26.793  0.00  0.00    -0.231 NA
ATOM     63  N   UNL     1       2.479   3.057  24.825  0.00  0.00    -0.216 NA
ATOM     64  C   UNL     1       4.411   5.844  25.763  0.00  0.00    +0.203 A 
BRANCH  59  65
ATOM     65  N   UNL     1       1.200   4.756  28.482  0.00  0.00    -0.341 N 
ATOM     66  H   UNL     1       0.199   4.660  28.594  0.00  0.00    +0.144 HD
ATOM     67  H   UNL     1       1.789   4.514  29.272  0.00  0.00    +0.144 HD
ENDBRANCH  59  65
ENDBRANCH  54  56
BRANCH  53  68
ATOM     68  O   UNL     1       4.504   6.211  21.869  0.00  0.00    -0.385 OA
ATOM     69  H   UNL     1       5.000   6.183  21.021  0.00  0.00    +0.210 HD
ENDBRANCH  53  68
BRANCH  52  70
ATOM     70  O   UNL     1       7.762   6.243  22.375  0.00  0.00    -0.278 OA
BRANCH  70  71
ATOM     71  P   UNL     1       8.626   5.556  23.706  0.00  0.00    +0.473 P 
ATOM     72  O   UNL     1       9.400   4.942  24.899  0.00  0.00    -0.228 OA
BRANCH  71  73
ATOM     73  O   UNL     1       8.317   6.940  24.520  0.00  0.00    -0.303 OA
ATOM     74  H   UNL     1       8.948   6.953  25.265  0.00  0.00    +0.222 HD
ENDBRANCH  71  73
BRANCH  71  75
ATOM     75  O   UNL     1       9.981   6.043  22.932  0.00  0.00    -0.303 OA
ATOM     76  H   UNL     1       9.781   6.384  22.047  0.00  0.00    +0.222 HD
ENDBRANCH  71  75
ENDBRANCH  70  71
ENDBRANCH  52  70
ENDBRANCH  50  51
ENDBRANCH  49  50
ENDBRANCH  45  49
ENDBRANCH  44  45
ENDBRANCH  40  44
ENDBRANCH  39  40
ENDBRANCH   1  39
TORSDOF 31
ENDMDL
MODEL 4
REMARK VINA RESULT:      -5.5      4.218     10.762
REMARK  Name = 
REMARK  33 active torsions:
REMARK  status: ('A' for Active; 'I' for Inactive)
REMARK    1  A    between atoms: C_1  and  C_2
REMARK    2  A    between atoms: C_2  and  C_3
REMARK    3  A    between atoms: C_2  and  C_4
REMARK    4  A    between atoms: C_2  and  C_40
REMARK    5  A    between atoms: C_4  and  O_5
REMARK    6  A    between atoms: O_5  and  P_6
REMARK    7  A    between atoms: P_6  and  O_7
REMARK    8  A    between atoms: P_6  and  O_9
REMARK    9  A    between atoms: O_9  and  P_10
REMARK   10  A    between atoms: P_10  and  O_11
REMARK   11  A    between atoms: P_10  and  O_13
REMARK   12  A    between atoms: O_13  and  C_14
REMARK   13  A    between atoms: C_14  and  C_15
REMARK   14  A    between atoms: C_18  and  N_30
REMARK   15  A    between atoms: C_20  and  O_22
REMARK   16  A    between atoms: C_23  and  O_25
REMARK   17  A    between atoms: O_25  and  P_26
REMARK   18  A    between atoms: P_26  and  O_27
REMARK   19  A    between atoms: P_26  and  O_28
REMARK   20  A    between atoms: C_34  and  N_35
REMARK   21  A    between atoms: C_40  and  O_42
REMARK   22  A    between atoms: C_40  and  C_43
REMARK   23  A    between atoms: N_45  and  C_46
REMARK   24  A    between atoms: C_46  and  C_47
REMARK   25  A    between atoms: C_47  and  C_48
REMARK   26  A    between atoms: N_50  and  C_51
REMARK   27  A    between atoms: C_51  and  C_52
REMARK   28  A    between atoms: C_52  and  S_53
REMARK   29  A    between atoms: S_53  and  C_54
REMARK   30  A    between atoms: C_54  and  C_55
REMARK   31  A    between atoms: N_57  and  C_58
REMARK   32  A    between atoms: C_58  and  C_59
REMARK   33  A    between atoms: C_59  and  C_60
REMARK                            x       y       z     vdW  Elec       q    Type
REMARK                         _______ _______ _______ _____ _____    ______ ____
ROOT
ATOM      1  C   UNL     1       8.050  -4.629  23.634  0.00  0.00    +0.181 C 
ENDROOT
BRANCH   1   3
ATOM      2  C   UNL     1       7.735  -3.727  25.910  0.00  0.00    +0.016 C 
ATOM      3  C   UNL     1       8.798  -3.948  24.804  0.00  0.00    +0.024 C 
ATOM      4  C   UNL     1       9.861  -4.892  25.395  0.00  0.00    +0.016 C 
BRANCH   3   5
ATOM      5  C   UNL     1       9.419  -2.591  24.336  0.00  0.00    +0.208 C 
BRANCH   5   6
ATOM      6  C   UNL     1       8.558  -1.324  24.604  0.00  0.00    +0.242 C 
ATOM      7  N   UNL     1       7.641  -1.051  23.605  0.00  0.00    -0.313 N 
ATOM      8  H   UNL     1       7.430  -1.773  22.927  0.00  0.00    +0.149 HD
ATOM      9  O   UNL     1       8.654  -0.599  25.589  0.00  0.00    -0.273 OA
BRANCH   7  10
ATOM     10  C   UNL     1       7.022   0.259  23.532  0.00  0.00    +0.113 C 
BRANCH  10  11
ATOM     11  C   UNL     1       7.255   0.961  22.208  0.00  0.00    +0.114 C 
BRANCH  11  12
ATOM     12  C   UNL     1       8.746   1.092  21.992  0.00  0.00    +0.215 C 
ATOM     13  N   UNL     1       9.265   2.301  22.392  0.00  0.00    -0.314 N 
ATOM     14  H   UNL     1       8.634   3.062  22.606  0.00  0.00    +0.149 HD
ATOM     15  O   UNL     1       9.425   0.205  21.485  0.00  0.00    -0.276 OA
BRANCH  13  16
ATOM     16  C   UNL     1      10.677   2.604  22.235  0.00  0.00    +0.115 C 
BRANCH  16  17
ATOM     17  C   UNL     1      11.261   3.359  23.431  0.00  0.00    +0.088 C 
BRANCH  17  18
ATOM     18  S   UNL     1      12.232   4.858  22.985  0.00  0.00    -0.150 S 
BRANCH  18  19
ATOM     19  C   UNL     1      11.591   6.063  24.191  0.00  0.00    +0.164 C 
BRANCH  19  20
ATOM     20  C   UNL     1      10.075   6.080  24.218  0.00  0.00    +0.223 C 
ATOM     21  N   UNL     1       9.469   6.204  22.985  0.00  0.00    -0.314 N 
ATOM     22  H   UNL     1      10.031   6.466  22.184  0.00  0.00    +0.149 HD
ATOM     23  O   UNL     1       9.443   5.992  25.270  0.00  0.00    -0.275 OA
BRANCH  21  24
ATOM     24  C   UNL     1       8.023   6.358  22.902  0.00  0.00    +0.109 C 
BRANCH  24  25
ATOM     25  C   UNL     1       7.299   5.116  22.392  0.00  0.00    +0.056 C 
BRANCH  25  26
ATOM     26  C   UNL     1       6.457   4.423  23.423  0.00  0.00    -0.021 A 
ATOM     27  C   UNL     1       5.037   4.190  23.364  0.00  0.00    +0.004 A 
ATOM     28  C   UNL     1       4.029   4.497  22.428  0.00  0.00    +0.025 A 
ATOM     29  C   UNL     1       2.721   4.079  22.675  0.00  0.00    +0.019 A 
ATOM     30  C   UNL     1       2.398   3.358  23.818  0.00  0.00    +0.017 A 
ATOM     31  C   UNL     1       3.384   3.022  24.761  0.00  0.00    +0.027 A 
ATOM     32 BR   UNL     1       1.361   4.508  21.430  0.00  0.00    -0.050 Br
ATOM     33  C   UNL     1       4.695   3.456  24.506  0.00  0.00    +0.047 A 
ATOM     34  N   UNL     1       5.845   3.264  25.229  0.00  0.00    -0.360 N 
ATOM     35  H   UNL     1       5.890   2.761  26.101  0.00  0.00    +0.165 HD
ATOM     36  C   UNL     1       6.911   3.834  24.589  0.00  0.00    +0.087 A 
ENDBRANCH  25  26
ENDBRANCH  24  25
ENDBRANCH  21  24
ENDBRANCH  19  20
ENDBRANCH  18  19
ENDBRANCH  17  18
ENDBRANCH  16  17
ENDBRANCH  13  16
ENDBRANCH  11  12
ENDBRANCH  10  11
ENDBRANCH   7  10
ENDBRANCH   5   6
BRANCH   5  37
ATOM     37  O   UNL     1       9.743  -2.578  22.941  0.00  0.00    -0.382 OA
ATOM     38  H   UNL     1       9.902  -1.662  22.664  0.00  0.00    +0.210 HD
ENDBRANCH   5  37
ENDBRANCH   3   5
ENDBRANCH   1   3
BRANCH   1  39
ATOM     39  O   UNL     1       7.208  -3.737  22.925  0.00  0.00    -0.286 OA
BRANCH  39  40
ATOM     40  P   UNL     1       5.585  -4.315  22.768  0.00  0.00    +0.483 P 
ATOM     41  O   UNL     1       5.525  -3.762  21.345  0.00  0.00    -0.227 OA
BRANCH  40  42
ATOM     42  O   UNL     1       5.183  -3.078  23.751  0.00  0.00    -0.302 OA
ATOM     43  H   UNL     1       5.065  -2.284  23.178  0.00  0.00    +0.222 HD
ENDBRANCH  40  42
BRANCH  40  44
ATOM     44  O   UNL     1       3.962  -4.894  22.610  0.00  0.00    -0.186 OA
BRANCH  44  45
ATOM     45  P   UNL     1       3.575  -5.901  23.961  0.00  0.00    +0.483 P 
ATOM     46  O   UNL     1       5.078  -6.169  24.133  0.00  0.00    -0.227 OA
BRANCH  45  47
ATOM     47  O   UNL     1       3.068  -7.083  22.951  0.00  0.00    -0.302 OA
ATOM     48  H   UNL     1       2.512  -7.703  23.454  0.00  0.00    +0.222 HD
ENDBRANCH  45  47
BRANCH  45  49
ATOM     49  O   UNL     1       3.188  -6.910  25.314  0.00  0.00    -0.284 OA
BRANCH  49  50
ATOM     50  C   UNL     1       3.680  -6.614  26.616  0.00  0.00    +0.206 C 
BRANCH  50  51
ATOM     51  C   UNL     1       2.663  -5.685  27.315  0.00  0.00    +0.179 C 
ATOM     52  C   UNL     1       2.576  -6.125  28.759  0.00  0.00    +0.194 C 
ATOM     53  C   UNL     1       3.327  -5.050  29.551  0.00  0.00    +0.196 C 
ATOM     54  C   UNL     1       3.978  -4.168  28.486  0.00  0.00    +0.253 C 
ATOM     55  O   UNL     1       3.155  -4.323  27.312  0.00  0.00    -0.346 OA
BRANCH  54  56
ATOM     56  N   UNL     1       4.080  -2.769  28.875  0.00  0.00    -0.286 N 
ATOM     57  C   UNL     1       4.450  -1.749  28.034  0.00  0.00    +0.167 A 
ATOM     58  C   UNL     1       4.359  -0.598  28.800  0.00  0.00    +0.147 A 
ATOM     59  C   UNL     1       4.706   0.611  28.170  0.00  0.00    +0.147 A 
ATOM     60  N   UNL     1       5.081   0.574  26.871  0.00  0.00    -0.219 NA
ATOM     61  C   UNL     1       5.121  -0.622  26.246  0.00  0.00    +0.225 A 
ATOM     62  N   UNL     1       3.913  -0.899  30.071  0.00  0.00    -0.231 NA
ATOM     63  N   UNL     1       4.820  -1.844  26.742  0.00  0.00    -0.216 NA
ATOM     64  C   UNL     1       3.748  -2.206  30.074  0.00  0.00    +0.203 A 
BRANCH  59  65
ATOM     65  N   UNL     1       4.666   1.847  28.804  0.00  0.00    -0.341 N 
ATOM     66  H   UNL     1       5.559   2.321  28.786  0.00  0.00    +0.144 HD
ATOM     67  H   UNL     1       3.839   2.390  28.580  0.00  0.00    +0.144 HD
ENDBRANCH  59  65
ENDBRANCH  54  56
BRANCH  53  68
ATOM     68  O   UNL     1       4.286  -5.700  30.394  0.00  0.00    -0.385 OA
ATOM     69  H   UNL     1       3.842  -5.913  31.245  0.00  0.00    +0.210 HD
ENDBRANCH  53  68
BRANCH  52  70
ATOM     70  O   UNL     1       1.253  -6.398  29.305  0.00  0.00    -0.278 OA
BRANCH  70  71
ATOM     71  P   UNL     1       1.419  -8.086  29.646  0.00  0.00    +0.473 P 
ATOM     72  O   UNL     1       1.568  -9.597  29.951  0.00  0.00    -0.228 OA
BRANCH  71  73
ATOM     73  O   UNL     1       3.028  -7.892  29.428  0.00  0.00    -0.303 OA
ATOM     74  H   UNL     1       3.152  -7.790  28.465  0.00  0.00    +0.222 HD
ENDBRANCH  71  73
BRANCH  71  75
ATOM     75  O   UNL     1       1.003  -8.327  28.084  0.00  0.00    -0.303 OA
ATOM     76  H   UNL     1       0.782  -9.256  27.915  0.00  0.00    +0.222 HD
ENDBRANCH  71  75
ENDBRANCH  70  71
ENDBRANCH  52  70
ENDBRANCH  50  51
ENDBRANCH  49  50
ENDBRANCH  45  49
ENDBRANCH  44  45
ENDBRANCH  40  44
ENDBRANCH  39  40
ENDBRANCH   1  39
TORSDOF 31
ENDMDL
MODEL 5
REMARK VINA RESULT:      -5.3      2.622      5.391
REMARK  Name = 
REMARK  33 active torsions:
REMARK  status: ('A' for Active; 'I' for Inactive)
REMARK    1  A    between atoms: C_1  and  C_2
REMARK    2  A    between atoms: C_2  and  C_3
REMARK    3  A    between atoms: C_2  and  C_4
REMARK    4  A    between atoms: C_2  and  C_40
REMARK    5  A    between atoms: C_4  and  O_5
REMARK    6  A    between atoms: O_5  and  P_6
REMARK    7  A    between atoms: P_6  and  O_7
REMARK    8  A    between atoms: P_6  and  O_9
REMARK    9  A    between atoms: O_9  and  P_10
REMARK   10  A    between atoms: P_10  and  O_11
REMARK   11  A    between atoms: P_10  and  O_13
REMARK   12  A    between atoms: O_13  and  C_14
REMARK   13  A    between atoms: C_14  and  C_15
REMARK   14  A    between atoms: C_18  and  N_30
REMARK   15  A    between atoms: C_20  and  O_22
REMARK   16  A    between atoms: C_23  and  O_25
REMARK   17  A    between atoms: O_25  and  P_26
REMARK   18  A    between atoms: P_26  and  O_27
REMARK   19  A    between atoms: P_26  and  O_28
REMARK   20  A    between atoms: C_34  and  N_35
REMARK   21  A    between atoms: C_40  and  O_42
REMARK   22  A    between atoms: C_40  and  C_43
REMARK   23  A    between atoms: N_45  and  C_46
REMARK   24  A    between atoms: C_46  and  C_47
REMARK   25  A    between atoms: C_47  and  C_48
REMARK   26  A    between atoms: N_50  and  C_51
REMARK   27  A    between atoms: C_51  and  C_52
REMARK   28  A    between atoms: C_52  and  S_53
REMARK   29  A    between atoms: S_53  and  C_54
REMARK   30  A    between atoms: C_54  and  C_55
REMARK   31  A    between atoms: N_57  and  C_58
REMARK   32  A    between atoms: C_58  and  C_59
REMARK   33  A    between atoms: C_59  and  C_60
REMARK                            x       y       z     vdW  Elec       q    Type
REMARK                         _______ _______ _______ _____ _____    ______ ____
ROOT
ATOM      1  C   UNL     1       2.294  -2.801  27.987  0.00  0.00    +0.181 C 
ENDROOT
BRANCH   1   3
ATOM      2  C   UNL     1       3.111  -4.987  28.793  0.00  0.00    +0.016 C 
ATOM      3  C   UNL     1       1.830  -4.228  28.361  0.00  0.00    +0.024 C 
ATOM      4  C   UNL     1       0.902  -4.195  29.589  0.00  0.00    +0.016 C 
BRANCH   3   5
ATOM      5  C   UNL     1       1.150  -4.918  27.135  0.00  0.00    +0.208 C 
BRANCH   5   6
ATOM      6  C   UNL     1       1.992  -6.012  26.419  0.00  0.00    +0.242 C 
ATOM      7  N   UNL     1       2.847  -5.513  25.452  0.00  0.00    -0.313 N 
ATOM      8  H   UNL     1       3.038  -4.519  25.436  0.00  0.00    +0.149 HD
ATOM      9  O   UNL     1       1.933  -7.214  26.649  0.00  0.00    -0.273 OA
BRANCH   7  10
ATOM     10  C   UNL     1       3.429  -6.410  24.471  0.00  0.00    +0.113 C 
BRANCH  10  11
ATOM     11  C   UNL     1       4.943  -6.344  24.421  0.00  0.00    +0.114 C 
BRANCH  11  12
ATOM     12  C   UNL     1       5.444  -5.842  25.757  0.00  0.00    +0.215 C 
ATOM     13  N   UNL     1       5.662  -4.485  25.799  0.00  0.00    -0.314 N 
ATOM     14  H   UNL     1       5.669  -3.959  24.935  0.00  0.00    +0.149 HD
ATOM     15  O   UNL     1       5.658  -6.586  26.709  0.00  0.00    -0.276 OA
BRANCH  13  16
ATOM     16  C   UNL     1       6.166  -3.839  26.999  0.00  0.00    +0.115 C 
BRANCH  16  17
ATOM     17  C   UNL     1       5.810  -2.353  27.069  0.00  0.00    +0.088 C 
BRANCH  17  18
ATOM     18  S   UNL     1       6.185  -1.407  25.534  0.00  0.00    -0.150 S 
BRANCH  18  19
ATOM     19  C   UNL     1       6.969   0.085  26.224  0.00  0.00    +0.164 C 
BRANCH  19  20
ATOM     20  C   UNL     1       8.481  -0.030  26.242  0.00  0.00    +0.223 C 
ATOM     21  N   UNL     1       9.138   0.745  25.308  0.00  0.00    -0.314 N 
ATOM     22  H   UNL     1       8.603   1.177  24.563  0.00  0.00    +0.149 HD
ATOM     23  O   UNL     1       9.068  -0.767  27.032  0.00  0.00    -0.275 OA
BRANCH  21  24
ATOM     24  C   UNL     1      10.579   0.620  25.149  0.00  0.00    +0.109 C 
BRANCH  24  25
ATOM     25  C   UNL     1      11.014   0.230  23.740  0.00  0.00    +0.056 C 
BRANCH  25  26
ATOM     26  C   UNL     1       9.963  -0.491  22.946  0.00  0.00    -0.021 A 
ATOM     27  C   UNL     1       9.427  -1.801  23.212  0.00  0.00    +0.004 A 
ATOM     28  C   UNL     1       9.667  -2.779  24.198  0.00  0.00    +0.025 A 
ATOM     29  C   UNL     1       8.922  -3.958  24.182  0.00  0.00    +0.019 A 
ATOM     30  C   UNL     1       7.943  -4.180  23.220  0.00  0.00    +0.017 A 
ATOM     31  C   UNL     1       7.669  -3.217  22.235  0.00  0.00    +0.027 A 
ATOM     32 BR   UNL     1       9.256  -5.283  25.492  0.00  0.00    -0.050 Br
ATOM     33  C   UNL     1       8.432  -2.038  22.256  0.00  0.00    +0.047 A 
ATOM     34  N   UNL     1       8.375  -0.935  21.443  0.00  0.00    -0.360 N 
ATOM     35  H   UNL     1       7.740  -0.833  20.667  0.00  0.00    +0.165 HD
ATOM     36  C   UNL     1       9.285   0.004  21.848  0.00  0.00    +0.087 A 
ENDBRANCH  25  26
ENDBRANCH  24  25
ENDBRANCH  21  24
ENDBRANCH  19  20
ENDBRANCH  18  19
ENDBRANCH  17  18
ENDBRANCH  16  17
ENDBRANCH  13  16
ENDBRANCH  11  12
ENDBRANCH  10  11
ENDBRANCH   7  10
ENDBRANCH   5   6
BRANCH   5  37
ATOM     37  O   UNL     1       0.744  -3.987  26.125  0.00  0.00    -0.382 OA
ATOM     38  H   UNL     1       1.343  -3.224  26.144  0.00  0.00    +0.210 HD
ENDBRANCH   5  37
ENDBRANCH   3   5
ENDBRANCH   1   3
BRANCH   1  39
ATOM     39  O   UNL     1       1.355  -1.803  28.351  0.00  0.00    -0.286 OA
BRANCH  39  40
ATOM     40  P   UNL     1       1.568  -0.321  27.484  0.00  0.00    +0.483 P 
ATOM     41  O   UNL     1       0.539   0.355  28.389  0.00  0.00    -0.227 OA
BRANCH  40  42
ATOM     42  O   UNL     1       0.718  -1.042  26.294  0.00  0.00    -0.302 OA
ATOM     43  H   UNL     1       0.876  -2.011  26.376  0.00  0.00    +0.222 HD
ENDBRANCH  40  42
BRANCH  40  44
ATOM     44  O   UNL     1       1.780   1.162  26.619  0.00  0.00    -0.186 OA
BRANCH  44  45
ATOM     45  P   UNL     1       3.325   1.837  27.003  0.00  0.00    +0.483 P 
ATOM     46  O   UNL     1       3.828   1.346  25.638  0.00  0.00    -0.227 OA
BRANCH  45  47
ATOM     47  O   UNL     1       3.631   0.591  28.018  0.00  0.00    -0.302 OA
ATOM     48  H   UNL     1       2.942   0.576  28.704  0.00  0.00    +0.222 HD
ENDBRANCH  45  47
BRANCH  45  49
ATOM     49  O   UNL     1       4.871   2.513  27.388  0.00  0.00    -0.284 OA
BRANCH  49  50
ATOM     50  C   UNL     1       5.228   3.823  26.960  0.00  0.00    +0.206 C 
BRANCH  50  51
ATOM     51  C   UNL     1       6.024   3.696  25.641  0.00  0.00    +0.179 C 
ATOM     52  C   UNL     1       5.464   4.724  24.683  0.00  0.00    +0.194 C 
ATOM     53  C   UNL     1       6.523   5.830  24.618  0.00  0.00    +0.196 C 
ATOM     54  C   UNL     1       7.531   5.465  25.707  0.00  0.00    +0.253 C 
ATOM     55  O   UNL     1       7.413   4.036  25.868  0.00  0.00    -0.346 OA
BRANCH  54  56
ATOM     56  N   UNL     1       8.899   5.845  25.383  0.00  0.00    -0.286 N 
ATOM     57  C   UNL     1       9.732   5.133  24.557  0.00  0.00    +0.167 A 
ATOM     58  C   UNL     1      10.899   5.879  24.491  0.00  0.00    +0.147 A 
ATOM     59  C   UNL     1      11.942   5.355  23.707  0.00  0.00    +0.147 A 
ATOM     60  N   UNL     1      11.736   4.183  23.062  0.00  0.00    -0.219 NA
ATOM     61  C   UNL     1      10.545   3.565  23.216  0.00  0.00    +0.225 A 
ATOM     62  N   UNL     1      10.773   7.037  25.232  0.00  0.00    -0.231 NA
ATOM     63  N   UNL     1       9.475   3.963  23.942  0.00  0.00    -0.216 NA
ATOM     64  C   UNL     1       9.559   6.985  25.742  0.00  0.00    +0.203 A 
BRANCH  59  65
ATOM     65  N   UNL     1      13.170   5.984  23.542  0.00  0.00    -0.341 N 
ATOM     66  H   UNL     1      13.225   6.863  24.039  0.00  0.00    +0.144 HD
ATOM     67  H   UNL     1      13.960   5.352  23.611  0.00  0.00    +0.144 HD
ENDBRANCH  59  65
ENDBRANCH  54  56
BRANCH  53  68
ATOM     68  O   UNL     1       5.877   7.086  24.860  0.00  0.00    -0.385 OA
ATOM     69  H   UNL     1       5.720   7.514  23.989  0.00  0.00    +0.210 HD
ENDBRANCH  53  68
BRANCH  52  70
ATOM     70  O   UNL     1       5.055   4.265  23.362  0.00  0.00    -0.278 OA
BRANCH  70  71
ATOM     71  P   UNL     1       6.067   2.871  23.209  0.00  0.00    +0.473 P 
ATOM     72  O   UNL     1       6.973   1.623  23.070  0.00  0.00    -0.228 OA
BRANCH  71  73
ATOM     73  O   UNL     1       6.848   3.667  22.012  0.00  0.00    -0.303 OA
ATOM     74  H   UNL     1       6.346   4.493  21.876  0.00  0.00    +0.222 HD
ENDBRANCH  71  73
BRANCH  71  75
ATOM     75  O   UNL     1       4.859   2.234  22.310  0.00  0.00    -0.303 OA
ATOM     76  H   UNL     1       4.953   1.273  22.219  0.00  0.00    +0.222 HD
ENDBRANCH  71  75
ENDBRANCH  70  71
ENDBRANCH  52  70
ENDBRANCH  50  51
ENDBRANCH  49  50
ENDBRANCH  45  49
ENDBRANCH  44  45
ENDBRANCH  40  44
ENDBRANCH  39  40
ENDBRANCH   1  39
TORSDOF 31
ENDMDL
MODEL 6
REMARK VINA RESULT:      -5.2      4.128     10.555
REMARK  Name = 
REMARK  33 active torsions:
REMARK  status: ('A' for Active; 'I' for Inactive)
REMARK    1  A    between atoms: C_1  and  C_2
REMARK    2  A    between atoms: C_2  and  C_3
REMARK    3  A    between atoms: C_2  and  C_4
REMARK    4  A    between atoms: C_2  and  C_40
REMARK    5  A    between atoms: C_4  and  O_5
REMARK    6  A    between atoms: O_5  and  P_6
REMARK    7  A    between atoms: P_6  and  O_7
REMARK    8  A    between atoms: P_6  and  O_9
REMARK    9  A    between atoms: O_9  and  P_10
REMARK   10  A    between atoms: P_10  and  O_11
REMARK   11  A    between atoms: P_10  and  O_13
REMARK   12  A    between atoms: O_13  and  C_14
REMARK   13  A    between atoms: C_14  and  C_15
REMARK   14  A    between atoms: C_18  and  N_30
REMARK   15  A    between atoms: C_20  and  O_22
REMARK   16  A    between atoms: C_23  and  O_25
REMARK   17  A    between atoms: O_25  and  P_26
REMARK   18  A    between atoms: P_26  and  O_27
REMARK   19  A    between atoms: P_26  and  O_28
REMARK   20  A    between atoms: C_34  and  N_35
REMARK   21  A    between atoms: C_40  and  O_42
REMARK   22  A    between atoms: C_40  and  C_43
REMARK   23  A    between atoms: N_45  and  C_46
REMARK   24  A    between atoms: C_46  and  C_47
REMARK   25  A    between atoms: C_47  and  C_48
REMARK   26  A    between atoms: N_50  and  C_51
REMARK   27  A    between atoms: C_51  and  C_52
REMARK   28  A    between atoms: C_52  and  S_53
REMARK   29  A    between atoms: S_53  and  C_54
REMARK   30  A    between atoms: C_54  and  C_55
REMARK   31  A    between atoms: N_57  and  C_58
REMARK   32  A    between atoms: C_58  and  C_59
REMARK   33  A    between atoms: C_59  and  C_60
REMARK                            x       y       z     vdW  Elec       q    Type
REMARK                         _______ _______ _______ _____ _____    ______ ____
ROOT
ATOM      1  C   UNL     1       9.390  -0.017  23.078  0.00  0.00    +0.181 C 
ENDROOT
BRANCH   1   3
ATOM      2  C   UNL     1       9.090   1.765  24.760  0.00  0.00    +0.016 C 
ATOM      3  C   UNL     1      10.091   1.206  23.717  0.00  0.00    +0.024 C 
ATOM      4  C   UNL     1      11.344   0.769  24.497  0.00  0.00    +0.016 C 
BRANCH   3   5
ATOM      5  C   UNL     1      10.426   2.273  22.624  0.00  0.00    +0.208 C 
BRANCH   5   6
ATOM      6  C   UNL     1      10.756   3.699  23.148  0.00  0.00    +0.242 C 
ATOM      7  N   UNL     1       9.638   4.488  23.357  0.00  0.00    -0.313 N 
ATOM      8  H   UNL     1       8.728   4.047  23.388  0.00  0.00    +0.149 HD
ATOM      9  O   UNL     1      11.883   4.131  23.362  0.00  0.00    -0.273 OA
BRANCH   7  10
ATOM     10  C   UNL     1       9.787   5.924  23.502  0.00  0.00    +0.113 C 
BRANCH  10  11
ATOM     11  C   UNL     1       8.475   6.677  23.398  0.00  0.00    +0.114 C 
BRANCH  11  12
ATOM     12  C   UNL     1       7.409   5.882  24.120  0.00  0.00    +0.215 C 
ATOM     13  N   UNL     1       7.144   6.328  25.394  0.00  0.00    -0.314 N 
ATOM     14  H   UNL     1       7.775   6.990  25.826  0.00  0.00    +0.149 HD
ATOM     15  O   UNL     1       6.849   4.913  23.618  0.00  0.00    -0.276 OA
BRANCH  13  16
ATOM     16  C   UNL     1       6.164   5.665  26.236  0.00  0.00    +0.115 C 
BRANCH  16  17
ATOM     17  C   UNL     1       6.666   5.430  27.662  0.00  0.00    +0.088 C 
BRANCH  17  18
ATOM     18  S   UNL     1       5.593   4.328  28.674  0.00  0.00    -0.150 S 
BRANCH  18  19
ATOM     19  C   UNL     1       6.838   3.433  29.657  0.00  0.00    +0.164 C 
BRANCH  19  20
ATOM     20  C   UNL     1       6.894   1.962  29.291  0.00  0.00    +0.223 C 
ATOM     21  N   UNL     1       7.151   1.700  27.961  0.00  0.00    -0.314 N 
ATOM     22  H   UNL     1       7.095   2.458  27.289  0.00  0.00    +0.149 HD
ATOM     23  O   UNL     1       6.717   1.077  30.126  0.00  0.00    -0.275 OA
BRANCH  21  24
ATOM     24  C   UNL     1       7.103   0.330  27.471  0.00  0.00    +0.109 C 
BRANCH  24  25
ATOM     25  C   UNL     1       5.787  -0.037  26.794  0.00  0.00    +0.056 C 
BRANCH  25  26
ATOM     26  C   UNL     1       5.298   0.977  25.800  0.00  0.00    -0.021 A 
ATOM     27  C   UNL     1       4.205   1.898  25.974  0.00  0.00    +0.004 A 
ATOM     28  C   UNL     1       3.294   2.156  27.018  0.00  0.00    +0.025 A 
ATOM     29  C   UNL     1       2.356   3.177  26.865  0.00  0.00    +0.019 A 
ATOM     30  C   UNL     1       2.311   3.950  25.710  0.00  0.00    +0.017 A 
ATOM     31  C   UNL     1       3.218   3.729  24.661  0.00  0.00    +0.027 A 
ATOM     32 BR   UNL     1       1.116   3.512  28.256  0.00  0.00    -0.050 Br
ATOM     33  C   UNL     1       4.152   2.692  24.822  0.00  0.00    +0.047 A 
ATOM     34  N   UNL     1       5.151   2.266  23.985  0.00  0.00    -0.360 N 
ATOM     35  H   UNL     1       5.345   2.667  23.081  0.00  0.00    +0.165 HD
ATOM     36  C   UNL     1       5.851   1.240  24.561  0.00  0.00    +0.087 A 
ENDBRANCH  25  26
ENDBRANCH  24  25
ENDBRANCH  21  24
ENDBRANCH  19  20
ENDBRANCH  18  19
ENDBRANCH  17  18
ENDBRANCH  16  17
ENDBRANCH  13  16
ENDBRANCH  11  12
ENDBRANCH  10  11
ENDBRANCH   7  10
ENDBRANCH   5   6
BRANCH   5  37
ATOM     37  O   UNL     1       9.383   2.423  21.654  0.00  0.00    -0.382 OA
ATOM     38  H   UNL     1       9.476   3.288  21.225  0.00  0.00    +0.210 HD
ENDBRANCH   5  37
ENDBRANCH   3   5
ENDBRANCH   1   3
BRANCH   1  39
ATOM     39  O   UNL     1       8.652  -0.780  24.016  0.00  0.00    -0.286 OA
BRANCH  39  40
ATOM     40  P   UNL     1       9.290  -2.371  24.251  0.00  0.00    +0.483 P 
ATOM     41  O   UNL     1       9.334  -2.577  22.737  0.00  0.00    -0.227 OA
BRANCH  40  42
ATOM     42  O   UNL     1       7.781  -2.772  24.718  0.00  0.00    -0.302 OA
ATOM     43  H   UNL     1       7.868  -3.503  25.373  0.00  0.00    +0.222 HD
ENDBRANCH  40  42
BRANCH  40  44
ATOM     44  O   UNL     1       9.930  -3.961  24.485  0.00  0.00    -0.186 OA
BRANCH  44  45
ATOM     45  P   UNL     1       8.789  -4.918  25.365  0.00  0.00    +0.483 P 
ATOM     46  O   UNL     1       9.177  -4.136  26.628  0.00  0.00    -0.227 OA
BRANCH  45  47
ATOM     47  O   UNL     1       9.818  -6.188  25.343  0.00  0.00    -0.302 OA
ATOM     48  H   UNL     1      10.489  -6.054  26.035  0.00  0.00    +0.222 HD
ENDBRANCH  45  47
BRANCH  45  49
ATOM     49  O   UNL     1       7.647  -5.874  26.245  0.00  0.00    -0.284 OA
BRANCH  49  50
ATOM     50  C   UNL     1       7.005  -5.367  27.410  0.00  0.00    +0.206 C 
BRANCH  50  51
ATOM     51  C   UNL     1       5.590  -5.982  27.485  0.00  0.00    +0.179 C 
ATOM     52  C   UNL     1       4.648  -4.882  27.920  0.00  0.00    +0.194 C 
ATOM     53  C   UNL     1       3.861  -4.506  26.660  0.00  0.00    +0.196 C 
ATOM     54  C   UNL     1       4.550  -5.272  25.531  0.00  0.00    +0.253 C 
ATOM     55  O   UNL     1       5.167  -6.410  26.167  0.00  0.00    -0.346 OA
BRANCH  54  56
ATOM     56  N   UNL     1       3.639  -5.691  24.475  0.00  0.00    -0.286 N 
ATOM     57  C   UNL     1       2.910  -6.854  24.488  0.00  0.00    +0.167 A 
ATOM     58  C   UNL     1       2.152  -6.818  23.328  0.00  0.00    +0.147 A 
ATOM     59  C   UNL     1       1.313  -7.920  23.086  0.00  0.00    +0.147 A 
ATOM     60  N   UNL     1       1.285  -8.920  23.997  0.00  0.00    -0.219 NA
ATOM     61  C   UNL     1       2.078  -8.821  25.086  0.00  0.00    +0.225 A 
ATOM     62  N   UNL     1       2.384  -5.647  22.636  0.00  0.00    -0.231 NA
ATOM     63  N   UNL     1       2.927  -7.823  25.424  0.00  0.00    -0.216 NA
ATOM     64  C   UNL     1       3.273  -4.994  23.359  0.00  0.00    +0.203 A 
BRANCH  59  65
ATOM     65  N   UNL     1       0.492  -8.031  21.970  0.00  0.00    -0.341 N 
ATOM     66  H   UNL     1      -0.025  -7.181  21.784  0.00  0.00    +0.144 HD
ATOM     67  H   UNL     1       0.938  -8.493  21.185  0.00  0.00    +0.144 HD
ENDBRANCH  59  65
ENDBRANCH  54  56
BRANCH  53  68
ATOM     68  O   UNL     1       3.935  -3.085  26.491  0.00  0.00    -0.385 OA
ATOM     69  H   UNL     1       4.740  -2.770  26.960  0.00  0.00    +0.210 HD
ENDBRANCH  53  68
BRANCH  52  70
ATOM     70  O   UNL     1       3.781  -5.145  29.061  0.00  0.00    -0.278 OA
BRANCH  70  71
ATOM     71  P   UNL     1       2.314  -5.534  28.233  0.00  0.00    +0.473 P 
ATOM     72  O   UNL     1       0.999  -5.881  27.491  0.00  0.00    -0.228 OA
BRANCH  71  73
ATOM     73  O   UNL     1       1.575  -4.428  29.185  0.00  0.00    -0.303 OA
ATOM     74  H   UNL     1       0.627  -4.480  28.959  0.00  0.00    +0.222 HD
ENDBRANCH  71  73
BRANCH  71  75
ATOM     75  O   UNL     1       2.213  -6.813  29.246  0.00  0.00    -0.303 OA
ATOM     76  H   UNL     1       1.415  -7.337  29.077  0.00  0.00    +0.222 HD
ENDBRANCH  71  75
ENDBRANCH  70  71
ENDBRANCH  52  70
ENDBRANCH  50  51
ENDBRANCH  49  50
ENDBRANCH  45  49
ENDBRANCH  44  45
ENDBRANCH  40  44
ENDBRANCH  39  40
ENDBRANCH   1  39
TORSDOF 31
ENDMDL
MODEL 7
REMARK VINA RESULT:      -5.2      2.932      4.567
REMARK  Name = 
REMARK  33 active torsions:
REMARK  status: ('A' for Active; 'I' for Inactive)
REMARK    1  A    between atoms: C_1  and  C_2
REMARK    2  A    between atoms: C_2  and  C_3
REMARK    3  A    between atoms: C_2  and  C_4
REMARK    4  A    between atoms: C_2  and  C_40
REMARK    5  A    between atoms: C_4  and  O_5
REMARK    6  A    between atoms: O_5  and  P_6
REMARK    7  A    between atoms: P_6  and  O_7
REMARK    8  A    between atoms: P_6  and  O_9
REMARK    9  A    between atoms: O_9  and  P_10
REMARK   10  A    between atoms: P_10  and  O_11
REMARK   11  A    between atoms: P_10  and  O_13
REMARK   12  A    between atoms: O_13  and  C_14
REMARK   13  A    between atoms: C_14  and  C_15
REMARK   14  A    between atoms: C_18  and  N_30
REMARK   15  A    between atoms: C_20  and  O_22
REMARK   16  A    between atoms: C_23  and  O_25
REMARK   17  A    between atoms: O_25  and  P_26
REMARK   18  A    between atoms: P_26  and  O_27
REMARK   19  A    between atoms: P_26  and  O_28
REMARK   20  A    between atoms: C_34  and  N_35
REMARK   21  A    between atoms: C_40  and  O_42
REMARK   22  A    between atoms: C_40  and  C_43
REMARK   23  A    between atoms: N_45  and  C_46
REMARK   24  A    between atoms: C_46  and  C_47
REMARK   25  A    between atoms: C_47  and  C_48
REMARK   26  A    between atoms: N_50  and  C_51
REMARK   27  A    between atoms: C_51  and  C_52
REMARK   28  A    between atoms: C_52  and  S_53
REMARK   29  A    between atoms: S_53  and  C_54
REMARK   30  A    between atoms: C_54  and  C_55
REMARK   31  A    between atoms: N_57  and  C_58
REMARK   32  A    between atoms: C_58  and  C_59
REMARK   33  A    between atoms: C_59  and  C_60
REMARK                            x       y       z     vdW  Elec       q    Type
REMARK                         _______ _______ _______ _____ _____    ______ ____
ROOT
ATOM      1  C   UNL     1       5.988   0.309  27.181  0.00  0.00    +0.181 C 
ENDROOT
BRANCH   1   3
ATOM      2  C   UNL     1       6.121   1.984  28.990  0.00  0.00    +0.016 C 
ATOM      3  C   UNL     1       5.122   1.215  28.088  0.00  0.00    +0.024 C 
ATOM      4  C   UNL     1       4.378   2.272  27.251  0.00  0.00    +0.016 C 
BRANCH   3   5
ATOM      5  C   UNL     1       4.139   0.349  28.941  0.00  0.00    +0.208 C 
BRANCH   5   6
ATOM      6  C   UNL     1       3.779  -1.045  28.354  0.00  0.00    +0.242 C 
ATOM      7  N   UNL     1       2.830  -0.999  27.349  0.00  0.00    -0.313 N 
ATOM      8  H   UNL     1       2.619  -0.107  26.918  0.00  0.00    +0.149 HD
ATOM      9  O   UNL     1       4.258  -2.112  28.722  0.00  0.00    -0.273 OA
BRANCH   7  10
ATOM     10  C   UNL     1       2.141  -2.212  26.950  0.00  0.00    +0.113 C 
BRANCH  10  11
ATOM     11  C   UNL     1       1.003  -2.589  27.879  0.00  0.00    +0.114 C 
BRANCH  11  12
ATOM     12  C   UNL     1       1.276  -3.971  28.432  0.00  0.00    +0.215 C 
ATOM     13  N   UNL     1       2.530  -4.453  28.138  0.00  0.00    -0.314 N 
ATOM     14  H   UNL     1       3.091  -3.979  27.443  0.00  0.00    +0.149 HD
ATOM     15  O   UNL     1       0.443  -4.609  29.067  0.00  0.00    -0.276 OA
BRANCH  13  16
ATOM     16  C   UNL     1       2.950  -5.774  28.573  0.00  0.00    +0.115 C 
BRANCH  16  17
ATOM     17  C   UNL     1       3.092  -6.765  27.416  0.00  0.00    +0.088 C 
BRANCH  17  18
ATOM     18  S   UNL     1       4.706  -6.675  26.532  0.00  0.00    -0.150 S 
BRANCH  18  19
ATOM     19  C   UNL     1       5.780  -5.988  27.833  0.00  0.00    +0.164 C 
BRANCH  19  20
ATOM     20  C   UNL     1       6.783  -5.000  27.270  0.00  0.00    +0.223 C 
ATOM     21  N   UNL     1       7.994  -5.546  26.895  0.00  0.00    -0.314 N 
ATOM     22  H   UNL     1       8.218  -6.491  27.183  0.00  0.00    +0.149 HD
ATOM     23  O   UNL     1       6.527  -3.802  27.164  0.00  0.00    -0.275 OA
BRANCH  21  24
ATOM     24  C   UNL     1       9.077  -4.674  26.460  0.00  0.00    +0.109 C 
BRANCH  24  25
ATOM     25  C   UNL     1       9.573  -4.965  25.047  0.00  0.00    +0.056 C 
BRANCH  25  26
ATOM     26  C   UNL     1       8.481  -5.134  24.030  0.00  0.00    -0.021 A 
ATOM     27  C   UNL     1       7.638  -4.100  23.489  0.00  0.00    +0.004 A 
ATOM     28  C   UNL     1       7.534  -2.709  23.694  0.00  0.00    +0.025 A 
ATOM     29  C   UNL     1       6.603  -1.980  22.953  0.00  0.00    +0.019 A 
ATOM     30  C   UNL     1       5.786  -2.597  22.013  0.00  0.00    +0.017 A 
ATOM     31  C   UNL     1       5.880  -3.978  21.774  0.00  0.00    +0.027 A 
ATOM     32 BR   UNL     1       6.446  -0.116  23.242  0.00  0.00    -0.050 Br
ATOM     33  C   UNL     1       6.814  -4.703  22.531  0.00  0.00    +0.047 A 
ATOM     34  N   UNL     1       7.130  -6.037  22.502  0.00  0.00    -0.360 N 
ATOM     35  H   UNL     1       6.690  -6.712  21.896  0.00  0.00    +0.165 HD
ATOM     36  C   UNL     1       8.133  -6.310  23.392  0.00  0.00    +0.087 A 
ENDBRANCH  25  26
ENDBRANCH  24  25
ENDBRANCH  21  24
ENDBRANCH  19  20
ENDBRANCH  18  19
ENDBRANCH  17  18
ENDBRANCH  16  17
ENDBRANCH  13  16
ENDBRANCH  11  12
ENDBRANCH  10  11
ENDBRANCH   7  10
ENDBRANCH   5   6
BRANCH   5  37
ATOM     37  O   UNL     1       2.899   1.014  29.209  0.00  0.00    -0.382 OA
ATOM     38  H   UNL     1       2.363   0.454  29.792  0.00  0.00    +0.210 HD
ENDBRANCH   5  37
ENDBRANCH   3   5
ENDBRANCH   1   3
BRANCH   1  39
ATOM     39  O   UNL     1       7.325   0.190  27.638  0.00  0.00    -0.286 OA
BRANCH  39  40
ATOM     40  P   UNL     1       8.399  -0.440  26.437  0.00  0.00    +0.483 P 
ATOM     41  O   UNL     1       9.436  -0.734  27.520  0.00  0.00    -0.227 OA
BRANCH  40  42
ATOM     42  O   UNL     1       8.627   1.116  26.006  0.00  0.00    -0.302 OA
ATOM     43  H   UNL     1       9.469   1.151  25.495  0.00  0.00    +0.222 HD
ENDBRANCH  40  42
BRANCH  40  44
ATOM     44  O   UNL     1       9.475  -1.070  25.237  0.00  0.00    -0.186 OA
BRANCH  44  45
ATOM     45  P   UNL     1      10.058   0.224  24.249  0.00  0.00    +0.483 P 
ATOM     46  O   UNL     1      10.605  -0.828  23.274  0.00  0.00    -0.227 OA
BRANCH  45  47
ATOM     47  O   UNL     1      11.289   0.483  25.295  0.00  0.00    -0.302 OA
ATOM     48  H   UNL     1      11.260   1.412  25.582  0.00  0.00    +0.222 HD
ENDBRANCH  45  47
BRANCH  45  49
ATOM     49  O   UNL     1      10.642   1.519  23.261  0.00  0.00    -0.284 OA
BRANCH  49  50
ATOM     50  C   UNL     1       9.772   2.554  22.815  0.00  0.00    +0.206 C 
BRANCH  50  51
ATOM     51  C   UNL     1       9.442   3.458  24.024  0.00  0.00    +0.179 C 
ATOM     52  C   UNL     1       9.742   4.881  23.611  0.00  0.00    +0.194 C 
ATOM     53  C   UNL     1       8.373   5.535  23.400  0.00  0.00    +0.196 C 
ATOM     54  C   UNL     1       7.374   4.383  23.502  0.00  0.00    +0.253 C 
ATOM     55  O   UNL     1       8.025   3.389  24.319  0.00  0.00    -0.346 OA
BRANCH  54  56
ATOM     56  N   UNL     1       6.093   4.775  24.074  0.00  0.00    -0.286 N 
ATOM     57  C   UNL     1       4.872   4.339  23.627  0.00  0.00    +0.167 A 
ATOM     58  C   UNL     1       3.947   4.915  24.484  0.00  0.00    +0.147 A 
ATOM     59  C   UNL     1       2.592   4.635  24.232  0.00  0.00    +0.147 A 
ATOM     60  N   UNL     1       2.284   3.820  23.197  0.00  0.00    -0.219 NA
ATOM     61  C   UNL     1       3.292   3.327  22.445  0.00  0.00    +0.225 A 
ATOM     62  N   UNL     1       4.586   5.659  25.454  0.00  0.00    -0.231 NA
ATOM     63  N   UNL     1       4.623   3.526  22.582  0.00  0.00    -0.216 NA
ATOM     64  C   UNL     1       5.871   5.544  25.181  0.00  0.00    +0.203 A 
BRANCH  59  65
ATOM     65  N   UNL     1       1.548   5.136  25.002  0.00  0.00    -0.341 N 
ATOM     66  H   UNL     1       1.597   4.833  25.965  0.00  0.00    +0.144 HD
ATOM     67  H   UNL     1       1.349   6.115  24.824  0.00  0.00    +0.144 HD
ENDBRANCH  59  65
ENDBRANCH  54  56
BRANCH  53  68
ATOM     68  O   UNL     1       8.368   6.160  22.110  0.00  0.00    -0.385 OA
ATOM     69  H   UNL     1       9.149   6.755  22.063  0.00  0.00    +0.210 HD
ENDBRANCH  53  68
BRANCH  52  70
ATOM     70  O   UNL     1      10.609   5.668  24.478  0.00  0.00    -0.278 OA
BRANCH  70  71
ATOM     71  P   UNL     1      12.149   5.252  23.811  0.00  0.00    +0.473 P 
ATOM     72  O   UNL     1      13.529   4.880  23.214  0.00  0.00    -0.228 OA
BRANCH  71  73
ATOM     73  O   UNL     1      12.748   6.570  24.571  0.00  0.00    -0.303 OA
ATOM     74  H   UNL     1      13.433   6.928  23.975  0.00  0.00    +0.222 HD
ENDBRANCH  71  73
BRANCH  71  75
ATOM     75  O   UNL     1      11.631   5.989  22.447  0.00  0.00    -0.303 OA
ATOM     76  H   UNL     1      12.373   6.333  21.926  0.00  0.00    +0.222 HD
ENDBRANCH  71  75
ENDBRANCH  70  71
ENDBRANCH  52  70
ENDBRANCH  50  51
ENDBRANCH  49  50
ENDBRANCH  45  49
ENDBRANCH  44  45
ENDBRANCH  40  44
ENDBRANCH  39  40
ENDBRANCH   1  39
TORSDOF 31
ENDMDL
MODEL 8
REMARK VINA RESULT:      -5.2      2.890      5.399
REMARK  Name = 
REMARK  33 active torsions:
REMARK  status: ('A' for Active; 'I' for Inactive)
REMARK    1  A    between atoms: C_1  and  C_2
REMARK    2  A    between atoms: C_2  and  C_3
REMARK    3  A    between atoms: C_2  and  C_4
REMARK    4  A    between atoms: C_2  and  C_40
REMARK    5  A    between atoms: C_4  and  O_5
REMARK    6  A    between atoms: O_5  and  P_6
REMARK    7  A    between atoms: P_6  and  O_7
REMARK    8  A    between atoms: P_6  and  O_9
REMARK    9  A    between atoms: O_9  and  P_10
REMARK   10  A    between atoms: P_10  and  O_11
REMARK   11  A    between atoms: P_10  and  O_13
REMARK   12  A    between atoms: O_13  and  C_14
REMARK   13  A    between atoms: C_14  and  C_15
REMARK   14  A    between atoms: C_18  and  N_30
REMARK   15  A    between atoms: C_20  and  O_22
REMARK   16  A    between atoms: C_23  and  O_25
REMARK   17  A    between atoms: O_25  and  P_26
REMARK   18  A    between atoms: P_26  and  O_27
REMARK   19  A    between atoms: P_26  and  O_28
REMARK   20  A    between atoms: C_34  and  N_35
REMARK   21  A    between atoms: C_40  and  O_42
REMARK   22  A    between atoms: C_40  and  C_43
REMARK   23  A    between atoms: N_45  and  C_46
REMARK   24  A    between atoms: C_46  and  C_47
REMARK   25  A    between atoms: C_47  and  C_48
REMARK   26  A    between atoms: N_50  and  C_51
REMARK   27  A    between atoms: C_51  and  C_52
REMARK   28  A    between atoms: C_52  and  S_53
REMARK   29  A    between atoms: S_53  and  C_54
REMARK   30  A    between atoms: C_54  and  C_55
REMARK   31  A    between atoms: N_57  and  C_58
REMARK   32  A    between atoms: C_58  and  C_59
REMARK   33  A    between atoms: C_59  and  C_60
REMARK                            x       y       z     vdW  Elec       q    Type
REMARK                         _______ _______ _______ _____ _____    ______ ____
ROOT
ATOM      1  C   UNL     1       3.707  -3.335  28.178  0.00  0.00    +0.181 C 
ENDROOT
BRANCH   1   3
ATOM      2  C   UNL     1       4.885  -5.472  27.804  0.00  0.00    +0.016 C 
ATOM      3  C   UNL     1       3.790  -4.799  28.670  0.00  0.00    +0.024 C 
ATOM      4  C   UNL     1       4.283  -4.856  30.128  0.00  0.00    +0.016 C 
BRANCH   3   5
ATOM      5  C   UNL     1       2.410  -5.511  28.493  0.00  0.00    +0.208 C 
BRANCH   5   6
ATOM      6  C   UNL     1       2.219  -6.297  27.165  0.00  0.00    +0.242 C 
ATOM      7  N   UNL     1       1.628  -5.554  26.158  0.00  0.00    -0.313 N 
ATOM      8  H   UNL     1       1.580  -4.547  26.258  0.00  0.00    +0.149 HD
ATOM      9  O   UNL     1       2.537  -7.466  26.982  0.00  0.00    -0.273 OA
BRANCH   7  10
ATOM     10  C   UNL     1       1.069  -6.225  24.999  0.00  0.00    +0.113 C 
BRANCH  10  11
ATOM     11  C   UNL     1       1.552  -5.649  23.681  0.00  0.00    +0.114 C 
BRANCH  11  12
ATOM     12  C   UNL     1       3.046  -5.432  23.773  0.00  0.00    +0.215 C 
ATOM     13  N   UNL     1       3.425  -4.112  23.698  0.00  0.00    -0.314 N 
ATOM     14  H   UNL     1       2.749  -3.421  23.401  0.00  0.00    +0.149 HD
ATOM     15  O   UNL     1       3.846  -6.355  23.883  0.00  0.00    -0.276 OA
BRANCH  13  16
ATOM     16  C   UNL     1       4.825  -3.726  23.746  0.00  0.00    +0.115 C 
BRANCH  16  17
ATOM     17  C   UNL     1       5.376  -3.313  22.381  0.00  0.00    +0.088 C 
BRANCH  17  18
ATOM     18  S   UNL     1       7.176  -3.632  22.159  0.00  0.00    -0.150 S 
BRANCH  18  19
ATOM     19  C   UNL     1       7.342  -5.265  22.948  0.00  0.00    +0.164 C 
BRANCH  19  20
ATOM     20  C   UNL     1       8.231  -5.209  24.175  0.00  0.00    +0.223 C 
ATOM     21  N   UNL     1       7.704  -4.520  25.249  0.00  0.00    -0.314 N 
ATOM     22  H   UNL     1       6.882  -3.945  25.108  0.00  0.00    +0.149 HD
ATOM     23  O   UNL     1       9.340  -5.740  24.199  0.00  0.00    -0.275 OA
BRANCH  21  24
ATOM     24  C   UNL     1       8.519  -4.295  26.434  0.00  0.00    +0.109 C 
BRANCH  24  25
ATOM     25  C   UNL     1       8.724  -2.822  26.771  0.00  0.00    +0.056 C 
BRANCH  25  26
ATOM     26  C   UNL     1       7.650  -1.912  26.247  0.00  0.00    -0.021 A 
ATOM     27  C   UNL     1       7.717  -1.089  25.068  0.00  0.00    +0.004 A 
ATOM     28  C   UNL     1       8.701  -0.857  24.086  0.00  0.00    +0.025 A 
ATOM     29  C   UNL     1       8.413   0.001  23.023  0.00  0.00    +0.019 A 
ATOM     30  C   UNL     1       7.173   0.620  22.911  0.00  0.00    +0.017 A 
ATOM     31  C   UNL     1       6.166   0.394  23.864  0.00  0.00    +0.027 A 
ATOM     32 BR   UNL     1       9.739   0.332  21.715  0.00  0.00    -0.050 Br
ATOM     33  C   UNL     1       6.471  -0.464  24.934  0.00  0.00    +0.047 A 
ATOM     34  N   UNL     1       5.692  -0.875  25.986  0.00  0.00    -0.360 N 
ATOM     35  H   UNL     1       4.740  -0.581  26.137  0.00  0.00    +0.165 HD
ATOM     36  C   UNL     1       6.385  -1.748  26.780  0.00  0.00    +0.087 A 
ENDBRANCH  25  26
ENDBRANCH  24  25
ENDBRANCH  21  24
ENDBRANCH  19  20
ENDBRANCH  18  19
ENDBRANCH  17  18
ENDBRANCH  16  17
ENDBRANCH  13  16
ENDBRANCH  11  12
ENDBRANCH  10  11
ENDBRANCH   7  10
ENDBRANCH   5   6
BRANCH   5  37
ATOM     37  O   UNL     1       1.301  -4.612  28.601  0.00  0.00    -0.382 OA
ATOM     38  H   UNL     1       0.613  -4.886  27.974  0.00  0.00    +0.210 HD
ENDBRANCH   5  37
ENDBRANCH   3   5
ENDBRANCH   1   3
BRANCH   1  39
ATOM     39  O   UNL     1       3.144  -2.461  29.141  0.00  0.00    -0.286 OA
BRANCH  39  40
ATOM     40  P   UNL     1       2.645  -0.945  28.473  0.00  0.00    +0.483 P 
ATOM     41  O   UNL     1       1.924  -0.608  29.777  0.00  0.00    -0.227 OA
BRANCH  40  42
ATOM     42  O   UNL     1       1.594  -1.823  27.589  0.00  0.00    -0.302 OA
ATOM     43  H   UNL     1       0.710  -1.722  28.012  0.00  0.00    +0.222 HD
ENDBRANCH  40  42
BRANCH  40  44
ATOM     44  O   UNL     1       2.147   0.572  27.807  0.00  0.00    -0.186 OA
BRANCH  44  45
ATOM     45  P   UNL     1       3.525   1.599  27.616  0.00  0.00    +0.483 P 
ATOM     46  O   UNL     1       3.567   1.191  26.136  0.00  0.00    -0.227 OA
BRANCH  45  47
ATOM     47  O   UNL     1       4.468   0.493  28.367  0.00  0.00    -0.302 OA
ATOM     48  H   UNL     1       4.307  -0.377  27.961  0.00  0.00    +0.222 HD
ENDBRANCH  45  47
BRANCH  45  49
ATOM     49  O   UNL     1       4.905   2.627  27.426  0.00  0.00    -0.284 OA
BRANCH  49  50
ATOM     50  C   UNL     1       4.849   3.789  26.607  0.00  0.00    +0.206 C 
BRANCH  50  51
ATOM     51  C   UNL     1       5.762   3.558  25.383  0.00  0.00    +0.179 C 
ATOM     52  C   UNL     1       5.240   4.433  24.265  0.00  0.00    +0.194 C 
ATOM     53  C   UNL     1       6.245   5.584  24.154  0.00  0.00    +0.196 C 
ATOM     54  C   UNL     1       7.169   5.409  25.358  0.00  0.00    +0.253 C 
ATOM     55  O   UNL     1       7.108   4.004  25.680  0.00  0.00    -0.346 OA
BRANCH  54  56
ATOM     56  N   UNL     1       8.540   5.829  25.102  0.00  0.00    -0.286 N 
ATOM     57  C   UNL     1       9.483   5.069  24.457  0.00  0.00    +0.167 A 
ATOM     58  C   UNL     1      10.610   5.873  24.389  0.00  0.00    +0.147 A 
ATOM     59  C   UNL     1      11.748   5.317  23.777  0.00  0.00    +0.147 A 
ATOM     60  N   UNL     1      11.664   4.060  23.285  0.00  0.00    -0.219 NA
ATOM     61  C   UNL     1      10.497   3.393  23.419  0.00  0.00    +0.225 A 
ATOM     62  N   UNL     1      10.356   7.108  24.950  0.00  0.00    -0.231 NA
ATOM     63  N   UNL     1       9.345   3.814  23.989  0.00  0.00    -0.216 NA
ATOM     64  C   UNL     1       9.103   7.047  25.356  0.00  0.00    +0.203 A 
BRANCH  59  65
ATOM     65  N   UNL     1      12.952   5.997  23.633  0.00  0.00    -0.341 N 
ATOM     66  H   UNL     1      13.687   5.608  24.208  0.00  0.00    +0.144 HD
ATOM     67  H   UNL     1      13.175   6.221  22.670  0.00  0.00    +0.144 HD
ENDBRANCH  59  65
ENDBRANCH  54  56
BRANCH  53  68
ATOM     68  O   UNL     1       5.518   6.819  24.189  0.00  0.00    -0.385 OA
ATOM     69  H   UNL     1       4.764   6.705  24.809  0.00  0.00    +0.210 HD
ENDBRANCH  53  68
BRANCH  52  70
ATOM     70  O   UNL     1       4.971   3.800  22.980  0.00  0.00    -0.278 OA
BRANCH  70  71
ATOM     71  P   UNL     1       3.280   4.132  22.836  0.00  0.00    +0.473 P 
ATOM     72  O   UNL     1       1.766   4.429  22.708  0.00  0.00    -0.228 OA
BRANCH  71  73
ATOM     73  O   UNL     1       3.015   2.643  23.457  0.00  0.00    -0.303 OA
ATOM     74  H   UNL     1       2.434   2.191  22.814  0.00  0.00    +0.222 HD
ENDBRANCH  71  73
BRANCH  71  75
ATOM     75  O   UNL     1       3.444   3.702  21.268  0.00  0.00    -0.303 OA
ATOM     76  H   UNL     1       4.358   3.455  21.061  0.00  0.00    +0.222 HD
ENDBRANCH  71  75
ENDBRANCH  70  71
ENDBRANCH  52  70
ENDBRANCH  50  51
ENDBRANCH  49  50
ENDBRANCH  45  49
ENDBRANCH  44  45
ENDBRANCH  40  44
ENDBRANCH  39  40
ENDBRANCH   1  39
TORSDOF 31
ENDMDL
MODEL 9
REMARK VINA RESULT:      -5.1      3.708      6.788
REMARK  Name = 
REMARK  33 active torsions:
REMARK  status: ('A' for Active; 'I' for Inactive)
REMARK    1  A    between atoms: C_1  and  C_2
REMARK    2  A    between atoms: C_2  and  C_3
REMARK    3  A    between atoms: C_2  and  C_4
REMARK    4  A    between atoms: C_2  and  C_40
REMARK    5  A    between atoms: C_4  and  O_5
REMARK    6  A    between atoms: O_5  and  P_6
REMARK    7  A    between atoms: P_6  and  O_7
REMARK    8  A    between atoms: P_6  and  O_9
REMARK    9  A    between atoms: O_9  and  P_10
REMARK   10  A    between atoms: P_10  and  O_11
REMARK   11  A    between atoms: P_10  and  O_13
REMARK   12  A    between atoms: O_13  and  C_14
REMARK   13  A    between atoms: C_14  and  C_15
REMARK   14  A    between atoms: C_18  and  N_30
REMARK   15  A    between atoms: C_20  and  O_22
REMARK   16  A    between atoms: C_23  and  O_25
REMARK   17  A    between atoms: O_25  and  P_26
REMARK   18  A    between atoms: P_26  and  O_27
REMARK   19  A    between atoms: P_26  and  O_28
REMARK   20  A    between atoms: C_34  and  N_35
REMARK   21  A    between atoms: C_40  and  O_42
REMARK   22  A    between atoms: C_40  and  C_43
REMARK   23  A    between atoms: N_45  and  C_46
REMARK   24  A    between atoms: C_46  and  C_47
REMARK   25  A    between atoms: C_47  and  C_48
REMARK   26  A    between atoms: N_50  and  C_51
REMARK   27  A    between atoms: C_51  and  C_52
REMARK   28  A    between atoms: C_52  and  S_53
REMARK   29  A    between atoms: S_53  and  C_54
REMARK   30  A    between atoms: C_54  and  C_55
REMARK   31  A    between atoms: N_57  and  C_58
REMARK   32  A    between atoms: C_58  and  C_59
REMARK   33  A    between atoms: C_59  and  C_60
REMARK                            x       y       z     vdW  Elec       q    Type
REMARK                         _______ _______ _______ _____ _____    ______ ____
ROOT
ATOM      1  C   UNL     1       4.944  -4.632  28.460  0.00  0.00    +0.181 C 
ENDROOT
BRANCH   1   3
ATOM      2  C   UNL     1       7.110  -5.641  27.839  0.00  0.00    +0.016 C 
ATOM      3  C   UNL     1       5.758  -5.945  28.534  0.00  0.00    +0.024 C 
ATOM      4  C   UNL     1       6.085  -6.302  29.996  0.00  0.00    +0.016 C 
BRANCH   3   5
ATOM      5  C   UNL     1       4.995  -7.100  27.809  0.00  0.00    +0.208 C 
BRANCH   5   6
ATOM      6  C   UNL     1       4.726  -6.887  26.292  0.00  0.00    +0.242 C 
ATOM      7  N   UNL     1       3.470  -7.303  25.885  0.00  0.00    -0.313 N 
ATOM      8  H   UNL     1       2.765  -7.484  26.588  0.00  0.00    +0.149 HD
ATOM      9  O   UNL     1       5.522  -6.407  25.493  0.00  0.00    -0.273 OA
BRANCH   7  10
ATOM     10  C   UNL     1       3.197  -7.496  24.473  0.00  0.00    +0.113 C 
BRANCH  10  11
ATOM     11  C   UNL     1       2.231  -6.476  23.903  0.00  0.00    +0.114 C 
BRANCH  11  12
ATOM     12  C   UNL     1       2.921  -5.129  23.874  0.00  0.00    +0.215 C 
ATOM     13  N   UNL     1       4.084  -5.112  23.140  0.00  0.00    -0.314 N 
ATOM     14  H   UNL     1       4.496  -5.988  22.848  0.00  0.00    +0.149 HD
ATOM     15  O   UNL     1       2.489  -4.149  24.471  0.00  0.00    -0.276 OA
BRANCH  13  16
ATOM     16  C   UNL     1       4.885  -3.906  23.026  0.00  0.00    +0.115 C 
BRANCH  16  17
ATOM     17  C   UNL     1       5.955  -4.002  21.937  0.00  0.00    +0.088 C 
BRANCH  17  18
ATOM     18  S   UNL     1       7.456  -2.983  22.254  0.00  0.00    -0.150 S 
BRANCH  18  19
ATOM     19  C   UNL     1       7.937  -3.573  23.908  0.00  0.00    +0.164 C 
BRANCH  19  20
ATOM     20  C   UNL     1       8.589  -2.477  24.729  0.00  0.00    +0.223 C 
ATOM     21  N   UNL     1       8.049  -2.286  25.984  0.00  0.00    -0.314 N 
ATOM     22  H   UNL     1       7.163  -2.724  26.211  0.00  0.00    +0.149 HD
ATOM     23  O   UNL     1       9.528  -1.811  24.295  0.00  0.00    -0.275 OA
BRANCH  21  24
ATOM     24  C   UNL     1       8.511  -1.180  26.810  0.00  0.00    +0.109 C 
BRANCH  24  25
ATOM     25  C   UNL     1       7.565   0.017  26.824  0.00  0.00    +0.056 C 
BRANCH  25  26
ATOM     26  C   UNL     1       7.078   0.437  25.467  0.00  0.00    -0.021 A 
ATOM     27  C   UNL     1       7.790   1.235  24.504  0.00  0.00    +0.004 A 
ATOM     28  C   UNL     1       9.059   1.849  24.482  0.00  0.00    +0.025 A 
ATOM     29  C   UNL     1       9.461   2.538  23.337  0.00  0.00    +0.019 A 
ATOM     30  C   UNL     1       8.640   2.620  22.218  0.00  0.00    +0.017 A 
ATOM     31  C   UNL     1       7.379   2.003  22.203  0.00  0.00    +0.027 A 
ATOM     32 BR   UNL     1      11.155   3.383  23.312  0.00  0.00    -0.050 Br
ATOM     33  C   UNL     1       6.981   1.320  23.364  0.00  0.00    +0.047 A 
ATOM     34  N   UNL     1       5.830   0.622  23.627  0.00  0.00    -0.360 N 
ATOM     35  H   UNL     1       5.069   0.515  22.976  0.00  0.00    +0.165 HD
ATOM     36  C   UNL     1       5.876   0.082  24.884  0.00  0.00    +0.087 A 
ENDBRANCH  25  26
ENDBRANCH  24  25
ENDBRANCH  21  24
ENDBRANCH  19  20
ENDBRANCH  18  19
ENDBRANCH  17  18
ENDBRANCH  16  17
ENDBRANCH  13  16
ENDBRANCH  11  12
ENDBRANCH  10  11
ENDBRANCH   7  10
ENDBRANCH   5   6
BRANCH   5  37
ATOM     37  O   UNL     1       3.730  -7.398  28.412  0.00  0.00    -0.382 OA
ATOM     38  H   UNL     1       3.082  -7.571  27.711  0.00  0.00    +0.210 HD
ENDBRANCH   5  37
ENDBRANCH   3   5
ENDBRANCH   1   3
BRANCH   1  39
ATOM     39  O   UNL     1       3.655  -4.750  29.037  0.00  0.00    -0.286 OA
BRANCH  39  40
ATOM     40  P   UNL     1       2.498  -3.666  28.344  0.00  0.00    +0.483 P 
ATOM     41  O   UNL     1       1.605  -3.835  29.572  0.00  0.00    -0.227 OA
BRANCH  40  42
ATOM     42  O   UNL     1       2.129  -4.900  27.344  0.00  0.00    -0.302 OA
ATOM     43  H   UNL     1       1.641  -5.567  27.880  0.00  0.00    +0.222 HD
ENDBRANCH  40  42
BRANCH  40  44
ATOM     44  O   UNL     1       1.341  -2.582  27.652  0.00  0.00    -0.186 OA
BRANCH  44  45
ATOM     45  P   UNL     1       2.128  -1.107  27.208  0.00  0.00    +0.483 P 
ATOM     46  O   UNL     1       3.130  -1.939  26.394  0.00  0.00    -0.227 OA
BRANCH  45  47
ATOM     47  O   UNL     1       2.802  -1.004  28.694  0.00  0.00    -0.302 OA
ATOM     48  H   UNL     1       2.742  -1.876  29.121  0.00  0.00    +0.222 HD
ENDBRANCH  45  47
BRANCH  45  49
ATOM     49  O   UNL     1       2.915   0.369  26.763  0.00  0.00    -0.284 OA
BRANCH  49  50
ATOM     50  C   UNL     1       3.097   1.419  27.707  0.00  0.00    +0.206 C 
BRANCH  50  51
ATOM     51  C   UNL     1       2.623   2.737  27.056  0.00  0.00    +0.179 C 
ATOM     52  C   UNL     1       3.153   3.870  27.907  0.00  0.00    +0.194 C 
ATOM     53  C   UNL     1       4.300   4.479  27.094  0.00  0.00    +0.196 C 
ATOM     54  C   UNL     1       4.492   3.522  25.918  0.00  0.00    +0.253 C 
ATOM     55  O   UNL     1       3.213   2.879  25.741  0.00  0.00    -0.346 OA
BRANCH  54  56
ATOM     56  N   UNL     1       4.920   4.185  24.694  0.00  0.00    -0.286 N 
ATOM     57  C   UNL     1       6.148   4.769  24.510  0.00  0.00    +0.167 A 
ATOM     58  C   UNL     1       6.140   5.223  23.200  0.00  0.00    +0.147 A 
ATOM     59  C   UNL     1       7.296   5.886  22.753  0.00  0.00    +0.147 A 
ATOM     60  N   UNL     1       8.333   6.020  23.611  0.00  0.00    -0.219 NA
ATOM     61  C   UNL     1       8.202   5.526  24.861  0.00  0.00    +0.225 A 
ATOM     62  N   UNL     1       4.949   4.896  22.585  0.00  0.00    -0.231 NA
ATOM     63  N   UNL     1       7.147   4.879  25.407  0.00  0.00    -0.216 NA
ATOM     64  C   UNL     1       4.248   4.267  23.508  0.00  0.00    +0.203 A 
BRANCH  59  65
ATOM     65  N   UNL     1       7.441   6.397  21.469  0.00  0.00    -0.341 N 
ATOM     66  H   UNL     1       6.658   6.168  20.871  0.00  0.00    +0.144 HD
ATOM     67  H   UNL     1       7.787   7.350  21.450  0.00  0.00    +0.144 HD
ENDBRANCH  59  65
ENDBRANCH  54  56
BRANCH  53  68
ATOM     68  O   UNL     1       5.456   4.559  27.938  0.00  0.00    -0.385 OA
ATOM     69  H   UNL     1       5.143   4.674  28.863  0.00  0.00    +0.210 HD
ENDBRANCH  53  68
BRANCH  52  70
ATOM     70  O   UNL     1       2.202   4.873  28.367  0.00  0.00    -0.278 OA
BRANCH  70  71
ATOM     71  P   UNL     1       2.115   5.867  26.955  0.00  0.00    +0.473 P 
ATOM     72  O   UNL     1       2.038   6.758  25.691  0.00  0.00    -0.228 OA
BRANCH  71  73
ATOM     73  O   UNL     1       1.691   7.099  27.943  0.00  0.00    -0.303 OA
ATOM     74  H   UNL     1       2.526   7.423  28.332  0.00  0.00    +0.222 HD
ENDBRANCH  71  73
BRANCH  71  75
ATOM     75  O   UNL     1       0.627   5.227  26.733  0.00  0.00    -0.303 OA
ATOM     76  H   UNL     1      -0.058   5.768  27.154  0.00  0.00    +0.222 HD
ENDBRANCH  71  75
ENDBRANCH  70  71
ENDBRANCH  52  70
ENDBRANCH  50  51
ENDBRANCH  49  50
ENDBRANCH  45  49
ENDBRANCH  44  45
ENDBRANCH  40  44
ENDBRANCH  39  40
ENDBRANCH   1  39
TORSDOF 31
ENDMDL
