MODEL 1
REMARK VINA RESULT:      -6.2      0.000      0.000
REMARK  Name = 
REMARK  4 active torsions:
REMARK  status: ('A' for Active; 'I' for Inactive)
REMARK    1  A    between atoms: O_1  and  C_2
REMARK    2  A    between atoms: C_2  and  C_4
REMARK    3  A    between atoms: C_7  and  C_9
REMARK    4  A    between atoms: C_14  and  C_15
REMARK                            x       y       z     vdW  Elec       q    Type
REMARK                         _______ _______ _______ _____ _____    ______ ____
ROOT
ATOM      1  C   UNL     1       8.227  -1.538  22.668  0.00  0.00    +0.029 A 
ATOM      2  C   UNL     1       7.418  -0.506  23.187  0.00  0.00    +0.065 A 
ATOM      3  C   UNL     1       7.618   0.816  22.718  0.00  0.00    +0.013 A 
ATOM      4  C   UNL     1       8.617   1.123  21.797  0.00  0.00    +0.001 A 
ATOM      5  C   UNL     1       9.445   0.116  21.326  0.00  0.00    +0.001 A 
ATOM      6  C   UNL     1       9.250  -1.197  21.757  0.00  0.00    +0.012 A 
ENDROOT
BRANCH   1   9
ATOM      7  C   UNL     1       8.330  -4.710  24.303  0.00  0.00    +0.212 A 
ATOM      8  O   UNL     1       8.608  -3.373  24.171  0.00  0.00    -0.448 OA
ATOM      9  C   UNL     1       8.073  -2.955  22.988  0.00  0.00    +0.137 A 
ATOM     10  C   UNL     1       7.403  -4.005  22.389  0.00  0.00    +0.051 A 
ATOM     11  C   UNL     1       7.561  -5.128  23.236  0.00  0.00    +0.057 A 
BRANCH   7  12
ATOM     12  C   UNL     1       8.844  -5.416  25.449  0.00  0.00    +0.372 C 
ATOM     13  O   UNL     1       8.200  -5.770  26.425  0.00  0.00    -0.242 OA
BRANCH  12  14
ATOM     14  O   UNL     1      10.172  -5.674  25.312  0.00  0.00    -0.475 OA
ATOM     15  H   UNL     1      10.647  -5.419  26.131  0.00  0.00    +0.296 HD
ENDBRANCH  12  14
ENDBRANCH   7  12
ENDBRANCH   1   9
BRANCH   2  16
ATOM     16  C   UNL     1       6.338  -0.671  24.233  0.00  0.00    +0.418 C 
ATOM     17  F   UNL     1       5.594   0.464  24.378  0.00  0.00    -0.166 F 
ATOM     18  F   UNL     1       6.870  -0.912  25.469  0.00  0.00    -0.166 F 
ATOM     19  F   UNL     1       5.438  -1.672  24.046  0.00  0.00    -0.166 F 
ENDBRANCH   2  16
TORSDOF 4
ENDMDL
MODEL 2
REMARK VINA RESULT:      -6.2      5.178      7.571
REMARK  Name = 
REMARK  4 active torsions:
REMARK  status: ('A' for Active; 'I' for Inactive)
REMARK    1  A    between atoms: O_1  and  C_2
REMARK    2  A    between atoms: C_2  and  C_4
REMARK    3  A    between atoms: C_7  and  C_9
REMARK    4  A    between atoms: C_14  and  C_15
REMARK                            x       y       z     vdW  Elec       q    Type
REMARK                         _______ _______ _______ _____ _____    ______ ____
ROOT
ATOM      1  C   UNL     1       9.820   2.134  23.901  0.00  0.00    +0.029 A 
ATOM      2  C   UNL     1       8.520   1.762  23.503  0.00  0.00    +0.065 A 
ATOM      3  C   UNL     1       8.085   0.437  23.754  0.00  0.00    +0.013 A 
ATOM      4  C   UNL     1       8.921  -0.509  24.341  0.00  0.00    +0.001 A 
ATOM      5  C   UNL     1      10.216  -0.156  24.686  0.00  0.00    +0.001 A 
ATOM      6  C   UNL     1      10.658   1.150  24.469  0.00  0.00    +0.012 A 
ENDROOT
BRANCH   1   9
ATOM      7  C   UNL     1      11.903   4.932  23.142  0.00  0.00    +0.212 A 
ATOM      8  O   UNL     1      11.581   3.599  23.178  0.00  0.00    -0.448 OA
ATOM      9  C   UNL     1      10.369   3.484  23.791  0.00  0.00    +0.137 A 
ATOM     10  C   UNL     1       9.885   4.743  24.095  0.00  0.00    +0.051 A 
ATOM     11  C   UNL     1      10.867   5.671  23.672  0.00  0.00    +0.057 A 
BRANCH   7  12
ATOM     12  C   UNL     1      13.179   5.324  22.596  0.00  0.00    +0.372 C 
ATOM     13  O   UNL     1      13.357   5.947  21.561  0.00  0.00    -0.242 OA
BRANCH  12  14
ATOM     14  O   UNL     1      14.200   4.926  23.400  0.00  0.00    -0.475 OA
ATOM     15  H   UNL     1      14.270   3.948  23.392  0.00  0.00    +0.296 HD
ENDBRANCH  12  14
ENDBRANCH   7  12
ENDBRANCH   1   9
BRANCH   2  16
ATOM     16  C   UNL     1       7.520   2.655  22.801  0.00  0.00    +0.418 C 
ATOM     17  F   UNL     1       6.943   3.543  23.661  0.00  0.00    -0.166 F 
ATOM     18  F   UNL     1       6.483   1.933  22.279  0.00  0.00    -0.166 F 
ATOM     19  F   UNL     1       7.976   3.401  21.760  0.00  0.00    -0.166 F 
ENDBRANCH   2  16
TORSDOF 4
ENDMDL
MODEL 3
REMARK VINA RESULT:      -6.1      5.084      7.366
REMARK  Name = 
REMARK  4 active torsions:
REMARK  status: ('A' for Active; 'I' for Inactive)
REMARK    1  A    between atoms: O_1  and  C_2
REMARK    2  A    between atoms: C_2  and  C_4
REMARK    3  A    between atoms: C_7  and  C_9
REMARK    4  A    between atoms: C_14  and  C_15
REMARK                            x       y       z     vdW  Elec       q    Type
REMARK                         _______ _______ _______ _____ _____    ______ ____
ROOT
ATOM      1  C   UNL     1       9.615   1.390  24.086  0.00  0.00    +0.029 A 
ATOM      2  C   UNL     1       9.259   0.589  22.982  0.00  0.00    +0.065 A 
ATOM      3  C   UNL     1       8.944  -0.774  23.204  0.00  0.00    +0.013 A 
ATOM      4  C   UNL     1       9.020  -1.347  24.471  0.00  0.00    +0.001 A 
ATOM      5  C   UNL     1       9.419  -0.571  25.548  0.00  0.00    +0.001 A 
ATOM      6  C   UNL     1       9.711   0.781  25.356  0.00  0.00    +0.012 A 
ENDROOT
BRANCH   1   9
ATOM      7  C   UNL     1      11.156   4.573  23.600  0.00  0.00    +0.212 A 
ATOM      8  O   UNL     1      11.124   3.202  23.630  0.00  0.00    -0.448 OA
ATOM      9  C   UNL     1       9.873   2.827  24.022  0.00  0.00    +0.137 A 
ATOM     10  C   UNL     1       9.085   3.951  24.185  0.00  0.00    +0.051 A 
ATOM     11  C   UNL     1       9.906   5.070  23.907  0.00  0.00    +0.057 A 
BRANCH   7  12
ATOM     12  C   UNL     1      12.396   5.232  23.274  0.00  0.00    +0.372 C 
ATOM     13  O   UNL     1      12.957   5.214  22.189  0.00  0.00    -0.242 OA
BRANCH  12  14
ATOM     14  O   UNL     1      12.881   5.920  24.341  0.00  0.00    -0.475 OA
ATOM     15  H   UNL     1      12.143   6.342  24.830  0.00  0.00    +0.296 HD
ENDBRANCH  12  14
ENDBRANCH   7  12
ENDBRANCH   1   9
BRANCH   2  16
ATOM     16  C   UNL     1       9.192   1.048  21.542  0.00  0.00    +0.418 C 
ATOM     17  F   UNL     1       9.242  -0.001  20.671  0.00  0.00    -0.166 F 
ATOM     18  F   UNL     1      10.261   1.836  21.217  0.00  0.00    -0.166 F 
ATOM     19  F   UNL     1       8.106   1.776  21.170  0.00  0.00    -0.166 F 
ENDBRANCH   2  16
TORSDOF 4
ENDMDL
MODEL 4
REMARK VINA RESULT:      -6.0      2.980      5.715
REMARK  Name = 
REMARK  4 active torsions:
REMARK  status: ('A' for Active; 'I' for Inactive)
REMARK    1  A    between atoms: O_1  and  C_2
REMARK    2  A    between atoms: C_2  and  C_4
REMARK    3  A    between atoms: C_7  and  C_9
REMARK    4  A    between atoms: C_14  and  C_15
REMARK                            x       y       z     vdW  Elec       q    Type
REMARK                         _______ _______ _______ _____ _____    ______ ____
ROOT
ATOM      1  C   UNL     1       6.877  -4.927  24.205  0.00  0.00    +0.029 A 
ATOM      2  C   UNL     1       6.131  -5.555  23.186  0.00  0.00    +0.065 A 
ATOM      3  C   UNL     1       5.027  -6.364  23.552  0.00  0.00    +0.013 A 
ATOM      4  C   UNL     1       4.691  -6.586  24.886  0.00  0.00    +0.001 A 
ATOM      5  C   UNL     1       5.456  -6.009  25.887  0.00  0.00    +0.001 A 
ATOM      6  C   UNL     1       6.534  -5.190  25.549  0.00  0.00    +0.012 A 
ENDROOT
BRANCH   1   9
ATOM      7  C   UNL     1       8.849  -2.163  23.103  0.00  0.00    +0.212 A 
ATOM      8  O   UNL     1       7.713  -2.929  23.166  0.00  0.00    -0.448 OA
ATOM      9  C   UNL     1       7.978  -3.995  23.974  0.00  0.00    +0.137 A 
ATOM     10  C   UNL     1       9.261  -3.884  24.477  0.00  0.00    +0.051 A 
ATOM     11  C   UNL     1       9.816  -2.705  23.924  0.00  0.00    +0.057 A 
BRANCH   7  12
ATOM     12  C   UNL     1       8.854  -0.998  22.254  0.00  0.00    +0.372 C 
ATOM     13  O   UNL     1       8.173   0.004  22.404  0.00  0.00    -0.242 OA
BRANCH  12  14
ATOM     14  O   UNL     1       9.751  -1.133  21.241  0.00  0.00    -0.475 OA
ATOM     15  H   UNL     1      10.351  -0.357  21.222  0.00  0.00    +0.296 HD
ENDBRANCH  12  14
ENDBRANCH   7  12
ENDBRANCH   1   9
BRANCH   2  16
ATOM     16  C   UNL     1       6.407  -5.462  21.702  0.00  0.00    +0.418 C 
ATOM     17  F   UNL     1       6.092  -4.232  21.203  0.00  0.00    -0.166 F 
ATOM     18  F   UNL     1       5.642  -6.345  20.993  0.00  0.00    -0.166 F 
ATOM     19  F   UNL     1       7.680  -5.705  21.290  0.00  0.00    -0.166 F 
ENDBRANCH   2  16
TORSDOF 4
ENDMDL
MODEL 5
REMARK VINA RESULT:      -6.0      2.800      5.444
REMARK  Name = 
REMARK  4 active torsions:
REMARK  status: ('A' for Active; 'I' for Inactive)
REMARK    1  A    between atoms: O_1  and  C_2
REMARK    2  A    between atoms: C_2  and  C_4
REMARK    3  A    between atoms: C_7  and  C_9
REMARK    4  A    between atoms: C_14  and  C_15
REMARK                            x       y       z     vdW  Elec       q    Type
REMARK                         _______ _______ _______ _____ _____    ______ ____
ROOT
ATOM      1  C   UNL     1       7.185  -3.296  22.776  0.00  0.00    +0.029 A 
ATOM      2  C   UNL     1       7.930  -4.288  23.445  0.00  0.00    +0.065 A 
ATOM      3  C   UNL     1       7.774  -5.640  23.049  0.00  0.00    +0.013 A 
ATOM      4  C   UNL     1       6.876  -6.011  22.051  0.00  0.00    +0.001 A 
ATOM      5  C   UNL     1       6.107  -5.040  21.429  0.00  0.00    +0.001 A 
ATOM      6  C   UNL     1       6.261  -3.700  21.788  0.00  0.00    +0.012 A 
ENDROOT
BRANCH   1   9
ATOM      7  C   UNL     1       8.205   0.122  22.629  0.00  0.00    +0.212 A 
ATOM      8  O   UNL     1       8.267  -1.207  22.292  0.00  0.00    -0.448 OA
ATOM      9  C   UNL     1       7.312  -1.860  23.014  0.00  0.00    +0.137 A 
ATOM     10  C   UNL     1       6.598  -0.946  23.767  0.00  0.00    +0.051 A 
ATOM     11  C   UNL     1       7.167   0.325  23.513  0.00  0.00    +0.057 A 
BRANCH   7  12
ATOM     12  C   UNL     1       9.161   1.030  22.048  0.00  0.00    +0.372 C 
ATOM     13  O   UNL     1      10.211   1.391  22.557  0.00  0.00    -0.242 OA
BRANCH  12  14
ATOM     14  O   UNL     1       8.763   1.441  20.815  0.00  0.00    -0.475 OA
ATOM     15  H   UNL     1       9.541   1.524  20.223  0.00  0.00    +0.296 HD
ENDBRANCH  12  14
ENDBRANCH   7  12
ENDBRANCH   1   9
BRANCH   2  16
ATOM     16  C   UNL     1       8.896  -4.051  24.586  0.00  0.00    +0.418 C 
ATOM     17  F   UNL     1       9.970  -3.307  24.195  0.00  0.00    -0.166 F 
ATOM     18  F   UNL     1       9.421  -5.224  25.051  0.00  0.00    -0.166 F 
ATOM     19  F   UNL     1       8.409  -3.431  25.694  0.00  0.00    -0.166 F 
ENDBRANCH   2  16
TORSDOF 4
ENDMDL
MODEL 6
REMARK VINA RESULT:      -5.9      2.095      2.478
REMARK  Name = 
REMARK  4 active torsions:
REMARK  status: ('A' for Active; 'I' for Inactive)
REMARK    1  A    between atoms: O_1  and  C_2
REMARK    2  A    between atoms: C_2  and  C_4
REMARK    3  A    between atoms: C_7  and  C_9
REMARK    4  A    between atoms: C_14  and  C_15
REMARK                            x       y       z     vdW  Elec       q    Type
REMARK                         _______ _______ _______ _____ _____    ______ ____
ROOT
ATOM      1  C   UNL     1       9.263  -0.230  24.465  0.00  0.00    +0.029 A 
ATOM      2  C   UNL     1       8.455   0.453  23.534  0.00  0.00    +0.065 A 
ATOM      3  C   UNL     1       8.979   1.603  22.893  0.00  0.00    +0.013 A 
ATOM      4  C   UNL     1      10.247   2.094  23.192  0.00  0.00    +0.001 A 
ATOM      5  C   UNL     1      11.021   1.451  24.145  0.00  0.00    +0.001 A 
ATOM      6  C   UNL     1      10.534   0.303  24.772  0.00  0.00    +0.012 A 
ENDROOT
BRANCH   1   9
ATOM      7  C   UNL     1       8.952  -3.671  25.363  0.00  0.00    +0.212 A 
ATOM      8  O   UNL     1       9.378  -2.626  24.582  0.00  0.00    -0.448 OA
ATOM      9  C   UNL     1       8.892  -1.476  25.131  0.00  0.00    +0.137 A 
ATOM     10  C   UNL     1       8.206  -1.775  26.293  0.00  0.00    +0.051 A 
ATOM     11  C   UNL     1       8.251  -3.182  26.445  0.00  0.00    +0.057 A 
BRANCH   7  12
ATOM     12  C   UNL     1       9.280  -5.016  24.961  0.00  0.00    +0.372 C 
ATOM     13  O   UNL     1       8.821  -5.611  23.998  0.00  0.00    -0.242 OA
BRANCH  12  14
ATOM     14  O   UNL     1      10.206  -5.564  25.791  0.00  0.00    -0.475 OA
ATOM     15  H   UNL     1       9.929  -5.447  26.725  0.00  0.00    +0.296 HD
ENDBRANCH  12  14
ENDBRANCH   7  12
ENDBRANCH   1   9
BRANCH   2  16
ATOM     16  C   UNL     1       7.040   0.081  23.150  0.00  0.00    +0.418 C 
ATOM     17  F   UNL     1       6.517   0.947  22.234  0.00  0.00    -0.166 F 
ATOM     18  F   UNL     1       6.197   0.142  24.224  0.00  0.00    -0.166 F 
ATOM     19  F   UNL     1       6.842  -1.160  22.631  0.00  0.00    -0.166 F 
ENDBRANCH   2  16
TORSDOF 4
ENDMDL
MODEL 7
REMARK VINA RESULT:      -5.9      2.274      2.949
REMARK  Name = 
REMARK  4 active torsions:
REMARK  status: ('A' for Active; 'I' for Inactive)
REMARK    1  A    between atoms: O_1  and  C_2
REMARK    2  A    between atoms: C_2  and  C_4
REMARK    3  A    between atoms: C_7  and  C_9
REMARK    4  A    between atoms: C_14  and  C_15
REMARK                            x       y       z     vdW  Elec       q    Type
REMARK                         _______ _______ _______ _____ _____    ______ ____
ROOT
ATOM      1  C   UNL     1       7.534  -0.693  23.463  0.00  0.00    +0.029 A 
ATOM      2  C   UNL     1       8.339   0.266  22.814  0.00  0.00    +0.065 A 
ATOM      3  C   UNL     1       7.989   1.634  22.924  0.00  0.00    +0.013 A 
ATOM      4  C   UNL     1       6.853   2.047  23.615  0.00  0.00    +0.001 A 
ATOM      5  C   UNL     1       6.034   1.100  24.210  0.00  0.00    +0.001 A 
ATOM      6  C   UNL     1       6.372  -0.252  24.135  0.00  0.00    +0.012 A 
ENDROOT
BRANCH   1   9
ATOM      7  C   UNL     1       8.620  -3.931  24.501  0.00  0.00    +0.212 A 
ATOM      8  O   UNL     1       8.475  -2.572  24.626  0.00  0.00    -0.448 OA
ATOM      9  C   UNL     1       7.823  -2.124  23.515  0.00  0.00    +0.137 A 
ATOM     10  C   UNL     1       7.498  -3.197  22.707  0.00  0.00    +0.051 A 
ATOM     11  C   UNL     1       8.003  -4.356  23.343  0.00  0.00    +0.057 A 
BRANCH   7  12
ATOM     12  C   UNL     1       9.340  -4.648  25.523  0.00  0.00    +0.372 C 
ATOM     13  O   UNL     1       9.168  -4.548  26.728  0.00  0.00    -0.242 OA
BRANCH  12  14
ATOM     14  O   UNL     1      10.252  -5.497  24.978  0.00  0.00    -0.475 OA
ATOM     15  H   UNL     1       9.798  -6.291  24.626  0.00  0.00    +0.296 HD
ENDBRANCH  12  14
ENDBRANCH   7  12
ENDBRANCH   1   9
BRANCH   2  16
ATOM     16  C   UNL     1       9.564  -0.029  21.978  0.00  0.00    +0.418 C 
ATOM     17  F   UNL     1      10.170   1.113  21.543  0.00  0.00    -0.166 F 
ATOM     18  F   UNL     1       9.242  -0.720  20.843  0.00  0.00    -0.166 F 
ATOM     19  F   UNL     1      10.550  -0.765  22.556  0.00  0.00    -0.166 F 
ENDBRANCH   2  16
TORSDOF 4
ENDMDL
MODEL 8
REMARK VINA RESULT:      -5.9      2.978      5.488
REMARK  Name = 
REMARK  4 active torsions:
REMARK  status: ('A' for Active; 'I' for Inactive)
REMARK    1  A    between atoms: O_1  and  C_2
REMARK    2  A    between atoms: C_2  and  C_4
REMARK    3  A    between atoms: C_7  and  C_9
REMARK    4  A    between atoms: C_14  and  C_15
REMARK                            x       y       z     vdW  Elec       q    Type
REMARK                         _______ _______ _______ _____ _____    ______ ____
ROOT
ATOM      1  C   UNL     1       7.656  -3.034  22.948  0.00  0.00    +0.029 A 
ATOM      2  C   UNL     1       7.825  -3.821  24.106  0.00  0.00    +0.065 A 
ATOM      3  C   UNL     1       6.959  -4.923  24.311  0.00  0.00    +0.013 A 
ATOM      4  C   UNL     1       5.926  -5.218  23.426  0.00  0.00    +0.001 A 
ATOM      5  C   UNL     1       5.728  -4.414  22.315  0.00  0.00    +0.001 A 
ATOM      6  C   UNL     1       6.584  -3.336  22.080  0.00  0.00    +0.012 A 
ENDROOT
BRANCH   1   9
ATOM      7  C   UNL     1       8.909   0.183  22.042  0.00  0.00    +0.212 A 
ATOM      8  O   UNL     1       7.927  -0.721  22.360  0.00  0.00    -0.448 OA
ATOM      9  C   UNL     1       8.529  -1.929  22.560  0.00  0.00    +0.137 A 
ATOM     10  C   UNL     1       9.897  -1.789  22.427  0.00  0.00    +0.051 A 
ATOM     11  C   UNL     1      10.141  -0.433  22.102  0.00  0.00    +0.057 A 
BRANCH   7  12
ATOM     12  C   UNL     1       8.528   1.536  21.718  0.00  0.00    +0.372 C 
ATOM     13  O   UNL     1       7.385   1.956  21.614  0.00  0.00    -0.242 OA
BRANCH  12  14
ATOM     14  O   UNL     1       9.620   2.328  21.554  0.00  0.00    -0.475 OA
ATOM     15  H   UNL     1       9.341   3.262  21.443  0.00  0.00    +0.296 HD
ENDBRANCH  12  14
ENDBRANCH   7  12
ENDBRANCH   1   9
BRANCH   2  16
ATOM     16  C   UNL     1       8.858  -3.592  25.187  0.00  0.00    +0.418 C 
ATOM     17  F   UNL     1      10.094  -4.030  24.811  0.00  0.00    -0.166 F 
ATOM     18  F   UNL     1       8.558  -4.292  26.323  0.00  0.00    -0.166 F 
ATOM     19  F   UNL     1       9.040  -2.313  25.612  0.00  0.00    -0.166 F 
ENDBRANCH   2  16
TORSDOF 4
ENDMDL
MODEL 9
REMARK VINA RESULT:      -5.9      2.485      3.375
REMARK  Name = 
REMARK  4 active torsions:
REMARK  status: ('A' for Active; 'I' for Inactive)
REMARK    1  A    between atoms: O_1  and  C_2
REMARK    2  A    between atoms: C_2  and  C_4
REMARK    3  A    between atoms: C_7  and  C_9
REMARK    4  A    between atoms: C_14  and  C_15
REMARK                            x       y       z     vdW  Elec       q    Type
REMARK                         _______ _______ _______ _____ _____    ______ ____
ROOT
ATOM      1  C   UNL     1       9.150  -1.986  23.942  0.00  0.00    +0.029 A 
ATOM      2  C   UNL     1       9.035  -1.231  25.127  0.00  0.00    +0.065 A 
ATOM      3  C   UNL     1       9.661   0.039  25.187  0.00  0.00    +0.013 A 
ATOM      4  C   UNL     1      10.416   0.535  24.127  0.00  0.00    +0.001 A 
ATOM      5  C   UNL     1      10.570  -0.231  22.982  0.00  0.00    +0.001 A 
ATOM      6  C   UNL     1       9.943  -1.475  22.892  0.00  0.00    +0.012 A 
ENDROOT
BRANCH   1   9
ATOM      7  C   UNL     1       7.147  -4.598  22.560  0.00  0.00    +0.212 A 
ATOM      8  O   UNL     1       7.639  -3.320  22.634  0.00  0.00    -0.448 OA
ATOM      9  C   UNL     1       8.483  -3.264  23.704  0.00  0.00    +0.137 A 
ATOM     10  C   UNL     1       8.579  -4.517  24.280  0.00  0.00    +0.051 A 
ATOM     11  C   UNL     1       7.728  -5.374  23.541  0.00  0.00    +0.057 A 
BRANCH   7  12
ATOM     12  C   UNL     1       6.173  -4.909  21.544  0.00  0.00    +0.372 C 
ATOM     13  O   UNL     1       5.695  -4.122  20.741  0.00  0.00    -0.242 OA
BRANCH  12  14
ATOM     14  O   UNL     1       5.846  -6.228  21.563  0.00  0.00    -0.475 OA
ATOM     15  H   UNL     1       5.837  -6.583  20.649  0.00  0.00    +0.296 HD
ENDBRANCH  12  14
ENDBRANCH   7  12
ENDBRANCH   1   9
BRANCH   2  16
ATOM     16  C   UNL     1       8.304  -1.658  26.381  0.00  0.00    +0.418 C 
ATOM     17  F   UNL     1       8.809  -2.818  26.892  0.00  0.00    -0.166 F 
ATOM     18  F   UNL     1       6.987  -1.919  26.128  0.00  0.00    -0.166 F 
ATOM     19  F   UNL     1       8.286  -0.781  27.419  0.00  0.00    -0.166 F 
ENDBRANCH   2  16
TORSDOF 4
ENDMDL
