MODEL 1
REMARK VINA RESULT:      -6.3      0.000      0.000
REMARK  Name = 
REMARK  14 active torsions:
REMARK  status: ('A' for Active; 'I' for Inactive)
REMARK    1  A    between atoms: O_1  and  C_2
REMARK    2  A    between atoms: C_2  and  C_3
REMARK    3  A    between atoms: C_3  and  C_5
REMARK    4  A    between atoms: C_5  and  C_7
REMARK    5  A    between atoms: C_5  and  N_15
REMARK    6  A    between atoms: C_7  and  C_8
REMARK    7  A    between atoms: C_8  and  C_9
REMARK    8  A    between atoms: C_16  and  C_18
REMARK    9  A    between atoms: C_18  and  C_20
REMARK   10  A    between atoms: C_18  and  N_27
REMARK   11  A    between atoms: C_20  and  C_21
REMARK   12  A    between atoms: C_28  and  O_30
REMARK   13  A    between atoms: O_30  and  C_31
REMARK   14  A    between atoms: C_31  and  C_32
REMARK                            x       y       z     vdW  Elec       q    Type
REMARK                         _______ _______ _______ _____ _____    ______ ____
ROOT
ATOM      1  C   UNL     1       7.914  -1.963  22.649  0.00  0.00    +0.166 C 
ENDROOT
BRANCH   1   4
ATOM      2  N   UNL     1       6.407  -0.994  24.342  0.00  0.00    -0.304 N 
ATOM      3  H   UNL     1       5.933  -0.568  23.542  0.00  0.00    +0.149 HD
ATOM      4  C   UNL     1       7.519  -1.785  24.129  0.00  0.00    +0.234 C 
ATOM      5  O   UNL     1       8.119  -2.329  25.053  0.00  0.00    -0.274 OA
BRANCH   2   6
ATOM      6  C   UNL     1       6.038  -0.541  25.685  0.00  0.00    +0.142 C 
BRANCH   6   7
ATOM      7  C   UNL     1       4.666  -1.123  26.039  0.00  0.00    +0.178 C 
ATOM      8  O   UNL     1       3.741  -0.399  26.416  0.00  0.00    -0.293 OA
BRANCH   7   9
ATOM      9  C   UNL     1       4.501  -2.634  25.870  0.00  0.00    +0.232 C 
BRANCH   9  10
ATOM     10  O   UNL     1       4.133  -2.992  24.550  0.00  0.00    -0.387 OA
ATOM     11  H   UNL     1       3.439  -2.378  24.257  0.00  0.00    +0.210 HD
ENDBRANCH   9  10
ENDBRANCH   7   9
ENDBRANCH   6   7
BRANCH   6  12
ATOM     12  C   UNL     1       6.021   0.994  25.719  0.00  0.00    +0.035 C 
BRANCH  12  13
ATOM     13  C   UNL     1       7.383   1.647  25.463  0.00  0.00    +0.037 C 
BRANCH  13  14
ATOM     14  C   UNL     1       7.262   2.685  24.372  0.00  0.00    -0.047 A 
ATOM     15  C   UNL     1       7.826   3.958  24.540  0.00  0.00    +0.003 A 
ATOM     16  C   UNL     1       7.799   4.887  23.500  0.00  0.00    +0.000 A 
ATOM     17  C   UNL     1       7.207   4.556  22.282  0.00  0.00    +0.000 A 
ATOM     18  C   UNL     1       6.634   3.298  22.107  0.00  0.00    +0.000 A 
ATOM     19  C   UNL     1       6.660   2.366  23.146  0.00  0.00    +0.003 A 
ENDBRANCH  13  14
ENDBRANCH  12  13
ENDBRANCH   6  12
ENDBRANCH   2   6
ENDBRANCH   1   4
BRANCH   1  20
ATOM     20  N   UNL     1       7.535  -3.310  22.229  0.00  0.00    -0.269 N 
ATOM     21  H   UNL     1       8.200  -4.068  22.286  0.00  0.00    +0.153 HD
ATOM     22  C   UNL     1       6.263  -3.630  21.867  0.00  0.00    +0.401 C 
ATOM     23  O   UNL     1       5.338  -2.838  21.852  0.00  0.00    -0.226 OA
BRANCH  22  24
ATOM     24  O   UNL     1       6.203  -4.944  21.551  0.00  0.00    -0.446 OA
BRANCH  24  25
ATOM     25  C   UNL     1       6.926  -5.831  22.415  0.00  0.00    +0.270 C 
BRANCH  25  26
ATOM     26  C   UNL     1       6.162  -6.014  23.695  0.00  0.00    +0.008 A 
ATOM     27  C   UNL     1       6.701  -5.631  24.918  0.00  0.00    +0.117 A 
ATOM     28  N   UNL     1       6.058  -5.747  26.103  0.00  0.00    -0.263 NA
ATOM     29  C   UNL     1       4.820  -6.286  26.071  0.00  0.00    +0.111 A 
ATOM     30  C   UNL     1       4.200  -6.719  24.911  0.00  0.00    +0.020 A 
ATOM     31  C   UNL     1       4.886  -6.585  23.707  0.00  0.00    +0.010 A 
ENDBRANCH  25  26
ENDBRANCH  24  25
ENDBRANCH  22  24
ENDBRANCH   1  20
BRANCH   1  32
ATOM     32  C   UNL     1       9.421  -1.704  22.450  0.00  0.00    +0.067 C 
BRANCH  32  33
ATOM     33  C   UNL     1       9.900  -0.290  22.734  0.00  0.00    -0.045 A 
ATOM     34  C   UNL     1       9.742   0.698  21.748  0.00  0.00    +0.004 A 
ATOM     35  C   UNL     1      10.102   2.025  21.999  0.00  0.00    +0.000 A 
ATOM     36  C   UNL     1      10.636   2.381  23.234  0.00  0.00    +0.000 A 
ATOM     37  C   UNL     1      10.858   1.402  24.197  0.00  0.00    +0.000 A 
ATOM     38  C   UNL     1      10.512   0.073  23.942  0.00  0.00    +0.004 A 
ENDBRANCH  32  33
ENDBRANCH   1  32
TORSDOF 14
ENDMDL
MODEL 2
REMARK VINA RESULT:      -6.2      3.251      5.574
REMARK  Name = 
REMARK  14 active torsions:
REMARK  status: ('A' for Active; 'I' for Inactive)
REMARK    1  A    between atoms: O_1  and  C_2
REMARK    2  A    between atoms: C_2  and  C_3
REMARK    3  A    between atoms: C_3  and  C_5
REMARK    4  A    between atoms: C_5  and  C_7
REMARK    5  A    between atoms: C_5  and  N_15
REMARK    6  A    between atoms: C_7  and  C_8
REMARK    7  A    between atoms: C_8  and  C_9
REMARK    8  A    between atoms: C_16  and  C_18
REMARK    9  A    between atoms: C_18  and  C_20
REMARK   10  A    between atoms: C_18  and  N_27
REMARK   11  A    between atoms: C_20  and  C_21
REMARK   12  A    between atoms: C_28  and  O_30
REMARK   13  A    between atoms: O_30  and  C_31
REMARK   14  A    between atoms: C_31  and  C_32
REMARK                            x       y       z     vdW  Elec       q    Type
REMARK                         _______ _______ _______ _____ _____    ______ ____
ROOT
ATOM      1  C   UNL     1      10.527   0.611  23.466  0.00  0.00    +0.166 C 
ENDROOT
BRANCH   1   4
ATOM      2  N   UNL     1      10.838   3.044  23.706  0.00  0.00    -0.304 N 
ATOM      3  H   UNL     1      11.132   2.819  24.660  0.00  0.00    +0.149 HD
ATOM      4  C   UNL     1      10.446   2.027  22.859  0.00  0.00    +0.234 C 
ATOM      5  O   UNL     1      10.097   2.240  21.701  0.00  0.00    -0.274 OA
BRANCH   2   6
ATOM      6  C   UNL     1      10.608   4.450  23.369  0.00  0.00    +0.142 C 
BRANCH   6   7
ATOM      7  C   UNL     1      11.904   5.231  23.609  0.00  0.00    +0.178 C 
ATOM      8  O   UNL     1      12.046   5.945  24.605  0.00  0.00    -0.293 OA
BRANCH   7   9
ATOM      9  C   UNL     1      13.012   5.052  22.570  0.00  0.00    +0.232 C 
BRANCH   9  10
ATOM     10  O   UNL     1      14.303   5.068  23.152  0.00  0.00    -0.387 OA
ATOM     11  H   UNL     1      14.291   4.476  23.922  0.00  0.00    +0.210 HD
ENDBRANCH   9  10
ENDBRANCH   7   9
ENDBRANCH   6   7
BRANCH   6  12
ATOM     12  C   UNL     1       9.457   4.998  24.225  0.00  0.00    +0.035 C 
BRANCH  12  13
ATOM     13  C   UNL     1       8.339   5.672  23.424  0.00  0.00    +0.037 C 
BRANCH  13  14
ATOM     14  C   UNL     1       7.136   4.761  23.346  0.00  0.00    -0.047 A 
ATOM     15  C   UNL     1       7.086   3.734  22.393  0.00  0.00    +0.003 A 
ATOM     16  C   UNL     1       6.022   2.831  22.380  0.00  0.00    +0.000 A 
ATOM     17  C   UNL     1       4.997   2.946  23.317  0.00  0.00    +0.000 A 
ATOM     18  C   UNL     1       5.031   3.969  24.262  0.00  0.00    +0.000 A 
ATOM     19  C   UNL     1       6.095   4.874  24.278  0.00  0.00    +0.003 A 
ENDBRANCH  13  14
ENDBRANCH  12  13
ENDBRANCH   6  12
ENDBRANCH   2   6
ENDBRANCH   1   4
BRANCH   1  20
ATOM     20  N   UNL     1       9.503  -0.220  22.836  0.00  0.00    -0.269 N 
ATOM     21  H   UNL     1       8.600   0.168  22.609  0.00  0.00    +0.153 HD
ATOM     22  C   UNL     1       9.751  -1.492  22.421  0.00  0.00    +0.401 C 
ATOM     23  O   UNL     1      10.827  -2.051  22.539  0.00  0.00    -0.226 OA
BRANCH  22  24
ATOM     24  O   UNL     1       8.634  -2.007  21.859  0.00  0.00    -0.446 OA
BRANCH  24  25
ATOM     25  C   UNL     1       7.450  -1.970  22.666  0.00  0.00    +0.270 C 
BRANCH  25  26
ATOM     26  C   UNL     1       6.742  -3.291  22.574  0.00  0.00    +0.008 A 
ATOM     27  C   UNL     1       5.354  -3.370  22.600  0.00  0.00    +0.117 A 
ATOM     28  N   UNL     1       4.654  -4.523  22.498  0.00  0.00    -0.263 NA
ATOM     29  C   UNL     1       5.374  -5.660  22.378  0.00  0.00    +0.111 A 
ATOM     30  C   UNL     1       6.758  -5.695  22.363  0.00  0.00    +0.020 A 
ATOM     31  C   UNL     1       7.450  -4.492  22.468  0.00  0.00    +0.010 A 
ENDBRANCH  25  26
ENDBRANCH  24  25
ENDBRANCH  22  24
ENDBRANCH   1  20
BRANCH   1  32
ATOM     32  C   UNL     1      10.360   0.663  24.998  0.00  0.00    +0.067 C 
BRANCH  32  33
ATOM     33  C   UNL     1       8.976   0.334  25.532  0.00  0.00    -0.045 A 
ATOM     34  C   UNL     1       7.974   1.318  25.492  0.00  0.00    +0.004 A 
ATOM     35  C   UNL     1       6.671   1.029  25.906  0.00  0.00    +0.000 A 
ATOM     36  C   UNL     1       6.353  -0.242  26.376  0.00  0.00    +0.000 A 
ATOM     37  C   UNL     1       7.349  -1.207  26.481  0.00  0.00    +0.000 A 
ATOM     38  C   UNL     1       8.656  -0.916  26.082  0.00  0.00    +0.004 A 
ENDBRANCH  32  33
ENDBRANCH   1  32
TORSDOF 14
ENDMDL
MODEL 3
REMARK VINA RESULT:      -6.0      2.226      6.322
REMARK  Name = 
REMARK  14 active torsions:
REMARK  status: ('A' for Active; 'I' for Inactive)
REMARK    1  A    between atoms: O_1  and  C_2
REMARK    2  A    between atoms: C_2  and  C_3
REMARK    3  A    between atoms: C_3  and  C_5
REMARK    4  A    between atoms: C_5  and  C_7
REMARK    5  A    between atoms: C_5  and  N_15
REMARK    6  A    between atoms: C_7  and  C_8
REMARK    7  A    between atoms: C_8  and  C_9
REMARK    8  A    between atoms: C_16  and  C_18
REMARK    9  A    between atoms: C_18  and  C_20
REMARK   10  A    between atoms: C_18  and  N_27
REMARK   11  A    between atoms: C_20  and  C_21
REMARK   12  A    between atoms: C_28  and  O_30
REMARK   13  A    between atoms: O_30  and  C_31
REMARK   14  A    between atoms: C_31  and  C_32
REMARK                            x       y       z     vdW  Elec       q    Type
REMARK                         _______ _______ _______ _____ _____    ______ ____
ROOT
ATOM      1  C   UNL     1       8.077  -3.713  22.421  0.00  0.00    +0.166 C 
ENDROOT
BRANCH   1   4
ATOM      2  N   UNL     1       7.732  -3.124  24.789  0.00  0.00    -0.304 N 
ATOM      3  H   UNL     1       7.211  -2.326  24.419  0.00  0.00    +0.149 HD
ATOM      4  C   UNL     1       8.315  -4.019  23.914  0.00  0.00    +0.234 C 
ATOM      5  O   UNL     1       8.941  -5.001  24.305  0.00  0.00    -0.274 OA
BRANCH   2   6
ATOM      6  C   UNL     1       8.049  -3.139  26.219  0.00  0.00    +0.142 C 
BRANCH   6   7
ATOM      7  C   UNL     1       6.853  -3.721  26.980  0.00  0.00    +0.178 C 
ATOM      8  O   UNL     1       5.867  -3.029  27.247  0.00  0.00    -0.293 OA
BRANCH   7   9
ATOM      9  C   UNL     1       6.938  -5.200  27.358  0.00  0.00    +0.232 C 
BRANCH   9  10
ATOM     10  O   UNL     1       8.129  -5.808  26.895  0.00  0.00    -0.387 OA
ATOM     11  H   UNL     1       8.267  -6.623  27.406  0.00  0.00    +0.210 HD
ENDBRANCH   9  10
ENDBRANCH   7   9
ENDBRANCH   6   7
BRANCH   6  12
ATOM     12  C   UNL     1       8.370  -1.712  26.686  0.00  0.00    +0.035 C 
BRANCH  12  13
ATOM     13  C   UNL     1       8.584  -0.709  25.548  0.00  0.00    +0.037 C 
BRANCH  13  14
ATOM     14  C   UNL     1       7.483   0.325  25.557  0.00  0.00    -0.047 A 
ATOM     15  C   UNL     1       7.485   1.355  26.508  0.00  0.00    +0.003 A 
ATOM     16  C   UNL     1       6.524   2.366  26.461  0.00  0.00    +0.000 A 
ATOM     17  C   UNL     1       5.551   2.357  25.464  0.00  0.00    +0.000 A 
ATOM     18  C   UNL     1       5.532   1.333  24.519  0.00  0.00    +0.000 A 
ATOM     19  C   UNL     1       6.492   0.321  24.564  0.00  0.00    +0.003 A 
ENDBRANCH  13  14
ENDBRANCH  12  13
ENDBRANCH   6  12
ENDBRANCH   2   6
ENDBRANCH   1   4
BRANCH   1  20
ATOM     20  N   UNL     1       7.974  -2.264  22.257  0.00  0.00    -0.269 N 
ATOM     21  H   UNL     1       7.090  -1.797  22.402  0.00  0.00    +0.153 HD
ATOM     22  C   UNL     1       9.059  -1.478  22.030  0.00  0.00    +0.401 C 
ATOM     23  O   UNL     1      10.199  -1.896  21.935  0.00  0.00    -0.226 OA
BRANCH  22  24
ATOM     24  O   UNL     1       8.668  -0.186  21.944  0.00  0.00    -0.446 OA
BRANCH  24  25
ATOM     25  C   UNL     1       9.706   0.795  22.071  0.00  0.00    +0.270 C 
BRANCH  25  26
ATOM     26  C   UNL     1       9.126   2.068  22.617  0.00  0.00    +0.008 A 
ATOM     27  C   UNL     1       8.014   2.664  22.034  0.00  0.00    +0.117 A 
ATOM     28  N   UNL     1       7.431   3.797  22.488  0.00  0.00    -0.263 NA
ATOM     29  C   UNL     1       7.992   4.375  23.572  0.00  0.00    +0.111 A 
ATOM     30  C   UNL     1       9.112   3.876  24.216  0.00  0.00    +0.020 A 
ATOM     31  C   UNL     1       9.689   2.708  23.726  0.00  0.00    +0.010 A 
ENDBRANCH  25  26
ENDBRANCH  24  25
ENDBRANCH  22  24
ENDBRANCH   1  20
BRANCH   1  32
ATOM     32  C   UNL     1       6.817  -4.439  21.909  0.00  0.00    +0.067 C 
BRANCH  32  33
ATOM     33  C   UNL     1       5.719  -4.676  22.931  0.00  0.00    -0.045 A 
ATOM     34  C   UNL     1       5.586  -5.949  23.511  0.00  0.00    +0.004 A 
ATOM     35  C   UNL     1       4.636  -6.186  24.508  0.00  0.00    +0.000 A 
ATOM     36  C   UNL     1       3.798  -5.159  24.932  0.00  0.00    +0.000 A 
ATOM     37  C   UNL     1       3.875  -3.910  24.322  0.00  0.00    +0.000 A 
ATOM     38  C   UNL     1       4.813  -3.677  23.315  0.00  0.00    +0.004 A 
ENDBRANCH  32  33
ENDBRANCH   1  32
TORSDOF 14
ENDMDL
MODEL 4
REMARK VINA RESULT:      -6.0      2.381      7.755
REMARK  Name = 
REMARK  14 active torsions:
REMARK  status: ('A' for Active; 'I' for Inactive)
REMARK    1  A    between atoms: O_1  and  C_2
REMARK    2  A    between atoms: C_2  and  C_3
REMARK    3  A    between atoms: C_3  and  C_5
REMARK    4  A    between atoms: C_5  and  C_7
REMARK    5  A    between atoms: C_5  and  N_15
REMARK    6  A    between atoms: C_7  and  C_8
REMARK    7  A    between atoms: C_8  and  C_9
REMARK    8  A    between atoms: C_16  and  C_18
REMARK    9  A    between atoms: C_18  and  C_20
REMARK   10  A    between atoms: C_18  and  N_27
REMARK   11  A    between atoms: C_20  and  C_21
REMARK   12  A    between atoms: C_28  and  O_30
REMARK   13  A    between atoms: O_30  and  C_31
REMARK   14  A    between atoms: C_31  and  C_32
REMARK                            x       y       z     vdW  Elec       q    Type
REMARK                         _______ _______ _______ _____ _____    ______ ____
ROOT
ATOM      1  C   UNL     1       7.938  -1.216  23.954  0.00  0.00    +0.166 C 
ENDROOT
BRANCH   1   4
ATOM      2  N   UNL     1       6.521  -1.065  25.965  0.00  0.00    -0.304 N 
ATOM      3  H   UNL     1       7.186  -1.728  26.370  0.00  0.00    +0.149 HD
ATOM      4  C   UNL     1       6.695  -0.640  24.662  0.00  0.00    +0.234 C 
ATOM      5  O   UNL     1       5.933   0.163  24.131  0.00  0.00    -0.274 OA
BRANCH   2   6
ATOM      6  C   UNL     1       5.280  -0.797  26.695  0.00  0.00    +0.142 C 
BRANCH   6   7
ATOM      7  C   UNL     1       5.617   0.009  27.954  0.00  0.00    +0.178 C 
ATOM      8  O   UNL     1       5.004  -0.166  29.010  0.00  0.00    -0.293 OA
BRANCH   7   9
ATOM      9  C   UNL     1       6.768   1.010  27.837  0.00  0.00    +0.232 C 
BRANCH   9  10
ATOM     10  O   UNL     1       8.016   0.439  28.183  0.00  0.00    -0.387 OA
ATOM     11  H   UNL     1       7.981  -0.509  27.970  0.00  0.00    +0.210 HD
ENDBRANCH   9  10
ENDBRANCH   7   9
ENDBRANCH   6   7
BRANCH   6  12
ATOM     12  C   UNL     1       4.597  -2.126  27.047  0.00  0.00    +0.035 C 
BRANCH  12  13
ATOM     13  C   UNL     1       5.490  -3.359  26.878  0.00  0.00    +0.037 C 
BRANCH  13  14
ATOM     14  C   UNL     1       4.925  -4.264  25.809  0.00  0.00    -0.047 A 
ATOM     15  C   UNL     1       5.038  -5.657  25.927  0.00  0.00    +0.003 A 
ATOM     16  C   UNL     1       4.436  -6.498  24.990  0.00  0.00    +0.000 A 
ATOM     17  C   UNL     1       3.716  -5.957  23.927  0.00  0.00    +0.000 A 
ATOM     18  C   UNL     1       3.606  -4.575  23.793  0.00  0.00    +0.000 A 
ATOM     19  C   UNL     1       4.207  -3.730  24.729  0.00  0.00    +0.003 A 
ENDBRANCH  13  14
ENDBRANCH  12  13
ENDBRANCH   6  12
ENDBRANCH   2   6
ENDBRANCH   1   4
BRANCH   1  20
ATOM     20  N   UNL     1       8.949  -0.164  23.867  0.00  0.00    -0.269 N 
ATOM     21  H   UNL     1       9.024   0.403  23.035  0.00  0.00    +0.153 HD
ATOM     22  C   UNL     1       9.737   0.178  24.921  0.00  0.00    +0.401 C 
ATOM     23  O   UNL     1       9.683  -0.354  26.016  0.00  0.00    -0.226 OA
BRANCH  22  24
ATOM     24  O   UNL     1      10.557   1.191  24.559  0.00  0.00    -0.446 OA
BRANCH  24  25
ATOM     25  C   UNL     1      10.231   1.854  23.331  0.00  0.00    +0.270 C 
BRANCH  25  26
ATOM     26  C   UNL     1      10.379   3.338  23.510  0.00  0.00    +0.008 A 
ATOM     27  C   UNL     1       9.294   4.136  23.854  0.00  0.00    +0.117 A 
ATOM     28  N   UNL     1       9.365   5.473  24.051  0.00  0.00    -0.263 NA
ATOM     29  C   UNL     1      10.575   6.047  23.885  0.00  0.00    +0.111 A 
ATOM     30  C   UNL     1      11.715   5.348  23.523  0.00  0.00    +0.020 A 
ATOM     31  C   UNL     1      11.611   3.974  23.328  0.00  0.00    +0.010 A 
ENDBRANCH  25  26
ENDBRANCH  24  25
ENDBRANCH  22  24
ENDBRANCH   1  20
BRANCH   1  32
ATOM     32  C   UNL     1       7.567  -1.771  22.564  0.00  0.00    +0.067 C 
BRANCH  32  33
ATOM     33  C   UNL     1       7.303  -3.265  22.489  0.00  0.00    -0.045 A 
ATOM     34  C   UNL     1       6.455  -3.761  21.484  0.00  0.00    +0.004 A 
ATOM     35  C   UNL     1       6.247  -5.135  21.337  0.00  0.00    +0.000 A 
ATOM     36  C   UNL     1       6.872  -6.032  22.198  0.00  0.00    +0.000 A 
ATOM     37  C   UNL     1       7.664  -5.552  23.238  0.00  0.00    +0.000 A 
ATOM     38  C   UNL     1       7.861  -4.179  23.395  0.00  0.00    +0.004 A 
ENDBRANCH  32  33
ENDBRANCH   1  32
TORSDOF 14
ENDMDL
MODEL 5
REMARK VINA RESULT:      -5.9      2.141      6.901
REMARK  Name = 
REMARK  14 active torsions:
REMARK  status: ('A' for Active; 'I' for Inactive)
REMARK    1  A    between atoms: O_1  and  C_2
REMARK    2  A    between atoms: C_2  and  C_3
REMARK    3  A    between atoms: C_3  and  C_5
REMARK    4  A    between atoms: C_5  and  C_7
REMARK    5  A    between atoms: C_5  and  N_15
REMARK    6  A    between atoms: C_7  and  C_8
REMARK    7  A    between atoms: C_8  and  C_9
REMARK    8  A    between atoms: C_16  and  C_18
REMARK    9  A    between atoms: C_18  and  C_20
REMARK   10  A    between atoms: C_18  and  N_27
REMARK   11  A    between atoms: C_20  and  C_21
REMARK   12  A    between atoms: C_28  and  O_30
REMARK   13  A    between atoms: O_30  and  C_31
REMARK   14  A    between atoms: C_31  and  C_32
REMARK                            x       y       z     vdW  Elec       q    Type
REMARK                         _______ _______ _______ _____ _____    ______ ____
ROOT
ATOM      1  C   UNL     1       9.051  -2.685  24.697  0.00  0.00    +0.166 C 
ENDROOT
BRANCH   1   4
ATOM      2  N   UNL     1       6.982  -3.904  24.145  0.00  0.00    -0.304 N 
ATOM      3  H   UNL     1       6.525  -2.995  24.262  0.00  0.00    +0.149 HD
ATOM      4  C   UNL     1       8.345  -4.008  24.340  0.00  0.00    +0.234 C 
ATOM      5  O   UNL     1       8.944  -5.072  24.201  0.00  0.00    -0.274 OA
BRANCH   2   6
ATOM      6  C   UNL     1       6.134  -5.092  24.027  0.00  0.00    +0.142 C 
BRANCH   6   7
ATOM      7  C   UNL     1       5.415  -5.048  22.675  0.00  0.00    +0.178 C 
ATOM      8  O   UNL     1       4.276  -4.586  22.569  0.00  0.00    -0.293 OA
BRANCH   7   9
ATOM      9  C   UNL     1       6.194  -5.576  21.469  0.00  0.00    +0.232 C 
BRANCH   9  10
ATOM     10  O   UNL     1       7.439  -6.142  21.837  0.00  0.00    -0.387 OA
ATOM     11  H   UNL     1       7.261  -6.926  22.382  0.00  0.00    +0.210 HD
ENDBRANCH   9  10
ENDBRANCH   7   9
ENDBRANCH   6   7
BRANCH   6  12
ATOM     12  C   UNL     1       5.135  -5.124  25.192  0.00  0.00    +0.035 C 
BRANCH  12  13
ATOM     13  C   UNL     1       5.345  -4.023  26.235  0.00  0.00    +0.037 C 
BRANCH  13  14
ATOM     14  C   UNL     1       5.438  -4.630  27.616  0.00  0.00    -0.047 A 
ATOM     15  C   UNL     1       4.643  -4.137  28.661  0.00  0.00    +0.003 A 
ATOM     16  C   UNL     1       4.655  -4.755  29.912  0.00  0.00    +0.000 A 
ATOM     17  C   UNL     1       5.461  -5.870  30.132  0.00  0.00    +0.000 A 
ATOM     18  C   UNL     1       6.263  -6.363  29.105  0.00  0.00    +0.000 A 
ATOM     19  C   UNL     1       6.253  -5.746  27.852  0.00  0.00    +0.003 A 
ENDBRANCH  13  14
ENDBRANCH  12  13
ENDBRANCH   6  12
ENDBRANCH   2   6
ENDBRANCH   1   4
BRANCH   1  20
ATOM     20  N   UNL     1       8.034  -1.651  24.876  0.00  0.00    -0.269 N 
ATOM     21  H   UNL     1       7.319  -1.514  24.176  0.00  0.00    +0.153 HD
ATOM     22  C   UNL     1       7.926  -0.925  26.021  0.00  0.00    +0.401 C 
ATOM     23  O   UNL     1       8.657  -1.059  26.986  0.00  0.00    -0.226 OA
BRANCH  22  24
ATOM     24  O   UNL     1       6.888  -0.065  25.911  0.00  0.00    -0.446 OA
BRANCH  24  25
ATOM     25  C   UNL     1       6.350   0.105  24.594  0.00  0.00    +0.270 C 
BRANCH  25  26
ATOM     26  C   UNL     1       6.653   1.493  24.105  0.00  0.00    +0.008 A 
ATOM     27  C   UNL     1       7.294   2.421  24.918  0.00  0.00    +0.117 A 
ATOM     28  N   UNL     1       7.615   3.677  24.533  0.00  0.00    -0.263 NA
ATOM     29  C   UNL     1       7.269   4.033  23.277  0.00  0.00    +0.111 A 
ATOM     30  C   UNL     1       6.611   3.194  22.394  0.00  0.00    +0.020 A 
ATOM     31  C   UNL     1       6.295   1.907  22.819  0.00  0.00    +0.010 A 
ENDBRANCH  25  26
ENDBRANCH  24  25
ENDBRANCH  22  24
ENDBRANCH   1  20
BRANCH   1  32
ATOM     32  C   UNL     1      10.074  -2.301  23.609  0.00  0.00    +0.067 C 
BRANCH  32  33
ATOM     33  C   UNL     1       9.992  -0.876  23.087  0.00  0.00    -0.045 A 
ATOM     34  C   UNL     1      10.559   0.164  23.842  0.00  0.00    +0.004 A 
ATOM     35  C   UNL     1      10.569   1.476  23.360  0.00  0.00    +0.000 A 
ATOM     36  C   UNL     1      10.000   1.769  22.123  0.00  0.00    +0.000 A 
ATOM     37  C   UNL     1       9.378   0.761  21.393  0.00  0.00    +0.000 A 
ATOM     38  C   UNL     1       9.355  -0.548  21.881  0.00  0.00    +0.004 A 
ENDBRANCH  32  33
ENDBRANCH   1  32
TORSDOF 14
ENDMDL
MODEL 6
REMARK VINA RESULT:      -5.8      1.910      7.402
REMARK  Name = 
REMARK  14 active torsions:
REMARK  status: ('A' for Active; 'I' for Inactive)
REMARK    1  A    between atoms: O_1  and  C_2
REMARK    2  A    between atoms: C_2  and  C_3
REMARK    3  A    between atoms: C_3  and  C_5
REMARK    4  A    between atoms: C_5  and  C_7
REMARK    5  A    between atoms: C_5  and  N_15
REMARK    6  A    between atoms: C_7  and  C_8
REMARK    7  A    between atoms: C_8  and  C_9
REMARK    8  A    between atoms: C_16  and  C_18
REMARK    9  A    between atoms: C_18  and  C_20
REMARK   10  A    between atoms: C_18  and  N_27
REMARK   11  A    between atoms: C_20  and  C_21
REMARK   12  A    between atoms: C_28  and  O_30
REMARK   13  A    between atoms: O_30  and  C_31
REMARK   14  A    between atoms: C_31  and  C_32
REMARK                            x       y       z     vdW  Elec       q    Type
REMARK                         _______ _______ _______ _____ _____    ______ ____
ROOT
ATOM      1  C   UNL     1       8.966  -2.440  24.631  0.00  0.00    +0.166 C 
ENDROOT
BRANCH   1   4
ATOM      2  N   UNL     1       6.955  -3.763  24.102  0.00  0.00    -0.304 N 
ATOM      3  H   UNL     1       6.459  -2.872  24.191  0.00  0.00    +0.149 HD
ATOM      4  C   UNL     1       8.320  -3.803  24.308  0.00  0.00    +0.234 C 
ATOM      5  O   UNL     1       8.965  -4.842  24.202  0.00  0.00    -0.274 OA
BRANCH   2   6
ATOM      6  C   UNL     1       6.160  -4.990  24.013  0.00  0.00    +0.142 C 
BRANCH   6   7
ATOM      7  C   UNL     1       5.426  -5.001  22.668  0.00  0.00    +0.178 C 
ATOM      8  O   UNL     1       4.225  -4.730  22.592  0.00  0.00    -0.293 OA
BRANCH   7   9
ATOM      9  C   UNL     1       6.266  -5.333  21.434  0.00  0.00    +0.232 C 
BRANCH   9  10
ATOM     10  O   UNL     1       7.472  -5.997  21.765  0.00  0.00    -0.387 OA
ATOM     11  H   UNL     1       7.344  -6.947  21.602  0.00  0.00    +0.210 HD
ENDBRANCH   9  10
ENDBRANCH   7   9
ENDBRANCH   6   7
BRANCH   6  12
ATOM     12  C   UNL     1       5.175  -5.047  25.189  0.00  0.00    +0.035 C 
BRANCH  12  13
ATOM     13  C   UNL     1       5.221  -6.352  25.989  0.00  0.00    +0.037 C 
BRANCH  13  14
ATOM     14  C   UNL     1       3.831  -6.931  26.115  0.00  0.00    -0.047 A 
ATOM     15  C   UNL     1       3.084  -6.731  27.284  0.00  0.00    +0.003 A 
ATOM     16  C   UNL     1       1.766  -7.182  27.369  0.00  0.00    +0.000 A 
ATOM     17  C   UNL     1       1.182  -7.837  26.287  0.00  0.00    +0.000 A 
ATOM     18  C   UNL     1       1.918  -8.051  25.123  0.00  0.00    +0.000 A 
ATOM     19  C   UNL     1       3.237  -7.600  25.036  0.00  0.00    +0.003 A 
ENDBRANCH  13  14
ENDBRANCH  12  13
ENDBRANCH   6  12
ENDBRANCH   2   6
ENDBRANCH   1   4
BRANCH   1  20
ATOM     20  N   UNL     1       7.906  -1.441  24.744  0.00  0.00    -0.269 N 
ATOM     21  H   UNL     1       7.212  -1.349  24.016  0.00  0.00    +0.153 HD
ATOM     22  C   UNL     1       7.730  -0.688  25.863  0.00  0.00    +0.401 C 
ATOM     23  O   UNL     1       8.430  -0.768  26.857  0.00  0.00    -0.226 OA
BRANCH  22  24
ATOM     24  O   UNL     1       6.666   0.129  25.692  0.00  0.00    -0.446 OA
BRANCH  24  25
ATOM     25  C   UNL     1       6.241   0.333  24.338  0.00  0.00    +0.270 C 
BRANCH  25  26
ATOM     26  C   UNL     1       6.598   1.726  23.907  0.00  0.00    +0.008 A 
ATOM     27  C   UNL     1       7.154   2.638  24.797  0.00  0.00    +0.117 A 
ATOM     28  N   UNL     1       7.517   3.899  24.468  0.00  0.00    -0.263 NA
ATOM     29  C   UNL     1       7.303   4.277  23.189  0.00  0.00    +0.111 A 
ATOM     30  C   UNL     1       6.737   3.455  22.229  0.00  0.00    +0.020 A 
ATOM     31  C   UNL     1       6.375   2.163  22.598  0.00  0.00    +0.010 A 
ENDBRANCH  25  26
ENDBRANCH  24  25
ENDBRANCH  22  24
ENDBRANCH   1  20
BRANCH   1  32
ATOM     32  C   UNL     1      10.002  -2.058  23.555  0.00  0.00    +0.067 C 
BRANCH  32  33
ATOM     33  C   UNL     1      10.151  -0.573  23.267  0.00  0.00    -0.045 A 
ATOM     34  C   UNL     1       9.752  -0.074  22.016  0.00  0.00    +0.004 A 
ATOM     35  C   UNL     1       9.805   1.295  21.741  0.00  0.00    +0.000 A 
ATOM     36  C   UNL     1      10.268   2.184  22.708  0.00  0.00    +0.000 A 
ATOM     37  C   UNL     1      10.726   1.698  23.929  0.00  0.00    +0.000 A 
ATOM     38  C   UNL     1      10.687   0.328  24.199  0.00  0.00    +0.004 A 
ENDBRANCH  32  33
ENDBRANCH   1  32
TORSDOF 14
ENDMDL
MODEL 7
REMARK VINA RESULT:      -5.8      2.215      5.077
REMARK  Name = 
REMARK  14 active torsions:
REMARK  status: ('A' for Active; 'I' for Inactive)
REMARK    1  A    between atoms: O_1  and  C_2
REMARK    2  A    between atoms: C_2  and  C_3
REMARK    3  A    between atoms: C_3  and  C_5
REMARK    4  A    between atoms: C_5  and  C_7
REMARK    5  A    between atoms: C_5  and  N_15
REMARK    6  A    between atoms: C_7  and  C_8
REMARK    7  A    between atoms: C_8  and  C_9
REMARK    8  A    between atoms: C_16  and  C_18
REMARK    9  A    between atoms: C_18  and  C_20
REMARK   10  A    between atoms: C_18  and  N_27
REMARK   11  A    between atoms: C_20  and  C_21
REMARK   12  A    between atoms: C_28  and  O_30
REMARK   13  A    between atoms: O_30  and  C_31
REMARK   14  A    between atoms: C_31  and  C_32
REMARK                            x       y       z     vdW  Elec       q    Type
REMARK                         _______ _______ _______ _____ _____    ______ ____
ROOT
ATOM      1  C   UNL     1       6.063  -0.186  24.640  0.00  0.00    +0.166 C 
ENDROOT
BRANCH   1   4
ATOM      2  N   UNL     1       7.040   2.070  24.814  0.00  0.00    -0.304 N 
ATOM      3  H   UNL     1       6.375   2.314  24.075  0.00  0.00    +0.149 HD
ATOM      4  C   UNL     1       7.083   0.773  25.287  0.00  0.00    +0.234 C 
ATOM      5  O   UNL     1       7.852   0.430  26.181  0.00  0.00    -0.274 OA
BRANCH   2   6
ATOM      6  C   UNL     1       8.082   3.041  25.154  0.00  0.00    +0.142 C 
BRANCH   6   7
ATOM      7  C   UNL     1       7.418   4.277  25.770  0.00  0.00    +0.178 C 
ATOM      8  O   UNL     1       7.113   5.252  25.078  0.00  0.00    -0.293 OA
BRANCH   7   9
ATOM      9  C   UNL     1       7.130   4.221  27.271  0.00  0.00    +0.232 C 
BRANCH   9  10
ATOM     10  O   UNL     1       7.454   2.963  27.836  0.00  0.00    -0.387 OA
ATOM     11  H   UNL     1       8.136   3.107  28.513  0.00  0.00    +0.210 HD
ENDBRANCH   9  10
ENDBRANCH   7   9
ENDBRANCH   6   7
BRANCH   6  12
ATOM     12  C   UNL     1       8.874   3.403  23.889  0.00  0.00    +0.035 C 
BRANCH  12  13
ATOM     13  C   UNL     1      10.235   2.709  23.776  0.00  0.00    +0.037 C 
BRANCH  13  14
ATOM     14  C   UNL     1      10.068   1.343  23.152  0.00  0.00    -0.047 A 
ATOM     15  C   UNL     1       9.524   1.213  21.867  0.00  0.00    +0.003 A 
ATOM     16  C   UNL     1       9.456  -0.037  21.250  0.00  0.00    +0.000 A 
ATOM     17  C   UNL     1       9.929  -1.169  21.911  0.00  0.00    +0.000 A 
ATOM     18  C   UNL     1      10.462  -1.054  23.192  0.00  0.00    +0.000 A 
ATOM     19  C   UNL     1      10.532   0.196  23.812  0.00  0.00    +0.003 A 
ENDBRANCH  13  14
ENDBRANCH  12  13
ENDBRANCH   6  12
ENDBRANCH   2   6
ENDBRANCH   1   4
BRANCH   1  20
ATOM     20  N   UNL     1       5.685  -1.194  25.629  0.00  0.00    -0.269 N 
ATOM     21  H   UNL     1       6.289  -1.983  25.809  0.00  0.00    +0.153 HD
ATOM     22  C   UNL     1       4.590  -1.059  26.424  0.00  0.00    +0.401 C 
ATOM     23  O   UNL     1       3.830  -0.108  26.385  0.00  0.00    -0.226 OA
BRANCH  22  24
ATOM     24  O   UNL     1       4.502  -2.125  27.252  0.00  0.00    -0.446 OA
BRANCH  24  25
ATOM     25  C   UNL     1       5.614  -3.030  27.231  0.00  0.00    +0.270 C 
BRANCH  25  26
ATOM     26  C   UNL     1       5.145  -4.389  26.798  0.00  0.00    +0.008 A 
ATOM     27  C   UNL     1       5.829  -5.541  27.166  0.00  0.00    +0.117 A 
ATOM     28  N   UNL     1       5.448  -6.795  26.828  0.00  0.00    -0.263 NA
ATOM     29  C   UNL     1       4.334  -6.906  26.073  0.00  0.00    +0.111 A 
ATOM     30  C   UNL     1       3.590  -5.823  25.635  0.00  0.00    +0.020 A 
ATOM     31  C   UNL     1       4.007  -4.546  26.000  0.00  0.00    +0.010 A 
ENDBRANCH  25  26
ENDBRANCH  24  25
ENDBRANCH  22  24
ENDBRANCH   1  20
BRANCH   1  32
ATOM     32  C   UNL     1       6.648  -0.826  23.365  0.00  0.00    +0.067 C 
BRANCH  32  33
ATOM     33  C   UNL     1       6.580  -2.342  23.285  0.00  0.00    -0.045 A 
ATOM     34  C   UNL     1       7.578  -3.107  23.912  0.00  0.00    +0.004 A 
ATOM     35  C   UNL     1       7.509  -4.502  23.923  0.00  0.00    +0.000 A 
ATOM     36  C   UNL     1       6.450  -5.154  23.298  0.00  0.00    +0.000 A 
ATOM     37  C   UNL     1       5.488  -4.412  22.618  0.00  0.00    +0.000 A 
ATOM     38  C   UNL     1       5.564  -3.018  22.594  0.00  0.00    +0.004 A 
ENDBRANCH  32  33
ENDBRANCH   1  32
TORSDOF 14
ENDMDL
MODEL 8
REMARK VINA RESULT:      -5.8      2.326      7.008
REMARK  Name = 
REMARK  14 active torsions:
REMARK  status: ('A' for Active; 'I' for Inactive)
REMARK    1  A    between atoms: O_1  and  C_2
REMARK    2  A    between atoms: C_2  and  C_3
REMARK    3  A    between atoms: C_3  and  C_5
REMARK    4  A    between atoms: C_5  and  C_7
REMARK    5  A    between atoms: C_5  and  N_15
REMARK    6  A    between atoms: C_7  and  C_8
REMARK    7  A    between atoms: C_8  and  C_9
REMARK    8  A    between atoms: C_16  and  C_18
REMARK    9  A    between atoms: C_18  and  C_20
REMARK   10  A    between atoms: C_18  and  N_27
REMARK   11  A    between atoms: C_20  and  C_21
REMARK   12  A    between atoms: C_28  and  O_30
REMARK   13  A    between atoms: O_30  and  C_31
REMARK   14  A    between atoms: C_31  and  C_32
REMARK                            x       y       z     vdW  Elec       q    Type
REMARK                         _______ _______ _______ _____ _____    ______ ____
ROOT
ATOM      1  C   UNL     1       8.177  -0.723  26.451  0.00  0.00    +0.166 C 
ENDROOT
BRANCH   1   4
ATOM      2  N   UNL     1       7.677  -3.123  26.710  0.00  0.00    -0.304 N 
ATOM      3  H   UNL     1       8.587  -3.168  27.174  0.00  0.00    +0.149 HD
ATOM      4  C   UNL     1       7.228  -1.915  26.213  0.00  0.00    +0.234 C 
ATOM      5  O   UNL     1       6.138  -1.803  25.657  0.00  0.00    -0.274 OA
BRANCH   2   6
ATOM      6  C   UNL     1       7.011  -4.383  26.371  0.00  0.00    +0.142 C 
BRANCH   6   7
ATOM      7  C   UNL     1       6.527  -5.044  27.665  0.00  0.00    +0.178 C 
ATOM      8  O   UNL     1       7.144  -5.982  28.176  0.00  0.00    -0.293 OA
BRANCH   7   9
ATOM      9  C   UNL     1       5.263  -4.460  28.299  0.00  0.00    +0.232 C 
BRANCH   9  10
ATOM     10  O   UNL     1       4.553  -3.618  27.410  0.00  0.00    -0.387 OA
ATOM     11  H   UNL     1       3.621  -3.610  27.686  0.00  0.00    +0.210 HD
ENDBRANCH   9  10
ENDBRANCH   7   9
ENDBRANCH   6   7
BRANCH   6  12
ATOM     12  C   UNL     1       7.991  -5.289  25.612  0.00  0.00    +0.035 C 
BRANCH  12  13
ATOM     13  C   UNL     1       8.682  -4.615  24.423  0.00  0.00    +0.037 C 
BRANCH  13  14
ATOM     14  C   UNL     1       7.776  -4.643  23.214  0.00  0.00    -0.047 A 
ATOM     15  C   UNL     1       7.500  -5.853  22.563  0.00  0.00    +0.003 A 
ATOM     16  C   UNL     1       6.590  -5.898  21.506  0.00  0.00    +0.000 A 
ATOM     17  C   UNL     1       5.948  -4.734  21.088  0.00  0.00    +0.000 A 
ATOM     18  C   UNL     1       6.222  -3.523  21.720  0.00  0.00    +0.000 A 
ATOM     19  C   UNL     1       7.132  -3.476  22.779  0.00  0.00    +0.003 A 
ENDBRANCH  13  14
ENDBRANCH  12  13
ENDBRANCH   6  12
ENDBRANCH   2   6
ENDBRANCH   1   4
BRANCH   1  20
ATOM     20  N   UNL     1       7.446   0.512  26.175  0.00  0.00    -0.269 N 
ATOM     21  H   UNL     1       7.169   0.739  25.231  0.00  0.00    +0.153 HD
ATOM     22  C   UNL     1       7.006   1.334  27.164  0.00  0.00    +0.401 C 
ATOM     23  O   UNL     1       7.180   1.129  28.352  0.00  0.00    -0.226 OA
BRANCH  22  24
ATOM     24  O   UNL     1       6.347   2.382  26.617  0.00  0.00    -0.446 OA
BRANCH  24  25
ATOM     25  C   UNL     1       7.135   3.548  26.348  0.00  0.00    +0.270 C 
BRANCH  25  26
ATOM     26  C   UNL     1       7.146   3.813  24.870  0.00  0.00    +0.008 A 
ATOM     27  C   UNL     1       7.901   4.846  24.327  0.00  0.00    +0.117 A 
ATOM     28  N   UNL     1       7.973   5.124  23.005  0.00  0.00    -0.263 NA
ATOM     29  C   UNL     1       7.244   4.341  22.181  0.00  0.00    +0.111 A 
ATOM     30  C   UNL     1       6.442   3.300  22.619  0.00  0.00    +0.020 A 
ATOM     31  C   UNL     1       6.390   3.038  23.985  0.00  0.00    +0.010 A 
ENDBRANCH  25  26
ENDBRANCH  24  25
ENDBRANCH  22  24
ENDBRANCH   1  20
BRANCH   1  32
ATOM     32  C   UNL     1       9.442  -0.849  25.578  0.00  0.00    +0.067 C 
BRANCH  32  33
ATOM     33  C   UNL     1       9.512   0.066  24.366  0.00  0.00    -0.045 A 
ATOM     34  C   UNL     1      10.199   1.287  24.468  0.00  0.00    +0.004 A 
ATOM     35  C   UNL     1      10.347   2.119  23.356  0.00  0.00    +0.000 A 
ATOM     36  C   UNL     1       9.802   1.750  22.130  0.00  0.00    +0.000 A 
ATOM     37  C   UNL     1       9.064   0.575  22.029  0.00  0.00    +0.000 A 
ATOM     38  C   UNL     1       8.902  -0.251  23.144  0.00  0.00    +0.004 A 
ENDBRANCH  32  33
ENDBRANCH   1  32
TORSDOF 14
ENDMDL
MODEL 9
REMARK VINA RESULT:      -5.8      1.285      1.771
REMARK  Name = 
REMARK  14 active torsions:
REMARK  status: ('A' for Active; 'I' for Inactive)
REMARK    1  A    between atoms: O_1  and  C_2
REMARK    2  A    between atoms: C_2  and  C_3
REMARK    3  A    between atoms: C_3  and  C_5
REMARK    4  A    between atoms: C_5  and  C_7
REMARK    5  A    between atoms: C_5  and  N_15
REMARK    6  A    between atoms: C_7  and  C_8
REMARK    7  A    between atoms: C_8  and  C_9
REMARK    8  A    between atoms: C_16  and  C_18
REMARK    9  A    between atoms: C_18  and  C_20
REMARK   10  A    between atoms: C_18  and  N_27
REMARK   11  A    between atoms: C_20  and  C_21
REMARK   12  A    between atoms: C_28  and  O_30
REMARK   13  A    between atoms: O_30  and  C_31
REMARK   14  A    between atoms: C_31  and  C_32
REMARK                            x       y       z     vdW  Elec       q    Type
REMARK                         _______ _______ _______ _____ _____    ______ ____
ROOT
ATOM      1  C   UNL     1       7.875  -2.100  23.796  0.00  0.00    +0.166 C 
ENDROOT
BRANCH   1   4
ATOM      2  N   UNL     1       6.355  -0.761  25.200  0.00  0.00    -0.304 N 
ATOM      3  H   UNL     1       5.851  -0.588  24.327  0.00  0.00    +0.149 HD
ATOM      4  C   UNL     1       7.496  -1.538  25.182  0.00  0.00    +0.234 C 
ATOM      5  O   UNL     1       8.133  -1.787  26.202  0.00  0.00    -0.274 OA
BRANCH   2   6
ATOM      6  C   UNL     1       5.988   0.029  26.377  0.00  0.00    +0.142 C 
BRANCH   6   7
ATOM      7  C   UNL     1       4.655  -0.494  26.922  0.00  0.00    +0.178 C 
ATOM      8  O   UNL     1       3.579  -0.046  26.519  0.00  0.00    -0.293 OA
BRANCH   7   9
ATOM      9  C   UNL     1       4.733  -1.614  27.961  0.00  0.00    +0.232 C 
BRANCH   9  10
ATOM     10  O   UNL     1       5.384  -2.768  27.461  0.00  0.00    -0.387 OA
ATOM     11  H   UNL     1       4.708  -3.345  27.067  0.00  0.00    +0.210 HD
ENDBRANCH   9  10
ENDBRANCH   7   9
ENDBRANCH   6   7
BRANCH   6  12
ATOM     12  C   UNL     1       5.892   1.511  25.988  0.00  0.00    +0.035 C 
BRANCH  12  13
ATOM     13  C   UNL     1       7.244   2.198  25.778  0.00  0.00    +0.037 C 
BRANCH  13  14
ATOM     14  C   UNL     1       7.202   3.051  24.531  0.00  0.00    -0.047 A 
ATOM     15  C   UNL     1       7.836   4.301  24.506  0.00  0.00    +0.003 A 
ATOM     16  C   UNL     1       7.881   5.050  23.329  0.00  0.00    +0.000 A 
ATOM     17  C   UNL     1       7.293   4.558  22.166  0.00  0.00    +0.000 A 
ATOM     18  C   UNL     1       6.651   3.321  22.181  0.00  0.00    +0.000 A 
ATOM     19  C   UNL     1       6.605   2.570  23.357  0.00  0.00    +0.003 A 
ENDBRANCH  13  14
ENDBRANCH  12  13
ENDBRANCH   6  12
ENDBRANCH   2   6
ENDBRANCH   1   4
BRANCH   1  20
ATOM     20  N   UNL     1       7.617  -3.539  23.795  0.00  0.00    -0.269 N 
ATOM     21  H   UNL     1       8.372  -4.192  23.945  0.00  0.00    +0.153 HD
ATOM     22  C   UNL     1       6.360  -4.053  23.718  0.00  0.00    +0.401 C 
ATOM     23  O   UNL     1       5.349  -3.378  23.638  0.00  0.00    -0.226 OA
BRANCH  22  24
ATOM     24  O   UNL     1       6.424  -5.403  23.761  0.00  0.00    -0.446 OA
BRANCH  24  25
ATOM     25  C   UNL     1       5.332  -6.063  24.416  0.00  0.00    +0.270 C 
BRANCH  25  26
ATOM     26  C   UNL     1       5.593  -6.112  25.894  0.00  0.00    +0.008 A 
ATOM     27  C   UNL     1       6.795  -5.666  26.431  0.00  0.00    +0.117 A 
ATOM     28  N   UNL     1       7.084  -5.663  27.753  0.00  0.00    -0.263 NA
ATOM     29  C   UNL     1       6.132  -6.141  28.583  0.00  0.00    +0.111 A 
ATOM     30  C   UNL     1       4.910  -6.629  28.151  0.00  0.00    +0.020 A 
ATOM     31  C   UNL     1       4.641  -6.618  26.785  0.00  0.00    +0.010 A 
ENDBRANCH  25  26
ENDBRANCH  24  25
ENDBRANCH  22  24
ENDBRANCH   1  20
BRANCH   1  32
ATOM     32  C   UNL     1       9.346  -1.782  23.461  0.00  0.00    +0.067 C 
BRANCH  32  33
ATOM     33  C   UNL     1       9.680  -0.317  23.239  0.00  0.00    -0.045 A 
ATOM     34  C   UNL     1      10.248   0.424  24.289  0.00  0.00    +0.004 A 
ATOM     35  C   UNL     1      10.636   1.753  24.100  0.00  0.00    +0.000 A 
ATOM     36  C   UNL     1      10.452   2.364  22.863  0.00  0.00    +0.000 A 
ATOM     37  C   UNL     1       9.833   1.664  21.832  0.00  0.00    +0.000 A 
ATOM     38  C   UNL     1       9.431   0.340  22.025  0.00  0.00    +0.004 A 
ENDBRANCH  32  33
ENDBRANCH   1  32
TORSDOF 14
ENDMDL
