MODEL 1
REMARK VINA RESULT:      -6.3      0.000      0.000
REMARK  Name = 
REMARK  13 active torsions:
REMARK  status: ('A' for Active; 'I' for Inactive)
REMARK    1  A    between atoms: N_10  and  C_11
REMARK    2  A    between atoms: C_14  and  C_16
REMARK    3  A    between atoms: C_16  and  O_17
REMARK    4  A    between atoms: O_17  and  P_18
REMARK    5  A    between atoms: P_18  and  O_19
REMARK    6  A    between atoms: P_18  and  O_21
REMARK    7  A    between atoms: O_21  and  P_22
REMARK    8  A    between atoms: P_22  and  O_23
REMARK    9  A    between atoms: P_22  and  O_25
REMARK   10  A    between atoms: O_25  and  P_26
REMARK   11  A    between atoms: P_26  and  O_27
REMARK   12  A    between atoms: P_26  and  O_28
REMARK   13  A    between atoms: C_31  and  O_33
REMARK                            x       y       z     vdW  Elec       q    Type
REMARK                         _______ _______ _______ _____ _____    ______ ____
ROOT
ATOM      1  C   UNL     1       7.903  -1.181  25.200  0.00  0.00    +0.251 C 
ATOM      2  C   UNL     1       9.040  -0.876  26.179  0.00  0.00    +0.167 C 
ATOM      3  C   UNL     1       8.353  -0.322  27.416  0.00  0.00    +0.070 C 
ATOM      4  C   UNL     1       6.880  -0.214  27.037  0.00  0.00    +0.150 C 
ATOM      5  O   UNL     1       6.686  -1.156  25.968  0.00  0.00    -0.348 OA
ENDROOT
BRANCH   1  13
ATOM      6  N   UNL     1       7.243  -6.182  21.879  0.00  0.00    -0.341 N 
ATOM      7  H   UNL     1       8.177  -6.473  22.145  0.00  0.00    +0.144 HD
ATOM      8  H   UNL     1       6.918  -6.410  20.948  0.00  0.00    +0.144 HD
ATOM      9  C   UNL     1       6.941  -4.877  22.246  0.00  0.00    +0.147 A 
ATOM     10  C   UNL     1       7.639  -4.186  23.231  0.00  0.00    +0.147 A 
ATOM     11  N   UNL     1       8.726  -4.513  24.033  0.00  0.00    -0.231 NA
ATOM     12  C   UNL     1       8.921  -3.458  24.798  0.00  0.00    +0.203 A 
ATOM     13  N   UNL     1       8.023  -2.458  24.528  0.00  0.00    -0.286 N 
ATOM     14  C   UNL     1       7.210  -2.891  23.512  0.00  0.00    +0.167 A 
ATOM     15  N   UNL     1       6.209  -2.215  22.917  0.00  0.00    -0.216 NA
ATOM     16  C   UNL     1       5.625  -2.980  21.968  0.00  0.00    +0.225 A 
ATOM     17  N   UNL     1       5.937  -4.244  21.597  0.00  0.00    -0.219 NA
ENDBRANCH   1  13
BRANCH   2  18
ATOM     18  O   UNL     1       9.929   0.110  25.659  0.00  0.00    -0.387 OA
ATOM     19  H   UNL     1      10.824  -0.276  25.644  0.00  0.00    +0.210 HD
ENDBRANCH   2  18
BRANCH   4  20
ATOM     20  C   UNL     1       6.504   1.200  26.578  0.00  0.00    +0.204 C 
BRANCH  20  21
ATOM     21  O   UNL     1       5.276   1.175  25.842  0.00  0.00    -0.284 OA
BRANCH  21  22
ATOM     22  P   UNL     1       5.380   2.039  24.347  0.00  0.00    +0.483 P 
ATOM     23  O   UNL     1       3.895   2.370  24.448  0.00  0.00    -0.227 OA
BRANCH  22  24
ATOM     24  O   UNL     1       5.627   0.570  23.697  0.00  0.00    -0.302 OA
ATOM     25  H   UNL     1       5.018  -0.112  24.039  0.00  0.00    +0.222 HD
ENDBRANCH  22  24
BRANCH  22  26
ATOM     26  O   UNL     1       5.484   2.903  22.851  0.00  0.00    -0.186 OA
BRANCH  26  27
ATOM     27  P   UNL     1       7.032   3.279  22.588  0.00  0.00    +0.492 P 
ATOM     28  O   UNL     1       7.454   4.597  22.026  0.00  0.00    -0.226 OA
BRANCH  27  29
ATOM     29  O   UNL     1       7.749   3.047  23.997  0.00  0.00    -0.302 OA
ATOM     30  H   UNL     1       8.611   3.516  23.978  0.00  0.00    +0.222 HD
ENDBRANCH  27  29
BRANCH  27  31
ATOM     31  O   UNL     1       7.449   2.042  21.677  0.00  0.00    -0.186 OA
BRANCH  31  32
ATOM     32  P   UNL     1       8.872   1.221  22.222  0.00  0.00    +0.481 P 
ATOM     33  O   UNL     1      10.144   0.487  22.710  0.00  0.00    -0.227 OA
BRANCH  32  34
ATOM     34  O   UNL     1       9.657   2.604  21.796  0.00  0.00    -0.302 OA
ATOM     35  H   UNL     1       9.107   3.384  22.006  0.00  0.00    +0.222 HD
ENDBRANCH  32  34
BRANCH  32  36
ATOM     36  O   UNL     1       8.940   0.611  20.702  0.00  0.00    -0.302 OA
ATOM     37  H   UNL     1       9.515  -0.174  20.754  0.00  0.00    +0.222 HD
ENDBRANCH  32  36
ENDBRANCH  31  32
ENDBRANCH  27  31
ENDBRANCH  26  27
ENDBRANCH  22  26
ENDBRANCH  21  22
ENDBRANCH  20  21
ENDBRANCH   4  20
TORSDOF 13
ENDMDL
MODEL 2
REMARK VINA RESULT:      -6.3      5.267      7.825
REMARK  Name = 
REMARK  13 active torsions:
REMARK  status: ('A' for Active; 'I' for Inactive)
REMARK    1  A    between atoms: N_10  and  C_11
REMARK    2  A    between atoms: C_14  and  C_16
REMARK    3  A    between atoms: C_16  and  O_17
REMARK    4  A    between atoms: O_17  and  P_18
REMARK    5  A    between atoms: P_18  and  O_19
REMARK    6  A    between atoms: P_18  and  O_21
REMARK    7  A    between atoms: O_21  and  P_22
REMARK    8  A    between atoms: P_22  and  O_23
REMARK    9  A    between atoms: P_22  and  O_25
REMARK   10  A    between atoms: O_25  and  P_26
REMARK   11  A    between atoms: P_26  and  O_27
REMARK   12  A    between atoms: P_26  and  O_28
REMARK   13  A    between atoms: C_31  and  O_33
REMARK                            x       y       z     vdW  Elec       q    Type
REMARK                         _______ _______ _______ _____ _____    ______ ____
ROOT
ATOM      1  C   UNL     1       8.838   0.434  23.529  0.00  0.00    +0.251 C 
ATOM      2  C   UNL     1      10.301   0.322  23.088  0.00  0.00    +0.167 C 
ATOM      3  C   UNL     1      10.494  -1.145  22.743  0.00  0.00    +0.070 C 
ATOM      4  C   UNL     1       9.182  -1.819  23.128  0.00  0.00    +0.150 C 
ATOM      5  O   UNL     1       8.190  -0.779  23.103  0.00  0.00    -0.348 OA
ENDROOT
BRANCH   1  13
ATOM      6  N   UNL     1       6.655   5.874  22.076  0.00  0.00    -0.341 N 
ATOM      7  H   UNL     1       6.113   5.449  21.332  0.00  0.00    +0.144 HD
ATOM      8  H   UNL     1       7.030   6.801  21.924  0.00  0.00    +0.144 HD
ATOM      9  C   UNL     1       7.577   5.012  22.654  0.00  0.00    +0.147 A 
ATOM     10  C   UNL     1       7.489   3.627  22.550  0.00  0.00    +0.147 A 
ATOM     11  N   UNL     1       6.599   2.777  21.905  0.00  0.00    -0.231 NA
ATOM     12  C   UNL     1       7.015   1.560  22.191  0.00  0.00    +0.203 A 
ATOM     13  N   UNL     1       8.136   1.575  22.980  0.00  0.00    -0.286 N 
ATOM     14  C   UNL     1       8.472   2.886  23.202  0.00  0.00    +0.167 A 
ATOM     15  N   UNL     1       9.521   3.358  23.902  0.00  0.00    -0.216 NA
ATOM     16  C   UNL     1       9.509   4.709  23.912  0.00  0.00    +0.225 A 
ATOM     17  N   UNL     1       8.621   5.547  23.327  0.00  0.00    -0.219 NA
ENDBRANCH   1  13
BRANCH   2  18
ATOM     18  O   UNL     1      11.194   0.676  24.141  0.00  0.00    -0.387 OA
ATOM     19  H   UNL     1      12.103   0.602  23.797  0.00  0.00    +0.210 HD
ENDBRANCH   2  18
BRANCH   4  20
ATOM     20  C   UNL     1       9.248  -2.460  24.519  0.00  0.00    +0.204 C 
BRANCH  20  21
ATOM     21  O   UNL     1       9.615  -3.840  24.416  0.00  0.00    -0.284 OA
BRANCH  21  22
ATOM     22  P   UNL     1       8.588  -4.872  25.349  0.00  0.00    +0.483 P 
ATOM     23  O   UNL     1       8.770  -3.949  26.550  0.00  0.00    -0.227 OA
BRANCH  22  24
ATOM     24  O   UNL     1       9.805  -5.940  25.219  0.00  0.00    -0.302 OA
ATOM     25  H   UNL     1       9.560  -6.751  24.732  0.00  0.00    +0.222 HD
ENDBRANCH  22  24
BRANCH  22  26
ATOM     26  O   UNL     1       7.560  -5.904  26.283  0.00  0.00    -0.186 OA
BRANCH  26  27
ATOM     27  P   UNL     1       6.027  -5.599  25.875  0.00  0.00    +0.492 P 
ATOM     28  O   UNL     1       4.871  -6.278  26.531  0.00  0.00    -0.226 OA
BRANCH  27  29
ATOM     29  O   UNL     1       5.875  -4.017  26.033  0.00  0.00    -0.302 OA
ATOM     30  H   UNL     1       6.721  -3.665  26.385  0.00  0.00    +0.222 HD
ENDBRANCH  27  29
BRANCH  27  31
ATOM     31  O   UNL     1       6.115  -5.875  24.309  0.00  0.00    -0.186 OA
BRANCH  31  32
ATOM     32  P   UNL     1       4.582  -5.841  23.507  0.00  0.00    +0.481 P 
ATOM     33  O   UNL     1       3.212  -5.809  22.789  0.00  0.00    -0.227 OA
BRANCH  32  34
ATOM     34  O   UNL     1       4.485  -7.426  23.936  0.00  0.00    -0.302 OA
ATOM     35  H   UNL     1       4.618  -7.525  24.899  0.00  0.00    +0.222 HD
ENDBRANCH  32  34
BRANCH  32  36
ATOM     36  O   UNL     1       5.438  -6.171  22.148  0.00  0.00    -0.302 OA
ATOM     37  H   UNL     1       6.203  -6.702  22.435  0.00  0.00    +0.222 HD
ENDBRANCH  32  36
ENDBRANCH  31  32
ENDBRANCH  27  31
ENDBRANCH  26  27
ENDBRANCH  22  26
ENDBRANCH  21  22
ENDBRANCH  20  21
ENDBRANCH   4  20
TORSDOF 13
ENDMDL
MODEL 3
REMARK VINA RESULT:      -6.3      5.049      7.772
REMARK  Name = 
REMARK  13 active torsions:
REMARK  status: ('A' for Active; 'I' for Inactive)
REMARK    1  A    between atoms: N_10  and  C_11
REMARK    2  A    between atoms: C_14  and  C_16
REMARK    3  A    between atoms: C_16  and  O_17
REMARK    4  A    between atoms: O_17  and  P_18
REMARK    5  A    between atoms: P_18  and  O_19
REMARK    6  A    between atoms: P_18  and  O_21
REMARK    7  A    between atoms: O_21  and  P_22
REMARK    8  A    between atoms: P_22  and  O_23
REMARK    9  A    between atoms: P_22  and  O_25
REMARK   10  A    between atoms: O_25  and  P_26
REMARK   11  A    between atoms: P_26  and  O_27
REMARK   12  A    between atoms: P_26  and  O_28
REMARK   13  A    between atoms: C_31  and  O_33
REMARK                            x       y       z     vdW  Elec       q    Type
REMARK                         _______ _______ _______ _____ _____    ______ ____
ROOT
ATOM      1  C   UNL     1       8.619  -0.023  23.600  0.00  0.00    +0.251 C 
ATOM      2  C   UNL     1       9.685  -0.859  24.316  0.00  0.00    +0.167 C 
ATOM      3  C   UNL     1       9.893  -2.072  23.425  0.00  0.00    +0.070 C 
ATOM      4  C   UNL     1       8.850  -1.938  22.321  0.00  0.00    +0.150 C 
ATOM      5  O   UNL     1       8.531  -0.537  22.258  0.00  0.00    -0.348 OA
ENDROOT
BRANCH   1  13
ATOM      6  N   UNL     1       8.674   5.959  22.774  0.00  0.00    -0.341 N 
ATOM      7  H   UNL     1       9.511   6.022  23.343  0.00  0.00    +0.144 HD
ATOM      8  H   UNL     1       8.005   6.715  22.823  0.00  0.00    +0.144 HD
ATOM      9  C   UNL     1       8.073   4.708  22.806  0.00  0.00    +0.147 A 
ATOM     10  C   UNL     1       8.743   3.555  23.203  0.00  0.00    +0.147 A 
ATOM     11  N   UNL     1      10.034   3.314  23.659  0.00  0.00    -0.231 NA
ATOM     12  C   UNL     1      10.094   2.012  23.852  0.00  0.00    +0.203 A 
ATOM     13  N   UNL     1       8.907   1.396  23.555  0.00  0.00    -0.286 N 
ATOM     14  C   UNL     1       8.020   2.365  23.162  0.00  0.00    +0.167 A 
ATOM     15  N   UNL     1       6.731   2.204  22.808  0.00  0.00    -0.216 NA
ATOM     16  C   UNL     1       6.186   3.392  22.467  0.00  0.00    +0.225 A 
ATOM     17  N   UNL     1       6.769   4.614  22.458  0.00  0.00    -0.219 NA
ENDBRANCH   1  13
BRANCH   2  18
ATOM     18  O   UNL     1       9.236  -1.294  25.598  0.00  0.00    -0.387 OA
ATOM     19  H   UNL     1       8.955  -2.223  25.514  0.00  0.00    +0.210 HD
ENDBRANCH   2  18
BRANCH   4  20
ATOM     20  C   UNL     1       7.590  -2.760  22.614  0.00  0.00    +0.204 C 
BRANCH  20  21
ATOM     21  O   UNL     1       7.913  -3.896  23.424  0.00  0.00    -0.284 OA
BRANCH  21  22
ATOM     22  P   UNL     1       6.761  -4.161  24.686  0.00  0.00    +0.483 P 
ATOM     23  O   UNL     1       6.913  -2.705  25.115  0.00  0.00    -0.227 OA
BRANCH  22  24
ATOM     24  O   UNL     1       7.918  -5.102  25.331  0.00  0.00    -0.302 OA
ATOM     25  H   UNL     1       8.363  -5.673  24.674  0.00  0.00    +0.222 HD
ENDBRANCH  22  24
BRANCH  22  26
ATOM     26  O   UNL     1       5.608  -4.425  25.950  0.00  0.00    -0.186 OA
BRANCH  26  27
ATOM     27  P   UNL     1       4.886  -5.845  25.690  0.00  0.00    +0.492 P 
ATOM     28  O   UNL     1       3.408  -6.028  25.803  0.00  0.00    -0.226 OA
BRANCH  27  29
ATOM     29  O   UNL     1       5.367  -6.282  24.230  0.00  0.00    -0.302 OA
ATOM     30  H   UNL     1       6.131  -5.718  23.983  0.00  0.00    +0.222 HD
ENDBRANCH  27  29
BRANCH  27  31
ATOM     31  O   UNL     1       5.712  -6.747  26.710  0.00  0.00    -0.186 OA
BRANCH  31  32
ATOM     32  P   UNL     1       5.886  -6.045  28.282  0.00  0.00    +0.481 P 
ATOM     33  O   UNL     1       6.041  -5.417  29.688  0.00  0.00    -0.227 OA
BRANCH  32  34
ATOM     34  O   UNL     1       7.494  -6.016  27.932  0.00  0.00    -0.302 OA
ATOM     35  H   UNL     1       8.002  -5.686  28.699  0.00  0.00    +0.222 HD
ENDBRANCH  32  34
BRANCH  32  36
ATOM     36  O   UNL     1       5.942  -7.592  28.819  0.00  0.00    -0.302 OA
ATOM     37  H   UNL     1       5.500  -8.129  28.137  0.00  0.00    +0.222 HD
ENDBRANCH  32  36
ENDBRANCH  31  32
ENDBRANCH  27  31
ENDBRANCH  26  27
ENDBRANCH  22  26
ENDBRANCH  21  22
ENDBRANCH  20  21
ENDBRANCH   4  20
TORSDOF 13
ENDMDL
MODEL 4
REMARK VINA RESULT:      -6.3      4.956      7.256
REMARK  Name = 
REMARK  13 active torsions:
REMARK  status: ('A' for Active; 'I' for Inactive)
REMARK    1  A    between atoms: N_10  and  C_11
REMARK    2  A    between atoms: C_14  and  C_16
REMARK    3  A    between atoms: C_16  and  O_17
REMARK    4  A    between atoms: O_17  and  P_18
REMARK    5  A    between atoms: P_18  and  O_19
REMARK    6  A    between atoms: P_18  and  O_21
REMARK    7  A    between atoms: O_21  and  P_22
REMARK    8  A    between atoms: P_22  and  O_23
REMARK    9  A    between atoms: P_22  and  O_25
REMARK   10  A    between atoms: O_25  and  P_26
REMARK   11  A    between atoms: P_26  and  O_27
REMARK   12  A    between atoms: P_26  and  O_28
REMARK   13  A    between atoms: C_31  and  O_33
REMARK                            x       y       z     vdW  Elec       q    Type
REMARK                         _______ _______ _______ _____ _____    ______ ____
ROOT
ATOM      1  C   UNL     1       8.283   0.242  24.492  0.00  0.00    +0.251 C 
ATOM      2  C   UNL     1       9.769  -0.105  24.350  0.00  0.00    +0.167 C 
ATOM      3  C   UNL     1       9.815  -1.624  24.330  0.00  0.00    +0.070 C 
ATOM      4  C   UNL     1       8.381  -2.069  24.592  0.00  0.00    +0.150 C 
ATOM      5  O   UNL     1       7.553  -0.963  24.193  0.00  0.00    -0.348 OA
ENDROOT
BRANCH   1  13
ATOM      6  N   UNL     1       6.926   5.463  21.777  0.00  0.00    -0.341 N 
ATOM      7  H   UNL     1       6.595   4.947  20.969  0.00  0.00    +0.144 HD
ATOM      8  H   UNL     1       7.381   6.353  21.624  0.00  0.00    +0.144 HD
ATOM      9  C   UNL     1       7.592   4.673  22.705  0.00  0.00    +0.147 A 
ATOM     10  C   UNL     1       7.458   3.290  22.760  0.00  0.00    +0.147 A 
ATOM     11  N   UNL     1       6.742   2.374  21.998  0.00  0.00    -0.231 NA
ATOM     12  C   UNL     1       6.988   1.201  22.548  0.00  0.00    +0.203 A 
ATOM     13  N   UNL     1       7.835   1.307  23.620  0.00  0.00    -0.286 N 
ATOM     14  C   UNL     1       8.169   2.630  23.759  0.00  0.00    +0.167 A 
ATOM     15  N   UNL     1       8.999   3.176  24.667  0.00  0.00    -0.216 NA
ATOM     16  C   UNL     1       9.063   4.515  24.499  0.00  0.00    +0.225 A 
ATOM     17  N   UNL     1       8.429   5.279  23.579  0.00  0.00    -0.219 NA
ENDBRANCH   1  13
BRANCH   2  18
ATOM     18  O   UNL     1      10.526   0.370  25.461  0.00  0.00    -0.387 OA
ATOM     19  H   UNL     1      11.389   0.671  25.125  0.00  0.00    +0.210 HD
ENDBRANCH   2  18
BRANCH   4  20
ATOM     20  C   UNL     1       8.143  -2.408  26.068  0.00  0.00    +0.204 C 
BRANCH  20  21
ATOM     21  O   UNL     1       8.646  -3.715  26.367  0.00  0.00    -0.284 OA
BRANCH  21  22
ATOM     22  P   UNL     1       7.422  -4.933  26.282  0.00  0.00    +0.483 P 
ATOM     23  O   UNL     1       7.092  -4.688  27.751  0.00  0.00    -0.227 OA
BRANCH  22  24
ATOM     24  O   UNL     1       8.673  -5.956  26.109  0.00  0.00    -0.302 OA
ATOM     25  H   UNL     1       8.430  -6.892  26.243  0.00  0.00    +0.222 HD
ENDBRANCH  22  24
BRANCH  22  26
ATOM     26  O   UNL     1       6.197  -6.153  26.199  0.00  0.00    -0.186 OA
BRANCH  26  27
ATOM     27  P   UNL     1       5.317  -5.899  24.868  0.00  0.00    +0.492 P 
ATOM     28  O   UNL     1       4.574  -6.993  24.175  0.00  0.00    -0.226 OA
BRANCH  27  29
ATOM     29  O   UNL     1       4.299  -4.736  25.274  0.00  0.00    -0.302 OA
ATOM     30  H   UNL     1       3.970  -4.925  26.179  0.00  0.00    +0.222 HD
ENDBRANCH  27  29
BRANCH  27  31
ATOM     31  O   UNL     1       6.424  -5.210  23.953  0.00  0.00    -0.186 OA
BRANCH  31  32
ATOM     32  P   UNL     1       6.160  -5.426  22.256  0.00  0.00    +0.481 P 
ATOM     33  O   UNL     1       5.923  -5.619  20.739  0.00  0.00    -0.227 OA
BRANCH  32  34
ATOM     34  O   UNL     1       7.106  -4.090  22.087  0.00  0.00    -0.302 OA
ATOM     35  H   UNL     1       7.449  -4.031  21.173  0.00  0.00    +0.222 HD
ENDBRANCH  32  34
BRANCH  32  36
ATOM     36  O   UNL     1       4.801  -4.540  22.492  0.00  0.00    -0.302 OA
ATOM     37  H   UNL     1       5.052  -3.819  23.098  0.00  0.00    +0.222 HD
ENDBRANCH  32  36
ENDBRANCH  31  32
ENDBRANCH  27  31
ENDBRANCH  26  27
ENDBRANCH  22  26
ENDBRANCH  21  22
ENDBRANCH  20  21
ENDBRANCH   4  20
TORSDOF 13
ENDMDL
MODEL 5
REMARK VINA RESULT:      -6.3      4.686      6.710
REMARK  Name = 
REMARK  13 active torsions:
REMARK  status: ('A' for Active; 'I' for Inactive)
REMARK    1  A    between atoms: N_10  and  C_11
REMARK    2  A    between atoms: C_14  and  C_16
REMARK    3  A    between atoms: C_16  and  O_17
REMARK    4  A    between atoms: O_17  and  P_18
REMARK    5  A    between atoms: P_18  and  O_19
REMARK    6  A    between atoms: P_18  and  O_21
REMARK    7  A    between atoms: O_21  and  P_22
REMARK    8  A    between atoms: P_22  and  O_23
REMARK    9  A    between atoms: P_22  and  O_25
REMARK   10  A    between atoms: O_25  and  P_26
REMARK   11  A    between atoms: P_26  and  O_27
REMARK   12  A    between atoms: P_26  and  O_28
REMARK   13  A    between atoms: C_31  and  O_33
REMARK                            x       y       z     vdW  Elec       q    Type
REMARK                         _______ _______ _______ _____ _____    ______ ____
ROOT
ATOM      1  C   UNL     1       7.964  -2.703  24.268  0.00  0.00    +0.251 C 
ATOM      2  C   UNL     1       6.821  -2.162  25.131  0.00  0.00    +0.167 C 
ATOM      3  C   UNL     1       7.066  -2.743  26.514  0.00  0.00    +0.070 C 
ATOM      4  C   UNL     1       8.251  -3.686  26.343  0.00  0.00    +0.150 C 
ATOM      5  O   UNL     1       8.953  -3.220  25.178  0.00  0.00    -0.348 OA
ENDROOT
BRANCH   1  13
ATOM      6  N   UNL     1      10.219   2.240  21.631  0.00  0.00    -0.341 N 
ATOM      7  H   UNL     1      10.574   1.665  20.875  0.00  0.00    +0.144 HD
ATOM      8  H   UNL     1      10.762   3.044  21.916  0.00  0.00    +0.144 HD
ATOM      9  C   UNL     1       9.740   1.507  22.708  0.00  0.00    +0.147 A 
ATOM     10  C   UNL     1       9.378   0.167  22.613  0.00  0.00    +0.147 A 
ATOM     11  N   UNL     1       9.400  -0.752  21.571  0.00  0.00    -0.231 NA
ATOM     12  C   UNL     1       8.907  -1.863  22.080  0.00  0.00    +0.203 A 
ATOM     13  N   UNL     1       8.575  -1.716  23.402  0.00  0.00    -0.286 N 
ATOM     14  C   UNL     1       8.890  -0.434  23.772  0.00  0.00    +0.167 A 
ATOM     15  N   UNL     1       8.754   0.127  24.988  0.00  0.00    -0.216 NA
ATOM     16  C   UNL     1       9.157   1.417  24.958  0.00  0.00    +0.225 A 
ATOM     17  N   UNL     1       9.645   2.122  23.911  0.00  0.00    -0.219 NA
ENDBRANCH   1  13
BRANCH   2  18
ATOM     18  O   UNL     1       5.551  -2.606  24.658  0.00  0.00    -0.387 OA
ATOM     19  H   UNL     1       5.004  -2.822  25.434  0.00  0.00    +0.210 HD
ENDBRANCH   2  18
BRANCH   4  20
ATOM     20  C   UNL     1       7.808  -5.142  26.153  0.00  0.00    +0.204 C 
BRANCH  20  21
ATOM     21  O   UNL     1       6.718  -5.450  27.029  0.00  0.00    -0.284 OA
BRANCH  21  22
ATOM     22  P   UNL     1       5.309  -5.978  26.176  0.00  0.00    +0.483 P 
ATOM     23  O   UNL     1       4.544  -4.775  26.720  0.00  0.00    -0.227 OA
BRANCH  22  24
ATOM     24  O   UNL     1       5.323  -7.212  27.234  0.00  0.00    -0.302 OA
ATOM     25  H   UNL     1       5.693  -6.971  28.105  0.00  0.00    +0.222 HD
ENDBRANCH  22  24
BRANCH  22  26
ATOM     26  O   UNL     1       3.899  -6.505  25.323  0.00  0.00    -0.186 OA
BRANCH  26  27
ATOM     27  P   UNL     1       3.823  -5.704  23.923  0.00  0.00    +0.492 P 
ATOM     28  O   UNL     1       3.020  -6.190  22.762  0.00  0.00    -0.226 OA
BRANCH  27  29
ATOM     29  O   UNL     1       3.341  -4.234  24.325  0.00  0.00    -0.302 OA
ATOM     30  H   UNL     1       2.860  -4.297  25.179  0.00  0.00    +0.222 HD
ENDBRANCH  27  29
BRANCH  27  31
ATOM     31  O   UNL     1       5.379  -5.582  23.608  0.00  0.00    -0.186 OA
BRANCH  31  32
ATOM     32  P   UNL     1       5.751  -5.581  21.918  0.00  0.00    +0.481 P 
ATOM     33  O   UNL     1       6.084  -5.580  20.406  0.00  0.00    -0.227 OA
BRANCH  32  34
ATOM     34  O   UNL     1       7.268  -5.165  22.401  0.00  0.00    -0.302 OA
ATOM     35  H   UNL     1       7.919  -5.395  21.709  0.00  0.00    +0.222 HD
ENDBRANCH  32  34
BRANCH  32  36
ATOM     36  O   UNL     1       5.224  -4.029  21.940  0.00  0.00    -0.302 OA
ATOM     37  H   UNL     1       4.536  -3.970  21.253  0.00  0.00    +0.222 HD
ENDBRANCH  32  36
ENDBRANCH  31  32
ENDBRANCH  27  31
ENDBRANCH  26  27
ENDBRANCH  22  26
ENDBRANCH  21  22
ENDBRANCH  20  21
ENDBRANCH   4  20
TORSDOF 13
ENDMDL
MODEL 6
REMARK VINA RESULT:      -6.3      5.036      7.433
REMARK  Name = 
REMARK  13 active torsions:
REMARK  status: ('A' for Active; 'I' for Inactive)
REMARK    1  A    between atoms: N_10  and  C_11
REMARK    2  A    between atoms: C_14  and  C_16
REMARK    3  A    between atoms: C_16  and  O_17
REMARK    4  A    between atoms: O_17  and  P_18
REMARK    5  A    between atoms: P_18  and  O_19
REMARK    6  A    between atoms: P_18  and  O_21
REMARK    7  A    between atoms: O_21  and  P_22
REMARK    8  A    between atoms: P_22  and  O_23
REMARK    9  A    between atoms: P_22  and  O_25
REMARK   10  A    between atoms: O_25  and  P_26
REMARK   11  A    between atoms: P_26  and  O_27
REMARK   12  A    between atoms: P_26  and  O_28
REMARK   13  A    between atoms: C_31  and  O_33
REMARK                            x       y       z     vdW  Elec       q    Type
REMARK                         _______ _______ _______ _____ _____    ______ ____
ROOT
ATOM      1  C   UNL     1       7.597  -2.801  23.149  0.00  0.00    +0.251 C 
ATOM      2  C   UNL     1       8.130  -3.858  24.121  0.00  0.00    +0.167 C 
ATOM      3  C   UNL     1       7.771  -5.191  23.485  0.00  0.00    +0.070 C 
ATOM      4  C   UNL     1       6.940  -4.834  22.258  0.00  0.00    +0.150 C 
ATOM      5  O   UNL     1       7.314  -3.488  21.916  0.00  0.00    -0.348 OA
ENDROOT
BRANCH   1  13
ATOM      6  N   UNL     1      10.330   2.411  21.791  0.00  0.00    -0.341 N 
ATOM      7  H   UNL     1      11.214   2.016  22.093  0.00  0.00    +0.144 HD
ATOM      8  H   UNL     1      10.164   3.394  21.958  0.00  0.00    +0.144 HD
ATOM      9  C   UNL     1       9.233   1.621  22.108  0.00  0.00    +0.147 A 
ATOM     10  C   UNL     1       9.334   0.265  22.404  0.00  0.00    +0.147 A 
ATOM     11  N   UNL     1      10.410  -0.610  22.497  0.00  0.00    -0.231 NA
ATOM     12  C   UNL     1       9.879  -1.781  22.785  0.00  0.00    +0.203 A 
ATOM     13  N   UNL     1       8.515  -1.710  22.894  0.00  0.00    -0.286 N 
ATOM     14  C   UNL     1       8.146  -0.407  22.680  0.00  0.00    +0.167 A 
ATOM     15  N   UNL     1       6.904   0.112  22.720  0.00  0.00    -0.216 NA
ATOM     16  C   UNL     1       6.939   1.434  22.439  0.00  0.00    +0.225 A 
ATOM     17  N   UNL     1       8.013   2.205  22.153  0.00  0.00    -0.219 NA
ENDBRANCH   1  13
BRANCH   2  18
ATOM     18  O   UNL     1       7.497  -3.764  25.396  0.00  0.00    -0.387 OA
ATOM     19  H   UNL     1       7.895  -3.011  25.869  0.00  0.00    +0.210 HD
ENDBRANCH   2  18
BRANCH   4  20
ATOM     20  C   UNL     1       5.435  -4.916  22.535  0.00  0.00    +0.204 C 
BRANCH  20  21
ATOM     21  O   UNL     1       5.097  -6.196  23.080  0.00  0.00    -0.284 OA
BRANCH  21  22
ATOM     22  P   UNL     1       4.165  -6.075  24.532  0.00  0.00    +0.483 P 
ATOM     23  O   UNL     1       4.334  -7.575  24.752  0.00  0.00    -0.227 OA
BRANCH  22  24
ATOM     24  O   UNL     1       2.931  -5.748  23.526  0.00  0.00    -0.302 OA
ATOM     25  H   UNL     1       2.483  -4.903  23.725  0.00  0.00    +0.222 HD
ENDBRANCH  22  24
BRANCH  22  26
ATOM     26  O   UNL     1       3.233  -5.954  25.985  0.00  0.00    -0.186 OA
BRANCH  26  27
ATOM     27  P   UNL     1       3.857  -4.774  26.893  0.00  0.00    +0.492 P 
ATOM     28  O   UNL     1       3.601  -3.329  26.620  0.00  0.00    -0.226 OA
BRANCH  27  29
ATOM     29  O   UNL     1       3.397  -5.124  28.383  0.00  0.00    -0.302 OA
ATOM     30  H   UNL     1       3.057  -6.045  28.385  0.00  0.00    +0.222 HD
ENDBRANCH  27  29
BRANCH  27  31
ATOM     31  O   UNL     1       5.398  -5.168  26.808  0.00  0.00    -0.186 OA
BRANCH  31  32
ATOM     32  P   UNL     1       6.024  -5.858  28.267  0.00  0.00    +0.481 P 
ATOM     33  O   UNL     1       6.583  -6.475  29.572  0.00  0.00    -0.227 OA
BRANCH  32  34
ATOM     34  O   UNL     1       7.408  -6.067  27.403  0.00  0.00    -0.302 OA
ATOM     35  H   UNL     1       8.180  -6.103  28.001  0.00  0.00    +0.222 HD
ENDBRANCH  32  34
BRANCH  32  36
ATOM     36  O   UNL     1       5.370  -7.260  27.726  0.00  0.00    -0.302 OA
ATOM     37  H   UNL     1       5.091  -7.750  28.520  0.00  0.00    +0.222 HD
ENDBRANCH  32  36
ENDBRANCH  31  32
ENDBRANCH  27  31
ENDBRANCH  26  27
ENDBRANCH  22  26
ENDBRANCH  21  22
ENDBRANCH  20  21
ENDBRANCH   4  20
TORSDOF 13
ENDMDL
MODEL 7
REMARK VINA RESULT:      -6.3      5.339      7.860
REMARK  Name = 
REMARK  13 active torsions:
REMARK  status: ('A' for Active; 'I' for Inactive)
REMARK    1  A    between atoms: N_10  and  C_11
REMARK    2  A    between atoms: C_14  and  C_16
REMARK    3  A    between atoms: C_16  and  O_17
REMARK    4  A    between atoms: O_17  and  P_18
REMARK    5  A    between atoms: P_18  and  O_19
REMARK    6  A    between atoms: P_18  and  O_21
REMARK    7  A    between atoms: O_21  and  P_22
REMARK    8  A    between atoms: P_22  and  O_23
REMARK    9  A    between atoms: P_22  and  O_25
REMARK   10  A    between atoms: O_25  and  P_26
REMARK   11  A    between atoms: P_26  and  O_27
REMARK   12  A    between atoms: P_26  and  O_28
REMARK   13  A    between atoms: C_31  and  O_33
REMARK                            x       y       z     vdW  Elec       q    Type
REMARK                         _______ _______ _______ _____ _____    ______ ____
ROOT
ATOM      1  C   UNL     1       8.533  -3.199  24.725  0.00  0.00    +0.251 C 
ATOM      2  C   UNL     1       8.681  -4.639  24.224  0.00  0.00    +0.167 C 
ATOM      3  C   UNL     1       7.471  -5.373  24.779  0.00  0.00    +0.070 C 
ATOM      4  C   UNL     1       6.767  -4.358  25.672  0.00  0.00    +0.150 C 
ATOM      5  O   UNL     1       7.176  -3.067  25.189  0.00  0.00    -0.348 OA
ENDROOT
BRANCH   1  13
ATOM      6  N   UNL     1       9.978   1.749  21.578  0.00  0.00    -0.341 N 
ATOM      7  H   UNL     1       9.845   1.230  20.717  0.00  0.00    +0.144 HD
ATOM      8  H   UNL     1      10.703   2.453  21.605  0.00  0.00    +0.144 HD
ATOM      9  C   UNL     1       9.962   0.951  22.714  0.00  0.00    +0.147 A 
ATOM     10  C   UNL     1       9.404  -0.323  22.739  0.00  0.00    +0.147 A 
ATOM     11  N   UNL     1       8.796  -1.113  21.771  0.00  0.00    -0.231 NA
ATOM     12  C   UNL     1       8.443  -2.217  22.399  0.00  0.00    +0.203 A 
ATOM     13  N   UNL     1       8.800  -2.189  23.722  0.00  0.00    -0.286 N 
ATOM     14  C   UNL     1       9.439  -0.998  23.957  0.00  0.00    +0.167 A 
ATOM     15  N   UNL     1       9.978  -0.570  25.114  0.00  0.00    -0.216 NA
ATOM     16  C   UNL     1      10.504   0.665  24.957  0.00  0.00    +0.225 A 
ATOM     17  N   UNL     1      10.538   1.430  23.841  0.00  0.00    -0.219 NA
ENDBRANCH   1  13
BRANCH   2  18
ATOM     18  O   UNL     1       9.868  -5.249  24.728  0.00  0.00    -0.387 OA
ATOM     19  H   UNL     1       9.792  -5.288  25.699  0.00  0.00    +0.210 HD
ENDBRANCH   2  18
BRANCH   4  20
ATOM     20  C   UNL     1       7.151  -4.522  27.147  0.00  0.00    +0.204 C 
BRANCH  20  21
ATOM     21  O   UNL     1       6.901  -5.863  27.582  0.00  0.00    -0.284 OA
BRANCH  21  22
ATOM     22  P   UNL     1       5.214  -6.196  27.769  0.00  0.00    +0.483 P 
ATOM     23  O   UNL     1       5.132  -5.118  28.844  0.00  0.00    -0.227 OA
BRANCH  22  24
ATOM     24  O   UNL     1       5.723  -7.616  28.376  0.00  0.00    -0.302 OA
ATOM     25  H   UNL     1       5.440  -7.766  29.298  0.00  0.00    +0.222 HD
ENDBRANCH  22  24
BRANCH  22  26
ATOM     26  O   UNL     1       3.526  -6.530  27.956  0.00  0.00    -0.186 OA
BRANCH  26  27
ATOM     27  P   UNL     1       2.723  -5.756  26.789  0.00  0.00    +0.492 P 
ATOM     28  O   UNL     1       1.261  -5.950  26.555  0.00  0.00    -0.226 OA
BRANCH  27  29
ATOM     29  O   UNL     1       3.019  -4.208  27.053  0.00  0.00    -0.302 OA
ATOM     30  H   UNL     1       2.729  -3.997  27.967  0.00  0.00    +0.222 HD
ENDBRANCH  27  29
BRANCH  27  31
ATOM     31  O   UNL     1       3.621  -6.165  25.539  0.00  0.00    -0.186 OA
BRANCH  31  32
ATOM     32  P   UNL     1       2.844  -7.260  24.448  0.00  0.00    +0.481 P 
ATOM     33  O   UNL     1       2.148  -8.239  23.472  0.00  0.00    -0.227 OA
BRANCH  32  34
ATOM     34  O   UNL     1       3.059  -8.373  25.641  0.00  0.00    -0.302 OA
ATOM     35  H   UNL     1       3.116  -7.931  26.511  0.00  0.00    +0.222 HD
ENDBRANCH  32  34
BRANCH  32  36
ATOM     36  O   UNL     1       4.344  -7.501  23.833  0.00  0.00    -0.302 OA
ATOM     37  H   UNL     1       4.426  -8.462  23.694  0.00  0.00    +0.222 HD
ENDBRANCH  32  36
ENDBRANCH  31  32
ENDBRANCH  27  31
ENDBRANCH  26  27
ENDBRANCH  22  26
ENDBRANCH  21  22
ENDBRANCH  20  21
ENDBRANCH   4  20
TORSDOF 13
ENDMDL
MODEL 8
REMARK VINA RESULT:      -6.3      5.115      7.855
REMARK  Name = 
REMARK  13 active torsions:
REMARK  status: ('A' for Active; 'I' for Inactive)
REMARK    1  A    between atoms: N_10  and  C_11
REMARK    2  A    between atoms: C_14  and  C_16
REMARK    3  A    between atoms: C_16  and  O_17
REMARK    4  A    between atoms: O_17  and  P_18
REMARK    5  A    between atoms: P_18  and  O_19
REMARK    6  A    between atoms: P_18  and  O_21
REMARK    7  A    between atoms: O_21  and  P_22
REMARK    8  A    between atoms: P_22  and  O_23
REMARK    9  A    between atoms: P_22  and  O_25
REMARK   10  A    between atoms: O_25  and  P_26
REMARK   11  A    between atoms: P_26  and  O_27
REMARK   12  A    between atoms: P_26  and  O_28
REMARK   13  A    between atoms: C_31  and  O_33
REMARK                            x       y       z     vdW  Elec       q    Type
REMARK                         _______ _______ _______ _____ _____    ______ ____
ROOT
ATOM      1  C   UNL     1       8.536  -0.049  23.726  0.00  0.00    +0.251 C 
ATOM      2  C   UNL     1       9.544  -0.909  24.494  0.00  0.00    +0.167 C 
ATOM      3  C   UNL     1       9.739  -2.146  23.633  0.00  0.00    +0.070 C 
ATOM      4  C   UNL     1       8.742  -1.995  22.490  0.00  0.00    +0.150 C 
ATOM      5  O   UNL     1       8.476  -0.585  22.391  0.00  0.00    -0.348 OA
ENDROOT
BRANCH   1  13
ATOM      6  N   UNL     1       8.798   5.924  22.874  0.00  0.00    -0.341 N 
ATOM      7  H   UNL     1       9.655   5.956  23.416  0.00  0.00    +0.144 HD
ATOM      8  H   UNL     1       8.161   6.706  22.941  0.00  0.00    +0.144 HD
ATOM      9  C   UNL     1       8.150   4.698  22.930  0.00  0.00    +0.147 A 
ATOM     10  C   UNL     1       8.787   3.520  23.310  0.00  0.00    +0.147 A 
ATOM     11  N   UNL     1      10.081   3.231  23.726  0.00  0.00    -0.231 NA
ATOM     12  C   UNL     1      10.097   1.928  23.923  0.00  0.00    +0.203 A 
ATOM     13  N   UNL     1       8.877   1.357  23.666  0.00  0.00    -0.286 N 
ATOM     14  C   UNL     1       8.017   2.360  23.298  0.00  0.00    +0.167 A 
ATOM     15  N   UNL     1       6.712   2.248  22.985  0.00  0.00    -0.216 NA
ATOM     16  C   UNL     1       6.203   3.456  22.656  0.00  0.00    +0.225 A 
ATOM     17  N   UNL     1       6.833   4.654  22.624  0.00  0.00    -0.219 NA
ENDBRANCH   1  13
BRANCH   2  18
ATOM     18  O   UNL     1       9.034  -1.303  25.766  0.00  0.00    -0.387 OA
ATOM     19  H   UNL     1       8.085  -1.498  25.658  0.00  0.00    +0.210 HD
ENDBRANCH   2  18
BRANCH   4  20
ATOM     20  C   UNL     1       7.442  -2.765  22.752  0.00  0.00    +0.204 C 
BRANCH  20  21
ATOM     21  O   UNL     1       7.693  -4.175  22.768  0.00  0.00    -0.284 OA
BRANCH  21  22
ATOM     22  P   UNL     1       7.089  -4.940  24.197  0.00  0.00    +0.483 P 
ATOM     23  O   UNL     1       6.167  -5.797  23.335  0.00  0.00    -0.227 OA
BRANCH  22  24
ATOM     24  O   UNL     1       6.438  -3.484  24.512  0.00  0.00    -0.302 OA
ATOM     25  H   UNL     1       6.870  -3.020  25.254  0.00  0.00    +0.222 HD
ENDBRANCH  22  24
BRANCH  22  26
ATOM     26  O   UNL     1       6.484  -5.705  25.626  0.00  0.00    -0.186 OA
BRANCH  26  27
ATOM     27  P   UNL     1       6.968  -4.847  26.906  0.00  0.00    +0.492 P 
ATOM     28  O   UNL     1       8.068  -3.840  26.828  0.00  0.00    -0.226 OA
BRANCH  27  29
ATOM     29  O   UNL     1       5.639  -4.143  27.446  0.00  0.00    -0.302 OA
ATOM     30  H   UNL     1       5.807  -3.846  28.366  0.00  0.00    +0.222 HD
ENDBRANCH  27  29
BRANCH  27  31
ATOM     31  O   UNL     1       7.273  -6.038  27.918  0.00  0.00    -0.186 OA
BRANCH  31  32
ATOM     32  P   UNL     1       5.945  -6.428  28.958  0.00  0.00    +0.481 P 
ATOM     33  O   UNL     1       4.758  -6.777  29.887  0.00  0.00    -0.227 OA
BRANCH  32  34
ATOM     34  O   UNL     1       6.886  -7.687  29.445  0.00  0.00    -0.302 OA
ATOM     35  H   UNL     1       6.710  -7.899  30.383  0.00  0.00    +0.222 HD
ENDBRANCH  32  34
BRANCH  32  36
ATOM     36  O   UNL     1       5.355  -7.254  27.670  0.00  0.00    -0.302 OA
ATOM     37  H   UNL     1       5.391  -8.196  27.917  0.00  0.00    +0.222 HD
ENDBRANCH  32  36
ENDBRANCH  31  32
ENDBRANCH  27  31
ENDBRANCH  26  27
ENDBRANCH  22  26
ENDBRANCH  21  22
ENDBRANCH  20  21
ENDBRANCH   4  20
TORSDOF 13
ENDMDL
MODEL 9
REMARK VINA RESULT:      -6.2      2.451      4.481
REMARK  Name = 
REMARK  13 active torsions:
REMARK  status: ('A' for Active; 'I' for Inactive)
REMARK    1  A    between atoms: N_10  and  C_11
REMARK    2  A    between atoms: C_14  and  C_16
REMARK    3  A    between atoms: C_16  and  O_17
REMARK    4  A    between atoms: O_17  and  P_18
REMARK    5  A    between atoms: P_18  and  O_19
REMARK    6  A    between atoms: P_18  and  O_21
REMARK    7  A    between atoms: O_21  and  P_22
REMARK    8  A    between atoms: P_22  and  O_23
REMARK    9  A    between atoms: P_22  and  O_25
REMARK   10  A    between atoms: O_25  and  P_26
REMARK   11  A    between atoms: P_26  and  O_27
REMARK   12  A    between atoms: P_26  and  O_28
REMARK   13  A    between atoms: C_31  and  O_33
REMARK                            x       y       z     vdW  Elec       q    Type
REMARK                         _______ _______ _______ _____ _____    ______ ____
ROOT
ATOM      1  C   UNL     1       8.717  -2.491  24.342  0.00  0.00    +0.251 C 
ATOM      2  C   UNL     1       7.816  -2.331  23.114  0.00  0.00    +0.167 C 
ATOM      3  C   UNL     1       8.763  -1.995  21.975  0.00  0.00    +0.070 C 
ATOM      4  C   UNL     1      10.133  -1.850  22.627  0.00  0.00    +0.150 C 
ATOM      5  O   UNL     1      10.064  -2.610  23.846  0.00  0.00    -0.348 OA
ENDROOT
BRANCH   1  13
ATOM      6  N   UNL     1       6.601  -6.450  28.382  0.00  0.00    -0.341 N 
ATOM      7  H   UNL     1       7.115  -7.189  27.915  0.00  0.00    +0.144 HD
ATOM      8  H   UNL     1       5.704  -6.677  28.791  0.00  0.00    +0.144 HD
ATOM      9  C   UNL     1       6.581  -5.256  27.675  0.00  0.00    +0.147 A 
ATOM     10  C   UNL     1       7.499  -4.951  26.674  0.00  0.00    +0.147 A 
ATOM     11  N   UNL     1       8.562  -5.650  26.115  0.00  0.00    -0.231 NA
ATOM     12  C   UNL     1       9.081  -4.831  25.222  0.00  0.00    +0.203 A 
ATOM     13  N   UNL     1       8.404  -3.641  25.165  0.00  0.00    -0.286 N 
ATOM     14  C   UNL     1       7.372  -3.704  26.067  0.00  0.00    +0.167 A 
ATOM     15  N   UNL     1       6.442  -2.764  26.317  0.00  0.00    -0.216 NA
ATOM     16  C   UNL     1       5.599  -3.184  27.286  0.00  0.00    +0.225 A 
ATOM     17  N   UNL     1       5.608  -4.359  27.958  0.00  0.00    -0.219 NA
ENDBRANCH   1  13
BRANCH   2  18
ATOM     18  O   UNL     1       6.889  -1.260  23.281  0.00  0.00    -0.387 OA
ATOM     19  H   UNL     1       7.334  -0.437  23.005  0.00  0.00    +0.210 HD
ENDBRANCH   2  18
BRANCH   4  20
ATOM     20  C   UNL     1      10.477  -0.387  22.929  0.00  0.00    +0.204 C 
BRANCH  20  21
ATOM     21  O   UNL     1      10.068   0.455  21.845  0.00  0.00    -0.284 OA
BRANCH  21  22
ATOM     22  P   UNL     1       9.018   1.731  22.357  0.00  0.00    +0.483 P 
ATOM     23  O   UNL     1       8.138   1.480  21.136  0.00  0.00    -0.227 OA
BRANCH  22  24
ATOM     24  O   UNL     1      10.277   2.696  22.003  0.00  0.00    -0.302 OA
ATOM     25  H   UNL     1      10.916   2.290  21.386  0.00  0.00    +0.222 HD
ENDBRANCH  22  24
BRANCH  22  26
ATOM     26  O   UNL     1       7.967   3.008  22.867  0.00  0.00    -0.186 OA
BRANCH  26  27
ATOM     27  P   UNL     1       6.809   2.372  23.795  0.00  0.00    +0.492 P 
ATOM     28  O   UNL     1       5.892   3.210  24.623  0.00  0.00    -0.226 OA
BRANCH  27  29
ATOM     29  O   UNL     1       5.949   1.464  22.801  0.00  0.00    -0.302 OA
ATOM     30  H   UNL     1       6.324   0.557  22.819  0.00  0.00    +0.222 HD
ENDBRANCH  27  29
BRANCH  27  31
ATOM     31  O   UNL     1       7.690   1.363  24.656  0.00  0.00    -0.186 OA
BRANCH  31  32
ATOM     32  P   UNL     1       7.105   1.124  26.267  0.00  0.00    +0.481 P 
ATOM     33  O   UNL     1       6.581   0.911  27.708  0.00  0.00    -0.227 OA
BRANCH  32  34
ATOM     34  O   UNL     1       8.190  -0.112  26.322  0.00  0.00    -0.302 OA
ATOM     35  H   UNL     1       8.679  -0.097  27.168  0.00  0.00    +0.222 HD
ENDBRANCH  32  34
BRANCH  32  36
ATOM     36  O   UNL     1       5.950   0.195  25.566  0.00  0.00    -0.302 OA
ATOM     37  H   UNL     1       6.408  -0.335  24.889  0.00  0.00    +0.222 HD
ENDBRANCH  32  36
ENDBRANCH  31  32
ENDBRANCH  27  31
ENDBRANCH  26  27
ENDBRANCH  22  26
ENDBRANCH  21  22
ENDBRANCH  20  21
ENDBRANCH   4  20
TORSDOF 13
ENDMDL
