MODEL 1
REMARK VINA RESULT:      -4.8      0.000      0.000
REMARK  Name = 
REMARK  9 active torsions:
REMARK  status: ('A' for Active; 'I' for Inactive)
REMARK    1  A    between atoms: C_1  and  C_2
REMARK    2  A    between atoms: C_2  and  C_3
REMARK    3  A    between atoms: C_3  and  N_4
REMARK    4  A    between atoms: C_5  and  C_7
REMARK    5  A    between atoms: C_7  and  O_9
REMARK    6  A    between atoms: C_7  and  C_10
REMARK    7  A    between atoms: C_10  and  O_12
REMARK    8  A    between atoms: C_10  and  C_13
REMARK    9  A    between atoms: C_13  and  O_14
REMARK                            x       y       z     vdW  Elec       q    Type
REMARK                         _______ _______ _______ _____ _____    ______ ____
ROOT
ATOM      1  C   UNL     1       7.980  -4.023  24.103  0.00  0.00    +0.239 C 
ENDROOT
BRANCH   1   4
ATOM      2  N   UNL     1       9.301  -2.405  22.825  0.00  0.00    -0.313 N 
ATOM      3  H   UNL     1       8.888  -2.838  22.007  0.00  0.00    +0.149 HD
ATOM      4  C   UNL     1       8.863  -2.764  24.087  0.00  0.00    +0.245 C 
ATOM      5  O   UNL     1       9.150  -2.135  25.103  0.00  0.00    -0.273 OA
BRANCH   2   6
ATOM      6  C   UNL     1      10.187  -1.274  22.621  0.00  0.00    +0.104 C 
BRANCH   6   8
ATOM      7  C   UNL     1       9.924   1.167  21.980  0.00  0.00    +0.005 C 
ATOM      8  C   UNL     1       9.637  -0.278  21.601  0.00  0.00    +0.015 C 
ENDBRANCH   6   8
ENDBRANCH   2   6
ENDBRANCH   1   4
BRANCH   1   9
ATOM      9  O   UNL     1       7.630  -4.345  22.758  0.00  0.00    -0.379 OA
ATOM     10  H   UNL     1       8.370  -4.818  22.343  0.00  0.00    +0.211 HD
ENDBRANCH   1   9
BRANCH   1  11
ATOM     11  C   UNL     1       8.762  -5.166  24.764  0.00  0.00    +0.260 C 
BRANCH  11  12
ATOM     12  C   UNL     1       8.411  -5.308  26.248  0.00  0.00    +0.337 C 
ATOM     13  O   UNL     1       7.448  -5.901  26.710  0.00  0.00    -0.248 OA
BRANCH  12  14
ATOM     14  O   UNL     1       9.344  -4.706  27.039  0.00  0.00    -0.479 OA
ATOM     15  H   UNL     1       9.486  -5.304  27.813  0.00  0.00    +0.295 HD
ENDBRANCH  12  14
ENDBRANCH  11  12
BRANCH  11  16
ATOM     16  O   UNL     1      10.191  -4.906  24.714  0.00  0.00    -0.378 OA
ATOM     17  H   UNL     1      10.608  -5.765  24.953  0.00  0.00    +0.211 HD
ENDBRANCH  11  16
ENDBRANCH   1  11
TORSDOF 8
ENDMDL
MODEL 2
REMARK VINA RESULT:      -4.7      2.814      5.711
REMARK  Name = 
REMARK  9 active torsions:
REMARK  status: ('A' for Active; 'I' for Inactive)
REMARK    1  A    between atoms: C_1  and  C_2
REMARK    2  A    between atoms: C_2  and  C_3
REMARK    3  A    between atoms: C_3  and  N_4
REMARK    4  A    between atoms: C_5  and  C_7
REMARK    5  A    between atoms: C_7  and  O_9
REMARK    6  A    between atoms: C_7  and  C_10
REMARK    7  A    between atoms: C_10  and  O_12
REMARK    8  A    between atoms: C_10  and  C_13
REMARK    9  A    between atoms: C_13  and  O_14
REMARK                            x       y       z     vdW  Elec       q    Type
REMARK                         _______ _______ _______ _____ _____    ______ ____
ROOT
ATOM      1  C   UNL     1       9.491  -0.595  23.619  0.00  0.00    +0.239 C 
ENDROOT
BRANCH   1   4
ATOM      2  N   UNL     1       8.086  -2.591  23.414  0.00  0.00    -0.313 N 
ATOM      3  H   UNL     1       7.354  -1.948  23.140  0.00  0.00    +0.149 HD
ATOM      4  C   UNL     1       9.379  -2.129  23.585  0.00  0.00    +0.245 C 
ATOM      5  O   UNL     1      10.351  -2.873  23.698  0.00  0.00    -0.273 OA
BRANCH   2   6
ATOM      6  C   UNL     1       7.781  -4.010  23.411  0.00  0.00    +0.104 C 
BRANCH   6   8
ATOM      7  C   UNL     1       7.122  -5.970  21.941  0.00  0.00    +0.005 C 
ATOM      8  C   UNL     1       7.109  -4.459  22.114  0.00  0.00    +0.015 C 
ENDBRANCH   6   8
ENDBRANCH   2   6
ENDBRANCH   1   4
BRANCH   1   9
ATOM      9  O   UNL     1      10.360  -0.230  24.689  0.00  0.00    -0.379 OA
ATOM     10  H   UNL     1      10.024   0.580  25.107  0.00  0.00    +0.211 HD
ENDBRANCH   1   9
BRANCH   1  11
ATOM     11  C   UNL     1      10.035  -0.111  22.269  0.00  0.00    +0.260 C 
BRANCH  11  12
ATOM     12  C   UNL     1       9.306   1.144  21.782  0.00  0.00    +0.337 C 
ATOM     13  O   UNL     1       8.100   1.272  21.641  0.00  0.00    -0.248 OA
BRANCH  12  14
ATOM     14  O   UNL     1      10.179   2.164  21.542  0.00  0.00    -0.479 OA
ATOM     15  H   UNL     1       9.853   2.942  22.056  0.00  0.00    +0.295 HD
ENDBRANCH  12  14
ENDBRANCH  11  12
BRANCH  11  16
ATOM     16  O   UNL     1       9.829  -1.118  21.241  0.00  0.00    -0.378 OA
ATOM     17  H   UNL     1      10.697  -1.185  20.782  0.00  0.00    +0.211 HD
ENDBRANCH  11  16
ENDBRANCH   1  11
TORSDOF 8
ENDMDL
MODEL 3
REMARK VINA RESULT:      -4.7      2.616      3.556
REMARK  Name = 
REMARK  9 active torsions:
REMARK  status: ('A' for Active; 'I' for Inactive)
REMARK    1  A    between atoms: C_1  and  C_2
REMARK    2  A    between atoms: C_2  and  C_3
REMARK    3  A    between atoms: C_3  and  N_4
REMARK    4  A    between atoms: C_5  and  C_7
REMARK    5  A    between atoms: C_7  and  O_9
REMARK    6  A    between atoms: C_7  and  C_10
REMARK    7  A    between atoms: C_10  and  O_12
REMARK    8  A    between atoms: C_10  and  C_13
REMARK    9  A    between atoms: C_13  and  O_14
REMARK                            x       y       z     vdW  Elec       q    Type
REMARK                         _______ _______ _______ _____ _____    ______ ____
ROOT
ATOM      1  C   UNL     1       9.096  -5.312  25.347  0.00  0.00    +0.239 C 
ENDROOT
BRANCH   1   4
ATOM      2  N   UNL     1       7.542  -4.406  23.685  0.00  0.00    -0.313 N 
ATOM      3  H   UNL     1       6.856  -5.014  24.115  0.00  0.00    +0.149 HD
ATOM      4  C   UNL     1       8.795  -4.270  24.257  0.00  0.00    +0.245 C 
ATOM      5  O   UNL     1       9.594  -3.396  23.927  0.00  0.00    -0.273 OA
BRANCH   2   6
ATOM      6  C   UNL     1       7.104  -3.545  22.603  0.00  0.00    +0.104 C 
BRANCH   6   8
ATOM      7  C   UNL     1       6.671  -5.783  21.488  0.00  0.00    +0.005 C 
ATOM      8  C   UNL     1       6.317  -4.305  21.535  0.00  0.00    +0.015 C 
ENDBRANCH   6   8
ENDBRANCH   2   6
ENDBRANCH   1   4
BRANCH   1   9
ATOM      9  O   UNL     1      10.508  -5.509  25.404  0.00  0.00    -0.379 OA
ATOM     10  H   UNL     1      10.749  -6.245  24.816  0.00  0.00    +0.211 HD
ENDBRANCH   1   9
BRANCH   1  11
ATOM     11  C   UNL     1       8.550  -4.799  26.685  0.00  0.00    +0.260 C 
BRANCH  11  12
ATOM     12  C   UNL     1       7.359  -5.631  27.167  0.00  0.00    +0.337 C 
ATOM     13  O   UNL     1       7.113  -5.940  28.323  0.00  0.00    -0.248 OA
BRANCH  12  14
ATOM     14  O   UNL     1       6.544  -5.979  26.131  0.00  0.00    -0.479 OA
ATOM     15  H   UNL     1       6.507  -5.198  25.527  0.00  0.00    +0.295 HD
ENDBRANCH  12  14
ENDBRANCH  11  12
BRANCH  11  16
ATOM     16  O   UNL     1       8.060  -3.437  26.551  0.00  0.00    -0.378 OA
ATOM     17  H   UNL     1       8.615  -2.911  27.171  0.00  0.00    +0.211 HD
ENDBRANCH  11  16
ENDBRANCH   1  11
TORSDOF 8
ENDMDL
MODEL 4
REMARK VINA RESULT:      -4.7      2.844      5.728
REMARK  Name = 
REMARK  9 active torsions:
REMARK  status: ('A' for Active; 'I' for Inactive)
REMARK    1  A    between atoms: C_1  and  C_2
REMARK    2  A    between atoms: C_2  and  C_3
REMARK    3  A    between atoms: C_3  and  N_4
REMARK    4  A    between atoms: C_5  and  C_7
REMARK    5  A    between atoms: C_7  and  O_9
REMARK    6  A    between atoms: C_7  and  C_10
REMARK    7  A    between atoms: C_10  and  O_12
REMARK    8  A    between atoms: C_10  and  C_13
REMARK    9  A    between atoms: C_13  and  O_14
REMARK                            x       y       z     vdW  Elec       q    Type
REMARK                         _______ _______ _______ _____ _____    ______ ____
ROOT
ATOM      1  C   UNL     1       9.949  -0.772  22.233  0.00  0.00    +0.239 C 
ENDROOT
BRANCH   1   4
ATOM      2  N   UNL     1       8.253  -2.515  22.528  0.00  0.00    -0.313 N 
ATOM      3  H   UNL     1       7.768  -2.058  21.765  0.00  0.00    +0.149 HD
ATOM      4  C   UNL     1       9.527  -2.103  22.878  0.00  0.00    +0.245 C 
ATOM      5  O   UNL     1      10.257  -2.742  23.633  0.00  0.00    -0.273 OA
BRANCH   2   6
ATOM      6  C   UNL     1       7.666  -3.720  23.082  0.00  0.00    +0.104 C 
BRANCH   6   8
ATOM      7  C   UNL     1       7.190  -5.983  22.035  0.00  0.00    +0.005 C 
ATOM      8  C   UNL     1       6.852  -4.500  22.049  0.00  0.00    +0.015 C 
ENDBRANCH   6   8
ENDBRANCH   2   6
ENDBRANCH   1   4
BRANCH   1   9
ATOM      9  O   UNL     1       9.555  -0.791  20.862  0.00  0.00    -0.379 OA
ATOM     10  H   UNL     1       9.746   0.075  20.466  0.00  0.00    +0.211 HD
ENDBRANCH   1   9
BRANCH   1  11
ATOM     11  C   UNL     1       9.275   0.379  22.991  0.00  0.00    +0.260 C 
BRANCH  11  12
ATOM     12  C   UNL     1      10.089   1.672  22.899  0.00  0.00    +0.337 C 
ATOM     13  O   UNL     1      10.651   2.240  23.822  0.00  0.00    -0.248 OA
BRANCH  12  14
ATOM     14  O   UNL     1      10.154   2.128  21.615  0.00  0.00    -0.479 OA
ATOM     15  H   UNL     1      10.834   1.579  21.155  0.00  0.00    +0.295 HD
ENDBRANCH  12  14
ENDBRANCH  11  12
BRANCH  11  16
ATOM     16  O   UNL     1       9.172   0.070  24.408  0.00  0.00    -0.378 OA
ATOM     17  H   UNL     1       9.940  -0.518  24.590  0.00  0.00    +0.211 HD
ENDBRANCH  11  16
ENDBRANCH   1  11
TORSDOF 8
ENDMDL
MODEL 5
REMARK VINA RESULT:      -4.6      4.200      6.278
REMARK  Name = 
REMARK  9 active torsions:
REMARK  status: ('A' for Active; 'I' for Inactive)
REMARK    1  A    between atoms: C_1  and  C_2
REMARK    2  A    between atoms: C_2  and  C_3
REMARK    3  A    between atoms: C_3  and  N_4
REMARK    4  A    between atoms: C_5  and  C_7
REMARK    5  A    between atoms: C_7  and  O_9
REMARK    6  A    between atoms: C_7  and  C_10
REMARK    7  A    between atoms: C_10  and  O_12
REMARK    8  A    between atoms: C_10  and  C_13
REMARK    9  A    between atoms: C_13  and  O_14
REMARK                            x       y       z     vdW  Elec       q    Type
REMARK                         _______ _______ _______ _____ _____    ______ ____
ROOT
ATOM      1  C   UNL     1       9.633   1.935  22.985  0.00  0.00    +0.239 C 
ENDROOT
BRANCH   1   4
ATOM      2  N   UNL     1      10.738   4.115  23.144  0.00  0.00    -0.313 N 
ATOM      3  H   UNL     1      11.152   3.879  22.250  0.00  0.00    +0.149 HD
ATOM      4  C   UNL     1       9.764   3.297  23.689  0.00  0.00    +0.245 C 
ATOM      5  O   UNL     1       9.066   3.626  24.645  0.00  0.00    -0.273 OA
BRANCH   2   6
ATOM      6  C   UNL     1      11.041   5.416  23.710  0.00  0.00    +0.104 C 
BRANCH   6   8
ATOM      7  C   UNL     1      13.190   5.552  22.367  0.00  0.00    +0.005 C 
ATOM      8  C   UNL     1      12.542   5.707  23.734  0.00  0.00    +0.015 C 
ENDBRANCH   6   8
ENDBRANCH   2   6
ENDBRANCH   1   4
BRANCH   1   9
ATOM      9  O   UNL     1      10.045   2.088  21.628  0.00  0.00    -0.379 OA
ATOM     10  H   UNL     1      10.175   3.033  21.441  0.00  0.00    +0.211 HD
ENDBRANCH   1   9
BRANCH   1  11
ATOM     11  C   UNL     1      10.507   0.913  23.722  0.00  0.00    +0.260 C 
BRANCH  11  12
ATOM     12  C   UNL     1      10.206  -0.519  23.270  0.00  0.00    +0.337 C 
ATOM     13  O   UNL     1      10.214  -0.932  22.121  0.00  0.00    -0.248 OA
BRANCH  12  14
ATOM     14  O   UNL     1       9.950  -1.332  24.335  0.00  0.00    -0.479 OA
ATOM     15  H   UNL     1      10.046  -2.261  24.010  0.00  0.00    +0.295 HD
ENDBRANCH  12  14
ENDBRANCH  11  12
BRANCH  11  16
ATOM     16  O   UNL     1      10.242   0.946  25.151  0.00  0.00    -0.378 OA
ATOM     17  H   UNL     1       9.562   0.248  25.294  0.00  0.00    +0.211 HD
ENDBRANCH  11  16
ENDBRANCH   1  11
TORSDOF 8
ENDMDL
MODEL 6
REMARK VINA RESULT:      -4.5      2.740      5.846
REMARK  Name = 
REMARK  9 active torsions:
REMARK  status: ('A' for Active; 'I' for Inactive)
REMARK    1  A    between atoms: C_1  and  C_2
REMARK    2  A    between atoms: C_2  and  C_3
REMARK    3  A    between atoms: C_3  and  N_4
REMARK    4  A    between atoms: C_5  and  C_7
REMARK    5  A    between atoms: C_7  and  O_9
REMARK    6  A    between atoms: C_7  and  C_10
REMARK    7  A    between atoms: C_10  and  O_12
REMARK    8  A    between atoms: C_10  and  C_13
REMARK    9  A    between atoms: C_13  and  O_14
REMARK                            x       y       z     vdW  Elec       q    Type
REMARK                         _______ _______ _______ _____ _____    ______ ____
ROOT
ATOM      1  C   UNL     1       9.560  -0.517  23.443  0.00  0.00    +0.239 C 
ENDROOT
BRANCH   1   4
ATOM      2  N   UNL     1       8.235  -2.576  23.501  0.00  0.00    -0.313 N 
ATOM      3  H   UNL     1       7.432  -1.966  23.398  0.00  0.00    +0.149 HD
ATOM      4  C   UNL     1       9.513  -2.054  23.406  0.00  0.00    +0.245 C 
ATOM      5  O   UNL     1      10.518  -2.751  23.299  0.00  0.00    -0.273 OA
BRANCH   2   6
ATOM      6  C   UNL     1       7.999  -4.007  23.537  0.00  0.00    +0.104 C 
BRANCH   6   8
ATOM      7  C   UNL     1       9.221  -5.357  25.306  0.00  0.00    +0.005 C 
ATOM      8  C   UNL     1       7.972  -4.559  24.962  0.00  0.00    +0.015 C 
ENDBRANCH   6   8
ENDBRANCH   2   6
ENDBRANCH   1   4
BRANCH   1   9
ATOM      9  O   UNL     1      10.492  -0.119  24.446  0.00  0.00    -0.379 OA
ATOM     10  H   UNL     1      11.260  -0.714  24.419  0.00  0.00    +0.211 HD
ENDBRANCH   1   9
BRANCH   1  11
ATOM     11  C   UNL     1       9.976  -0.003  22.059  0.00  0.00    +0.260 C 
BRANCH  11  12
ATOM     12  C   UNL     1       9.294   1.325  21.719  0.00  0.00    +0.337 C 
ATOM     13  O   UNL     1       8.093   1.511  21.597  0.00  0.00    -0.248 OA
BRANCH  12  14
ATOM     14  O   UNL     1      10.204   2.333  21.593  0.00  0.00    -0.479 OA
ATOM     15  H   UNL     1      10.280   2.525  20.627  0.00  0.00    +0.295 HD
ENDBRANCH  12  14
ENDBRANCH  11  12
BRANCH  11  16
ATOM     16  O   UNL     1       9.573  -0.937  21.021  0.00  0.00    -0.378 OA
ATOM     17  H   UNL     1       8.590  -0.935  21.053  0.00  0.00    +0.211 HD
ENDBRANCH  11  16
ENDBRANCH   1  11
TORSDOF 8
ENDMDL
MODEL 7
REMARK VINA RESULT:      -4.5      2.023      2.590
REMARK  Name = 
REMARK  9 active torsions:
REMARK  status: ('A' for Active; 'I' for Inactive)
REMARK    1  A    between atoms: C_1  and  C_2
REMARK    2  A    between atoms: C_2  and  C_3
REMARK    3  A    between atoms: C_3  and  N_4
REMARK    4  A    between atoms: C_5  and  C_7
REMARK    5  A    between atoms: C_7  and  O_9
REMARK    6  A    between atoms: C_7  and  C_10
REMARK    7  A    between atoms: C_10  and  O_12
REMARK    8  A    between atoms: C_10  and  C_13
REMARK    9  A    between atoms: C_13  and  O_14
REMARK                            x       y       z     vdW  Elec       q    Type
REMARK                         _______ _______ _______ _____ _____    ______ ____
ROOT
ATOM      1  C   UNL     1       9.210  -5.066  25.176  0.00  0.00    +0.239 C 
ENDROOT
BRANCH   1   4
ATOM      2  N   UNL     1       7.736  -3.856  23.640  0.00  0.00    -0.313 N 
ATOM      3  H   UNL     1       6.996  -4.429  24.029  0.00  0.00    +0.149 HD
ATOM      4  C   UNL     1       9.003  -3.902  24.193  0.00  0.00    +0.245 C 
ATOM      5  O   UNL     1       9.884  -3.087  23.925  0.00  0.00    -0.273 OA
BRANCH   2   6
ATOM      6  C   UNL     1       7.373  -2.859  22.650  0.00  0.00    +0.104 C 
BRANCH   6   8
ATOM      7  C   UNL     1       7.239  -0.354  23.036  0.00  0.00    +0.005 C 
ATOM      8  C   UNL     1       6.573  -1.704  23.252  0.00  0.00    +0.015 C 
ENDBRANCH   6   8
ENDBRANCH   2   6
ENDBRANCH   1   4
BRANCH   1   9
ATOM      9  O   UNL     1      10.602  -5.376  25.221  0.00  0.00    -0.379 OA
ATOM     10  H   UNL     1      10.876  -5.726  24.357  0.00  0.00    +0.211 HD
ENDBRANCH   1   9
BRANCH   1  11
ATOM     11  C   UNL     1       8.688  -4.645  26.556  0.00  0.00    +0.260 C 
BRANCH  11  12
ATOM     12  C   UNL     1       7.355  -5.321  26.888  0.00  0.00    +0.337 C 
ATOM     13  O   UNL     1       6.311  -5.207  26.265  0.00  0.00    -0.248 OA
BRANCH  12  14
ATOM     14  O   UNL     1       7.467  -6.127  27.983  0.00  0.00    -0.479 OA
ATOM     15  H   UNL     1       8.158  -5.723  28.561  0.00  0.00    +0.295 HD
ENDBRANCH  12  14
ENDBRANCH  11  12
BRANCH  11  16
ATOM     16  O   UNL     1       8.432  -3.214  26.593  0.00  0.00    -0.378 OA
ATOM     17  H   UNL     1       9.211  -2.810  26.146  0.00  0.00    +0.211 HD
ENDBRANCH  11  16
ENDBRANCH   1  11
TORSDOF 8
ENDMDL
MODEL 8
REMARK VINA RESULT:      -4.3      2.694      5.817
REMARK  Name = 
REMARK  9 active torsions:
REMARK  status: ('A' for Active; 'I' for Inactive)
REMARK    1  A    between atoms: C_1  and  C_2
REMARK    2  A    between atoms: C_2  and  C_3
REMARK    3  A    between atoms: C_3  and  N_4
REMARK    4  A    between atoms: C_5  and  C_7
REMARK    5  A    between atoms: C_7  and  O_9
REMARK    6  A    between atoms: C_7  and  C_10
REMARK    7  A    between atoms: C_10  and  O_12
REMARK    8  A    between atoms: C_10  and  C_13
REMARK    9  A    between atoms: C_13  and  O_14
REMARK                            x       y       z     vdW  Elec       q    Type
REMARK                         _______ _______ _______ _____ _____    ______ ____
ROOT
ATOM      1  C   UNL     1       9.884  -0.878  22.430  0.00  0.00    +0.239 C 
ENDROOT
BRANCH   1   4
ATOM      2  N   UNL     1       9.782  -2.676  24.089  0.00  0.00    -0.313 N 
ATOM      3  H   UNL     1      10.481  -2.142  24.591  0.00  0.00    +0.149 HD
ATOM      4  C   UNL     1       9.184  -2.140  22.962  0.00  0.00    +0.245 C 
ATOM      5  O   UNL     1       8.185  -2.623  22.435  0.00  0.00    -0.273 OA
BRANCH   2   6
ATOM      6  C   UNL     1       9.291  -3.897  24.700  0.00  0.00    +0.104 C 
BRANCH   6   8
ATOM      7  C   UNL     1       8.137  -4.927  26.712  0.00  0.00    +0.005 C 
ATOM      8  C   UNL     1       8.678  -3.654  26.079  0.00  0.00    +0.015 C 
ENDBRANCH   6   8
ENDBRANCH   2   6
ENDBRANCH   1   4
BRANCH   1   9
ATOM      9  O   UNL     1       9.777  -0.870  21.007  0.00  0.00    -0.379 OA
ATOM     10  H   UNL     1       9.002  -1.394  20.745  0.00  0.00    +0.211 HD
ENDBRANCH   1   9
BRANCH   1  11
ATOM     11  C   UNL     1       9.213   0.356  23.046  0.00  0.00    +0.260 C 
BRANCH  11  12
ATOM     12  C   UNL     1      10.054   1.620  22.843  0.00  0.00    +0.337 C 
ATOM     13  O   UNL     1      10.732   2.181  23.689  0.00  0.00    -0.248 OA
BRANCH  12  14
ATOM     14  O   UNL     1       9.992   2.055  21.552  0.00  0.00    -0.479 OA
ATOM     15  H   UNL     1       9.793   3.023  21.591  0.00  0.00    +0.295 HD
ENDBRANCH  12  14
ENDBRANCH  11  12
BRANCH  11  16
ATOM     16  O   UNL     1       9.069   0.198  24.484  0.00  0.00    -0.378 OA
ATOM     17  H   UNL     1       8.103   0.293  24.649  0.00  0.00    +0.211 HD
ENDBRANCH  11  16
ENDBRANCH   1  11
TORSDOF 8
ENDMDL
MODEL 9
REMARK VINA RESULT:      -4.2      2.768      5.190
REMARK  Name = 
REMARK  9 active torsions:
REMARK  status: ('A' for Active; 'I' for Inactive)
REMARK    1  A    between atoms: C_1  and  C_2
REMARK    2  A    between atoms: C_2  and  C_3
REMARK    3  A    between atoms: C_3  and  N_4
REMARK    4  A    between atoms: C_5  and  C_7
REMARK    5  A    between atoms: C_7  and  O_9
REMARK    6  A    between atoms: C_7  and  C_10
REMARK    7  A    between atoms: C_10  and  O_12
REMARK    8  A    between atoms: C_10  and  C_13
REMARK    9  A    between atoms: C_13  and  O_14
REMARK                            x       y       z     vdW  Elec       q    Type
REMARK                         _______ _______ _______ _____ _____    ______ ____
ROOT
ATOM      1  C   UNL     1       7.179  -1.376  22.944  0.00  0.00    +0.239 C 
ENDROOT
BRANCH   1   4
ATOM      2  N   UNL     1       7.651  -3.770  22.731  0.00  0.00    -0.313 N 
ATOM      3  H   UNL     1       8.133  -3.516  21.877  0.00  0.00    +0.149 HD
ATOM      4  C   UNL     1       7.172  -2.781  23.571  0.00  0.00    +0.245 C 
ATOM      5  O   UNL     1       6.780  -3.000  24.715  0.00  0.00    -0.273 OA
BRANCH   2   6
ATOM      6  C   UNL     1       7.670  -5.164  23.132  0.00  0.00    +0.104 C 
BRANCH   6   8
ATOM      7  C   UNL     1       6.231  -5.381  21.053  0.00  0.00    +0.005 C 
ATOM      8  C   UNL     1       7.145  -6.094  22.038  0.00  0.00    +0.015 C 
ENDBRANCH   6   8
ENDBRANCH   2   6
ENDBRANCH   1   4
BRANCH   1   9
ATOM      9  O   UNL     1       6.134  -0.611  23.542  0.00  0.00    -0.379 OA
ATOM     10  H   UNL     1       5.968  -0.948  24.439  0.00  0.00    +0.211 HD
ENDBRANCH   1   9
BRANCH   1  11
ATOM     11  C   UNL     1       8.550  -0.734  23.186  0.00  0.00    +0.260 C 
BRANCH  11  12
ATOM     12  C   UNL     1       9.337  -0.568  21.883  0.00  0.00    +0.337 C 
ATOM     13  O   UNL     1       9.449   0.458  21.232  0.00  0.00    -0.248 OA
BRANCH  12  14
ATOM     14  O   UNL     1       9.955  -1.730  21.525  0.00  0.00    -0.479 OA
ATOM     15  H   UNL     1      10.191  -2.194  22.365  0.00  0.00    +0.295 HD
ENDBRANCH  12  14
ENDBRANCH  11  12
BRANCH  11  16
ATOM     16  O   UNL     1       9.368  -1.576  24.043  0.00  0.00    -0.378 OA
ATOM     17  H   UNL     1       9.333  -1.141  24.926  0.00  0.00    +0.211 HD
ENDBRANCH  11  16
ENDBRANCH   1  11
TORSDOF 8
ENDMDL
