MODEL 1
REMARK VINA RESULT:      -6.9      0.000      0.000
REMARK  Name = 
REMARK  15 active torsions:
REMARK  status: ('A' for Active; 'I' for Inactive)
REMARK    1  A    between atoms: O_1  and  C_2
REMARK    2  A    between atoms: C_2  and  C_3
REMARK    3  A    between atoms: C_3  and  O_4
REMARK    4  A    between atoms: O_4  and  C_5
REMARK    5  A    between atoms: C_5  and  O_6
REMARK    6  A    between atoms: O_6  and  C_7
REMARK    7  A    between atoms: C_7  and  C_8
REMARK    8  A    between atoms: C_11  and  C_12
REMARK    9  A    between atoms: C_12  and  C_13
REMARK   10  A    between atoms: C_13  and  C_14
REMARK   11  A    between atoms: C_14  and  C_15
REMARK   12  A    between atoms: C_15  and  C_16
REMARK   13  A    between atoms: C_16  and  O_17
REMARK   14  A    between atoms: O_17  and  C_18
REMARK   15  A    between atoms: C_22  and  C_26
REMARK                            x       y       z     vdW  Elec       q    Type
REMARK                         _______ _______ _______ _____ _____    ______ ____
ROOT
ATOM      1  C   UNL     1       9.554  -0.765  23.885  0.00  0.00    +0.004 C 
ENDROOT
BRANCH   1   2
ATOM      2  C   UNL     1      10.217  -0.330  22.577  0.00  0.00    +0.008 C 
BRANCH   2   3
ATOM      3  C   UNL     1       9.227   0.138  21.515  0.00  0.00    +0.077 C 
BRANCH   3   6
ATOM      4  C   UNL     1       8.094   3.422  22.702  0.00  0.00    +0.109 A 
ATOM      5  C   UNL     1       9.179   2.522  22.608  0.00  0.00    +0.073 A 
ATOM      6  C   UNL     1       8.670   1.451  21.921  0.00  0.00    +0.138 A 
ATOM      7  O   UNL     1       7.358   1.678  21.641  0.00  0.00    -0.359 OA
ATOM      8  N   UNL     1       6.990   2.919  22.135  0.00  0.00    -0.081 NA
BRANCH   4   9
ATOM      9  C   UNL     1       8.104   4.774  23.322  0.00  0.00    +0.221 C 
BRANCH   9  10
ATOM     10  O   UNL     1       9.281   4.930  24.119  0.00  0.00    -0.348 OA
BRANCH  10  11
ATOM     11  C   UNL     1      10.040   6.064  23.740  0.00  0.00    +0.323 C 
BRANCH  11  12
ATOM     12  O   UNL     1      11.424   5.918  24.031  0.00  0.00    -0.352 OA
BRANCH  12  13
ATOM     13  C   UNL     1      12.008   4.840  23.300  0.00  0.00    +0.190 C 
BRANCH  13  14
ATOM     14  C   UNL     1      13.164   5.379  22.468  0.00  0.00    +0.184 C 
BRANCH  14  15
ATOM     15  O   UNL     1      14.398   5.112  23.118  0.00  0.00    -0.393 OA
ATOM     16  H   UNL     1      14.617   4.182  22.936  0.00  0.00    +0.209 HD
ENDBRANCH  14  15
ENDBRANCH  13  14
ENDBRANCH  12  13
ENDBRANCH  11  12
ENDBRANCH  10  11
ENDBRANCH   9  10
ENDBRANCH   4   9
ENDBRANCH   3   6
ENDBRANCH   2   3
ENDBRANCH   1   2
BRANCH   1  17
ATOM     17  C   UNL     1       9.714  -2.274  24.135  0.00  0.00    +0.041 C 
BRANCH  17  18
ATOM     18  C   UNL     1       8.570  -3.049  23.484  0.00  0.00    +0.229 C 
BRANCH  18  19
ATOM     19  O   UNL     1       8.560  -4.413  23.858  0.00  0.00    -0.489 OA
BRANCH  19  20
ATOM     20  C   UNL     1       7.338  -5.019  24.058  0.00  0.00    +0.157 A 
ATOM     21  C   UNL     1       7.007  -5.182  25.422  0.00  0.00    +0.085 A 
ATOM     22 CL   UNL     1       8.052  -4.601  26.681  0.00  0.00    -0.080 Cl
ATOM     23  C   UNL     1       5.825  -5.811  25.823  0.00  0.00    +0.037 A 
ATOM     24  C   UNL     1       4.938  -6.292  24.867  0.00  0.00    +0.039 A 
ATOM     25  C   UNL     1       5.232  -6.131  23.515  0.00  0.00    +0.037 A 
ATOM     26  C   UNL     1       6.415  -5.502  23.104  0.00  0.00    +0.085 A 
ATOM     27 CL   UNL     1       6.568  -5.431  21.377  0.00  0.00    -0.080 Cl
BRANCH  24  28
ATOM     28  C   UNL     1       3.697  -6.988  25.234  0.00  0.00    +0.218 C 
ATOM     29  O   UNL     1       3.396  -8.049  24.454  0.00  0.00    -0.474 OA
ATOM     30  C   UNL     1       2.073  -8.397  24.836  0.00  0.00    +0.254 C 
ATOM     31  C   UNL     1       1.878  -7.713  26.168  0.00  0.00    +0.186 C 
ATOM     32  N   UNL     1       2.902  -6.661  26.205  0.00  0.00    -0.247 NA
ENDBRANCH  24  28
ENDBRANCH  19  20
ENDBRANCH  18  19
ENDBRANCH  17  18
ENDBRANCH   1  17
TORSDOF 15
ENDMDL
MODEL 2
REMARK VINA RESULT:      -6.7      0.467      1.721
REMARK  Name = 
REMARK  15 active torsions:
REMARK  status: ('A' for Active; 'I' for Inactive)
REMARK    1  A    between atoms: O_1  and  C_2
REMARK    2  A    between atoms: C_2  and  C_3
REMARK    3  A    between atoms: C_3  and  O_4
REMARK    4  A    between atoms: O_4  and  C_5
REMARK    5  A    between atoms: C_5  and  O_6
REMARK    6  A    between atoms: O_6  and  C_7
REMARK    7  A    between atoms: C_7  and  C_8
REMARK    8  A    between atoms: C_11  and  C_12
REMARK    9  A    between atoms: C_12  and  C_13
REMARK   10  A    between atoms: C_13  and  C_14
REMARK   11  A    between atoms: C_14  and  C_15
REMARK   12  A    between atoms: C_15  and  C_16
REMARK   13  A    between atoms: C_16  and  O_17
REMARK   14  A    between atoms: O_17  and  C_18
REMARK   15  A    between atoms: C_22  and  C_26
REMARK                            x       y       z     vdW  Elec       q    Type
REMARK                         _______ _______ _______ _____ _____    ______ ____
ROOT
ATOM      1  C   UNL     1      10.055  -1.272  23.451  0.00  0.00    +0.004 C 
ENDROOT
BRANCH   1   2
ATOM      2  C   UNL     1       9.035  -0.872  22.382  0.00  0.00    +0.008 C 
BRANCH   2   3
ATOM      3  C   UNL     1       9.508   0.260  21.477  0.00  0.00    +0.077 C 
BRANCH   3   6
ATOM      4  C   UNL     1       8.157   3.397  22.823  0.00  0.00    +0.109 A 
ATOM      5  C   UNL     1       9.223   2.469  22.861  0.00  0.00    +0.073 A 
ATOM      6  C   UNL     1       8.883   1.528  21.925  0.00  0.00    +0.138 A 
ATOM      7  O   UNL     1       7.681   1.851  21.376  0.00  0.00    -0.359 OA
ATOM      8  N   UNL     1       7.218   3.028  21.943  0.00  0.00    -0.081 NA
BRANCH   4   9
ATOM      9  C   UNL     1       8.032   4.648  23.618  0.00  0.00    +0.221 C 
BRANCH   9  10
ATOM     10  O   UNL     1       9.091   4.719  24.576  0.00  0.00    -0.348 OA
BRANCH  10  11
ATOM     11  C   UNL     1       9.855   5.904  24.444  0.00  0.00    +0.323 C 
BRANCH  11  12
ATOM     12  O   UNL     1      10.769   5.847  23.355  0.00  0.00    -0.352 OA
BRANCH  12  13
ATOM     13  C   UNL     1      11.990   5.207  23.723  0.00  0.00    +0.190 C 
BRANCH  13  14
ATOM     14  C   UNL     1      13.127   5.809  22.908  0.00  0.00    +0.184 C 
BRANCH  14  15
ATOM     15  O   UNL     1      14.309   5.040  23.078  0.00  0.00    -0.393 OA
ATOM     16  H   UNL     1      14.639   4.830  22.187  0.00  0.00    +0.209 HD
ENDBRANCH  14  15
ENDBRANCH  13  14
ENDBRANCH  12  13
ENDBRANCH  11  12
ENDBRANCH  10  11
ENDBRANCH   9  10
ENDBRANCH   4   9
ENDBRANCH   3   6
ENDBRANCH   2   3
ENDBRANCH   1   2
BRANCH   1  17
ATOM     17  C   UNL     1       9.736  -2.645  24.064  0.00  0.00    +0.041 C 
BRANCH  17  18
ATOM     18  C   UNL     1       8.353  -3.120  23.623  0.00  0.00    +0.229 C 
BRANCH  18  19
ATOM     19  O   UNL     1       8.275  -4.528  23.515  0.00  0.00    -0.489 OA
BRANCH  19  20
ATOM     20  C   UNL     1       7.177  -5.159  24.060  0.00  0.00    +0.157 A 
ATOM     21  C   UNL     1       6.292  -5.686  23.093  0.00  0.00    +0.085 A 
ATOM     22 CL   UNL     1       6.636  -5.570  21.396  0.00  0.00    -0.080 Cl
ATOM     23  C   UNL     1       5.103  -6.327  23.453  0.00  0.00    +0.037 A 
ATOM     24  C   UNL     1       4.770  -6.462  24.796  0.00  0.00    +0.039 A 
ATOM     25  C   UNL     1       5.632  -5.967  25.772  0.00  0.00    +0.037 A 
ATOM     26  C   UNL     1       6.825  -5.322  25.419  0.00  0.00    +0.085 A 
ATOM     27 CL   UNL     1       7.724  -4.779  26.800  0.00  0.00    -0.080 Cl
BRANCH  24  28
ATOM     28  C   UNL     1       3.519  -7.100  25.229  0.00  0.00    +0.218 C 
ATOM     29  O   UNL     1       3.237  -8.265  24.606  0.00  0.00    -0.474 OA
ATOM     30  C   UNL     1       1.904  -8.557  25.000  0.00  0.00    +0.254 C 
ATOM     31  C   UNL     1       1.675  -7.685  26.211  0.00  0.00    +0.186 C 
ATOM     32  N   UNL     1       2.699  -6.637  26.120  0.00  0.00    -0.247 NA
ENDBRANCH  24  28
ENDBRANCH  19  20
ENDBRANCH  18  19
ENDBRANCH  17  18
ENDBRANCH   1  17
TORSDOF 15
ENDMDL
MODEL 3
REMARK VINA RESULT:      -6.7      3.839      7.920
REMARK  Name = 
REMARK  15 active torsions:
REMARK  status: ('A' for Active; 'I' for Inactive)
REMARK    1  A    between atoms: O_1  and  C_2
REMARK    2  A    between atoms: C_2  and  C_3
REMARK    3  A    between atoms: C_3  and  O_4
REMARK    4  A    between atoms: O_4  and  C_5
REMARK    5  A    between atoms: C_5  and  O_6
REMARK    6  A    between atoms: O_6  and  C_7
REMARK    7  A    between atoms: C_7  and  C_8
REMARK    8  A    between atoms: C_11  and  C_12
REMARK    9  A    between atoms: C_12  and  C_13
REMARK   10  A    between atoms: C_13  and  C_14
REMARK   11  A    between atoms: C_14  and  C_15
REMARK   12  A    between atoms: C_15  and  C_16
REMARK   13  A    between atoms: C_16  and  O_17
REMARK   14  A    between atoms: O_17  and  C_18
REMARK   15  A    between atoms: C_22  and  C_26
REMARK                            x       y       z     vdW  Elec       q    Type
REMARK                         _______ _______ _______ _____ _____    ______ ____
ROOT
ATOM      1  C   UNL     1      10.251   1.831  24.101  0.00  0.00    +0.004 C 
ENDROOT
BRANCH   1   2
ATOM      2  C   UNL     1      10.236   0.510  24.873  0.00  0.00    +0.008 C 
BRANCH   2   3
ATOM      3  C   UNL     1      10.296  -0.724  23.978  0.00  0.00    +0.077 C 
BRANCH   3   6
ATOM      4  C   UNL     1       8.809  -3.720  25.490  0.00  0.00    +0.109 A 
ATOM      5  C   UNL     1       9.549  -3.201  24.404  0.00  0.00    +0.073 A 
ATOM      6  C   UNL     1       9.684  -1.869  24.695  0.00  0.00    +0.138 A 
ATOM      7  O   UNL     1       9.047  -1.595  25.865  0.00  0.00    -0.359 OA
ATOM      8  N   UNL     1       8.490  -2.760  26.368  0.00  0.00    -0.081 NA
BRANCH   4   9
ATOM      9  C   UNL     1       8.409  -5.136  25.705  0.00  0.00    +0.221 C 
BRANCH   9  10
ATOM     10  O   UNL     1       7.007  -5.284  25.463  0.00  0.00    -0.348 OA
BRANCH  10  11
ATOM     11  C   UNL     1       6.294  -5.631  26.636  0.00  0.00    +0.323 C 
BRANCH  11  12
ATOM     12  O   UNL     1       7.152  -5.925  27.731  0.00  0.00    -0.352 OA
BRANCH  12  13
ATOM     13  C   UNL     1       6.417  -6.159  28.932  0.00  0.00    +0.190 C 
BRANCH  13  14
ATOM     14  C   UNL     1       4.937  -6.268  28.589  0.00  0.00    +0.184 C 
BRANCH  14  15
ATOM     15  O   UNL     1       4.457  -7.566  28.913  0.00  0.00    -0.393 OA
ATOM     16  H   UNL     1       3.815  -7.456  29.636  0.00  0.00    +0.209 HD
ENDBRANCH  14  15
ENDBRANCH  13  14
ENDBRANCH  12  13
ENDBRANCH  11  12
ENDBRANCH  10  11
ENDBRANCH   9  10
ENDBRANCH   4   9
ENDBRANCH   3   6
ENDBRANCH   2   3
ENDBRANCH   1   2
BRANCH   1  17
ATOM     17  C   UNL     1       9.006   2.683  24.396  0.00  0.00    +0.041 C 
BRANCH  17  18
ATOM     18  C   UNL     1       8.032   1.917  25.288  0.00  0.00    +0.229 C 
BRANCH  18  19
ATOM     19  O   UNL     1       6.802   1.650  24.641  0.00  0.00    -0.489 OA
BRANCH  19  20
ATOM     20  C   UNL     1       6.636   0.414  24.054  0.00  0.00    +0.157 A 
ATOM     21  C   UNL     1       5.917  -0.499  24.858  0.00  0.00    +0.085 A 
ATOM     22 CL   UNL     1       5.280  -0.034  26.404  0.00  0.00    -0.080 Cl
ATOM     23  C   UNL     1       5.681  -1.815  24.448  0.00  0.00    +0.037 A 
ATOM     24  C   UNL     1       6.156  -2.251  23.217  0.00  0.00    +0.039 A 
ATOM     25  C   UNL     1       6.853  -1.367  22.396  0.00  0.00    +0.037 A 
ATOM     26  C   UNL     1       7.095  -0.047  22.800  0.00  0.00    +0.085 A 
ATOM     27 CL   UNL     1       7.992   0.857  21.622  0.00  0.00    -0.080 Cl
BRANCH  24  28
ATOM     28  C   UNL     1       5.962  -3.631  22.751  0.00  0.00    +0.218 C 
ATOM     29  O   UNL     1       7.086  -4.241  22.317  0.00  0.00    -0.474 OA
ATOM     30  C   UNL     1       6.621  -5.438  21.709  0.00  0.00    +0.254 C 
ATOM     31  C   UNL     1       5.219  -5.605  22.243  0.00  0.00    +0.186 C 
ATOM     32  N   UNL     1       4.834  -4.271  22.719  0.00  0.00    -0.247 NA
ENDBRANCH  24  28
ENDBRANCH  19  20
ENDBRANCH  18  19
ENDBRANCH  17  18
ENDBRANCH   1  17
TORSDOF 15
ENDMDL
MODEL 4
REMARK VINA RESULT:      -6.5      2.585      2.916
REMARK  Name = 
REMARK  15 active torsions:
REMARK  status: ('A' for Active; 'I' for Inactive)
REMARK    1  A    between atoms: O_1  and  C_2
REMARK    2  A    between atoms: C_2  and  C_3
REMARK    3  A    between atoms: C_3  and  O_4
REMARK    4  A    between atoms: O_4  and  C_5
REMARK    5  A    between atoms: C_5  and  O_6
REMARK    6  A    between atoms: O_6  and  C_7
REMARK    7  A    between atoms: C_7  and  C_8
REMARK    8  A    between atoms: C_11  and  C_12
REMARK    9  A    between atoms: C_12  and  C_13
REMARK   10  A    between atoms: C_13  and  C_14
REMARK   11  A    between atoms: C_14  and  C_15
REMARK   12  A    between atoms: C_15  and  C_16
REMARK   13  A    between atoms: C_16  and  O_17
REMARK   14  A    between atoms: O_17  and  C_18
REMARK   15  A    between atoms: C_22  and  C_26
REMARK                            x       y       z     vdW  Elec       q    Type
REMARK                         _______ _______ _______ _____ _____    ______ ____
ROOT
ATOM      1  C   UNL     1       9.946  -2.038  23.363  0.00  0.00    +0.004 C 
ENDROOT
BRANCH   1   2
ATOM      2  C   UNL     1       9.554  -1.178  24.566  0.00  0.00    +0.008 C 
BRANCH   2   3
ATOM      3  C   UNL     1      10.448   0.043  24.763  0.00  0.00    +0.077 C 
BRANCH   3   6
ATOM      4  C   UNL     1       8.650   3.218  24.360  0.00  0.00    +0.109 A 
ATOM      5  C   UNL     1       9.798   2.470  24.013  0.00  0.00    +0.073 A 
ATOM      6  C   UNL     1       9.621   1.268  24.647  0.00  0.00    +0.138 A 
ATOM      7  O   UNL     1       8.457   1.297  25.352  0.00  0.00    -0.359 OA
ATOM      8  N   UNL     1       7.843   2.527  25.176  0.00  0.00    -0.081 NA
BRANCH   4   9
ATOM      9  C   UNL     1       8.308   4.593  23.908  0.00  0.00    +0.221 C 
BRANCH   9  10
ATOM     10  O   UNL     1       9.184   5.537  24.529  0.00  0.00    -0.348 OA
BRANCH  10  11
ATOM     11  C   UNL     1      10.003   6.209  23.589  0.00  0.00    +0.323 C 
BRANCH  11  12
ATOM     12  O   UNL     1      11.354   6.316  24.020  0.00  0.00    -0.352 OA
BRANCH  12  13
ATOM     13  C   UNL     1      12.106   5.147  23.698  0.00  0.00    +0.190 C 
BRANCH  13  14
ATOM     14  C   UNL     1      13.112   5.493  22.608  0.00  0.00    +0.184 C 
BRANCH  14  15
ATOM     15  O   UNL     1      14.420   5.113  23.013  0.00  0.00    -0.393 OA
ATOM     16  H   UNL     1      15.042   5.639  22.483  0.00  0.00    +0.209 HD
ENDBRANCH  14  15
ENDBRANCH  13  14
ENDBRANCH  12  13
ENDBRANCH  11  12
ENDBRANCH  10  11
ENDBRANCH   9  10
ENDBRANCH   4   9
ENDBRANCH   3   6
ENDBRANCH   2   3
ENDBRANCH   1   2
BRANCH   1  17
ATOM     17  C   UNL     1       8.915  -1.940  22.227  0.00  0.00    +0.041 C 
BRANCH  17  18
ATOM     18  C   UNL     1       7.672  -1.185  22.695  0.00  0.00    +0.229 C 
BRANCH  18  19
ATOM     19  O   UNL     1       6.526  -2.013  22.752  0.00  0.00    -0.489 OA
BRANCH  19  20
ATOM     20  C   UNL     1       6.425  -2.906  23.796  0.00  0.00    +0.157 A 
ATOM     21  C   UNL     1       5.962  -2.321  24.995  0.00  0.00    +0.085 A 
ATOM     22 CL   UNL     1       5.522  -0.643  25.071  0.00  0.00    -0.080 Cl
ATOM     23  C   UNL     1       5.830  -3.060  26.174  0.00  0.00    +0.037 A 
ATOM     24  C   UNL     1       6.156  -4.412  26.183  0.00  0.00    +0.039 A 
ATOM     25  C   UNL     1       6.599  -5.019  25.010  0.00  0.00    +0.037 A 
ATOM     26  C   UNL     1       6.735  -4.284  23.824  0.00  0.00    +0.085 A 
ATOM     27 CL   UNL     1       7.316  -5.249  22.505  0.00  0.00    -0.080 Cl
BRANCH  24  28
ATOM     28  C   UNL     1       6.065  -5.229  27.401  0.00  0.00    +0.218 C 
ATOM     29  O   UNL     1       4.825  -5.310  27.932  0.00  0.00    -0.474 OA
ATOM     30  C   UNL     1       5.028  -5.927  29.195  0.00  0.00    +0.254 C 
ATOM     31  C   UNL     1       6.400  -6.548  29.090  0.00  0.00    +0.186 C 
ATOM     32  N   UNL     1       7.050  -5.840  27.980  0.00  0.00    -0.247 NA
ENDBRANCH  24  28
ENDBRANCH  19  20
ENDBRANCH  18  19
ENDBRANCH  17  18
ENDBRANCH   1  17
TORSDOF 15
ENDMDL
MODEL 5
REMARK VINA RESULT:      -6.5      2.752     10.389
REMARK  Name = 
REMARK  15 active torsions:
REMARK  status: ('A' for Active; 'I' for Inactive)
REMARK    1  A    between atoms: O_1  and  C_2
REMARK    2  A    between atoms: C_2  and  C_3
REMARK    3  A    between atoms: C_3  and  O_4
REMARK    4  A    between atoms: O_4  and  C_5
REMARK    5  A    between atoms: C_5  and  O_6
REMARK    6  A    between atoms: O_6  and  C_7
REMARK    7  A    between atoms: C_7  and  C_8
REMARK    8  A    between atoms: C_11  and  C_12
REMARK    9  A    between atoms: C_12  and  C_13
REMARK   10  A    between atoms: C_13  and  C_14
REMARK   11  A    between atoms: C_14  and  C_15
REMARK   12  A    between atoms: C_15  and  C_16
REMARK   13  A    between atoms: C_16  and  O_17
REMARK   14  A    between atoms: O_17  and  C_18
REMARK   15  A    between atoms: C_22  and  C_26
REMARK                            x       y       z     vdW  Elec       q    Type
REMARK                         _______ _______ _______ _____ _____    ______ ____
ROOT
ATOM      1  C   UNL     1       8.649  -2.189  25.201  0.00  0.00    +0.004 C 
ENDROOT
BRANCH   1   2
ATOM      2  C   UNL     1       8.602  -2.889  26.561  0.00  0.00    +0.008 C 
BRANCH   2   3
ATOM      3  C   UNL     1       8.922  -4.379  26.495  0.00  0.00    +0.077 C 
BRANCH   3   6
ATOM      4  C   UNL     1       5.698  -6.120  26.274  0.00  0.00    +0.109 A 
ATOM      5  C   UNL     1       6.637  -5.304  25.602  0.00  0.00    +0.073 A 
ATOM      6  C   UNL     1       7.653  -5.146  26.507  0.00  0.00    +0.138 A 
ATOM      7  O   UNL     1       7.339  -5.801  27.658  0.00  0.00    -0.359 OA
ATOM      8  N   UNL     1       6.105  -6.413  27.516  0.00  0.00    -0.081 NA
BRANCH   4   9
ATOM      9  C   UNL     1       4.412  -6.635  25.733  0.00  0.00    +0.221 C 
BRANCH   9  10
ATOM     10  O   UNL     1       3.796  -5.635  24.918  0.00  0.00    -0.348 OA
BRANCH  10  11
ATOM     11  C   UNL     1       3.659  -6.049  23.571  0.00  0.00    +0.323 C 
BRANCH  11  12
ATOM     12  O   UNL     1       4.408  -5.242  22.672  0.00  0.00    -0.352 OA
BRANCH  12  13
ATOM     13  C   UNL     1       5.537  -5.941  22.148  0.00  0.00    +0.190 C 
BRANCH  13  14
ATOM     14  C   UNL     1       6.315  -5.005  21.233  0.00  0.00    +0.184 C 
BRANCH  14  15
ATOM     15  O   UNL     1       5.585  -3.803  21.032  0.00  0.00    -0.393 OA
ATOM     16  H   UNL     1       6.235  -3.110  20.821  0.00  0.00    +0.209 HD
ENDBRANCH  14  15
ENDBRANCH  13  14
ENDBRANCH  12  13
ENDBRANCH  11  12
ENDBRANCH  10  11
ENDBRANCH   9  10
ENDBRANCH   4   9
ENDBRANCH   3   6
ENDBRANCH   2   3
ENDBRANCH   1   2
BRANCH   1  17
ATOM     17  C   UNL     1       7.296  -1.557  24.835  0.00  0.00    +0.041 C 
BRANCH  17  18
ATOM     18  C   UNL     1       7.075  -1.604  23.324  0.00  0.00    +0.229 C 
BRANCH  18  19
ATOM     19  O   UNL     1       6.835  -0.324  22.773  0.00  0.00    -0.489 OA
BRANCH  19  20
ATOM     20  C   UNL     1       7.808   0.640  22.930  0.00  0.00    +0.157 A 
ATOM     21  C   UNL     1       7.377   1.759  23.677  0.00  0.00    +0.085 A 
ATOM     22 CL   UNL     1       5.782   1.831  24.358  0.00  0.00    -0.080 Cl
ATOM     23  C   UNL     1       8.211   2.856  23.908  0.00  0.00    +0.037 A 
ATOM     24  C   UNL     1       9.505   2.861  23.400  0.00  0.00    +0.039 A 
ATOM     25  C   UNL     1       9.962   1.764  22.674  0.00  0.00    +0.037 A 
ATOM     26  C   UNL     1       9.131   0.660  22.436  0.00  0.00    +0.085 A 
ATOM     27 CL   UNL     1       9.912  -0.573  21.498  0.00  0.00    -0.080 Cl
BRANCH  24  28
ATOM     28  C   UNL     1      10.413   4.001  23.588  0.00  0.00    +0.218 C 
ATOM     29  O   UNL     1       9.836   5.095  24.131  0.00  0.00    -0.474 OA
ATOM     30  C   UNL     1      10.819   6.112  23.991  0.00  0.00    +0.254 C 
ATOM     31  C   UNL     1      12.100   5.357  23.732  0.00  0.00    +0.186 C 
ATOM     32  N   UNL     1      11.670   4.031  23.273  0.00  0.00    -0.247 NA
ENDBRANCH  24  28
ENDBRANCH  19  20
ENDBRANCH  18  19
ENDBRANCH  17  18
ENDBRANCH   1  17
TORSDOF 15
ENDMDL
MODEL 6
REMARK VINA RESULT:      -6.4      2.256      2.582
REMARK  Name = 
REMARK  15 active torsions:
REMARK  status: ('A' for Active; 'I' for Inactive)
REMARK    1  A    between atoms: O_1  and  C_2
REMARK    2  A    between atoms: C_2  and  C_3
REMARK    3  A    between atoms: C_3  and  O_4
REMARK    4  A    between atoms: O_4  and  C_5
REMARK    5  A    between atoms: C_5  and  O_6
REMARK    6  A    between atoms: O_6  and  C_7
REMARK    7  A    between atoms: C_7  and  C_8
REMARK    8  A    between atoms: C_11  and  C_12
REMARK    9  A    between atoms: C_12  and  C_13
REMARK   10  A    between atoms: C_13  and  C_14
REMARK   11  A    between atoms: C_14  and  C_15
REMARK   12  A    between atoms: C_15  and  C_16
REMARK   13  A    between atoms: C_16  and  O_17
REMARK   14  A    between atoms: O_17  and  C_18
REMARK   15  A    between atoms: C_22  and  C_26
REMARK                            x       y       z     vdW  Elec       q    Type
REMARK                         _______ _______ _______ _____ _____    ______ ____
ROOT
ATOM      1  C   UNL     1      10.522  -1.583  22.632  0.00  0.00    +0.004 C 
ENDROOT
BRANCH   1   2
ATOM      2  C   UNL     1       9.549  -0.877  21.685  0.00  0.00    +0.008 C 
BRANCH   2   3
ATOM      3  C   UNL     1       9.649   0.645  21.729  0.00  0.00    +0.077 C 
BRANCH   3   6
ATOM      4  C   UNL     1       6.487   2.292  22.604  0.00  0.00    +0.109 A 
ATOM      5  C   UNL     1       7.667   2.359  21.830  0.00  0.00    +0.073 A 
ATOM      6  C   UNL     1       8.335   1.202  22.132  0.00  0.00    +0.138 A 
ATOM      7  O   UNL     1       7.619   0.494  23.047  0.00  0.00    -0.359 OA
ATOM      8  N   UNL     1       6.454   1.180  23.351  0.00  0.00    -0.081 NA
BRANCH   4   9
ATOM      9  C   UNL     1       5.377   3.281  22.631  0.00  0.00    +0.221 C 
BRANCH   9  10
ATOM     10  O   UNL     1       5.896   4.583  22.912  0.00  0.00    -0.348 OA
BRANCH  10  11
ATOM     11  C   UNL     1       6.093   4.795  24.298  0.00  0.00    +0.323 C 
BRANCH  11  12
ATOM     12  O   UNL     1       7.341   5.412  24.585  0.00  0.00    -0.352 OA
BRANCH  12  13
ATOM     13  C   UNL     1       8.346   4.450  24.907  0.00  0.00    +0.190 C 
BRANCH  13  14
ATOM     14  C   UNL     1       7.754   3.422  25.863  0.00  0.00    +0.184 C 
BRANCH  14  15
ATOM     15  O   UNL     1       8.329   2.146  25.621  0.00  0.00    -0.393 OA
ATOM     16  H   UNL     1       7.875   1.775  24.846  0.00  0.00    +0.209 HD
ENDBRANCH  14  15
ENDBRANCH  13  14
ENDBRANCH  12  13
ENDBRANCH  11  12
ENDBRANCH  10  11
ENDBRANCH   9  10
ENDBRANCH   4   9
ENDBRANCH   3   6
ENDBRANCH   2   3
ENDBRANCH   1   2
BRANCH   1  17
ATOM     17  C   UNL     1       9.794  -2.239  23.817  0.00  0.00    +0.041 C 
BRANCH  17  18
ATOM     18  C   UNL     1       8.594  -3.047  23.328  0.00  0.00    +0.229 C 
BRANCH  18  19
ATOM     19  O   UNL     1       8.596  -4.372  23.824  0.00  0.00    -0.489 OA
BRANCH  19  20
ATOM     20  C   UNL     1       7.381  -5.003  23.989  0.00  0.00    +0.157 A 
ATOM     21  C   UNL     1       6.955  -5.062  25.334  0.00  0.00    +0.085 A 
ATOM     22 CL   UNL     1       7.886  -4.340  26.609  0.00  0.00    -0.080 Cl
ATOM     23  C   UNL     1       5.766  -5.698  25.703  0.00  0.00    +0.037 A 
ATOM     24  C   UNL     1       4.967  -6.289  24.731  0.00  0.00    +0.039 A 
ATOM     25  C   UNL     1       5.355  -6.231  23.395  0.00  0.00    +0.037 A 
ATOM     26  C   UNL     1       6.547  -5.597  23.016  0.00  0.00    +0.085 A 
ATOM     27 CL   UNL     1       6.824  -5.665  21.305  0.00  0.00    -0.080 Cl
BRANCH  24  28
ATOM     28  C   UNL     1       3.724  -6.995  25.068  0.00  0.00    +0.218 C 
ATOM     29  O   UNL     1       3.013  -6.436  26.071  0.00  0.00    -0.474 OA
ATOM     30  C   UNL     1       2.015  -7.401  26.371  0.00  0.00    +0.254 C 
ATOM     31  C   UNL     1       1.996  -8.303  25.161  0.00  0.00    +0.186 C 
ATOM     32  N   UNL     1       3.287  -8.076  24.500  0.00  0.00    -0.247 NA
ENDBRANCH  24  28
ENDBRANCH  19  20
ENDBRANCH  18  19
ENDBRANCH  17  18
ENDBRANCH   1  17
TORSDOF 15
ENDMDL
MODEL 7
REMARK VINA RESULT:      -6.3      3.576      8.302
REMARK  Name = 
REMARK  15 active torsions:
REMARK  status: ('A' for Active; 'I' for Inactive)
REMARK    1  A    between atoms: O_1  and  C_2
REMARK    2  A    between atoms: C_2  and  C_3
REMARK    3  A    between atoms: C_3  and  O_4
REMARK    4  A    between atoms: O_4  and  C_5
REMARK    5  A    between atoms: C_5  and  O_6
REMARK    6  A    between atoms: O_6  and  C_7
REMARK    7  A    between atoms: C_7  and  C_8
REMARK    8  A    between atoms: C_11  and  C_12
REMARK    9  A    between atoms: C_12  and  C_13
REMARK   10  A    between atoms: C_13  and  C_14
REMARK   11  A    between atoms: C_14  and  C_15
REMARK   12  A    between atoms: C_15  and  C_16
REMARK   13  A    between atoms: C_16  and  O_17
REMARK   14  A    between atoms: O_17  and  C_18
REMARK   15  A    between atoms: C_22  and  C_26
REMARK                            x       y       z     vdW  Elec       q    Type
REMARK                         _______ _______ _______ _____ _____    ______ ____
ROOT
ATOM      1  C   UNL     1       9.597   1.474  21.902  0.00  0.00    +0.004 C 
ENDROOT
BRANCH   1   2
ATOM      2  C   UNL     1       8.930   0.116  21.675  0.00  0.00    +0.008 C 
BRANCH   2   3
ATOM      3  C   UNL     1       9.912  -1.050  21.640  0.00  0.00    +0.077 C 
BRANCH   3   6
ATOM      4  C   UNL     1       8.410  -3.638  23.767  0.00  0.00    +0.109 A 
ATOM      5  C   UNL     1       8.219  -2.767  22.671  0.00  0.00    +0.073 A 
ATOM      6  C   UNL     1       9.420  -2.122  22.540  0.00  0.00    +0.138 A 
ATOM      7  O   UNL     1      10.273  -2.555  23.508  0.00  0.00    -0.359 OA
ATOM      8  N   UNL     1       9.637  -3.509  24.287  0.00  0.00    -0.081 NA
BRANCH   4   9
ATOM      9  C   UNL     1       7.427  -4.607  24.321  0.00  0.00    +0.221 C 
BRANCH   9  10
ATOM     10  O   UNL     1       7.938  -5.173  25.531  0.00  0.00    -0.348 OA
BRANCH  10  11
ATOM     11  C   UNL     1       6.969  -5.195  26.564  0.00  0.00    +0.323 C 
BRANCH  11  12
ATOM     12  O   UNL     1       6.177  -6.376  26.545  0.00  0.00    -0.352 OA
BRANCH  12  13
ATOM     13  C   UNL     1       4.844  -6.127  26.993  0.00  0.00    +0.190 C 
BRANCH  13  14
ATOM     14  C   UNL     1       4.664  -6.748  28.372  0.00  0.00    +0.184 C 
BRANCH  14  15
ATOM     15  O   UNL     1       5.532  -7.862  28.522  0.00  0.00    -0.393 OA
ATOM     16  H   UNL     1       6.012  -7.960  27.681  0.00  0.00    +0.209 HD
ENDBRANCH  14  15
ENDBRANCH  13  14
ENDBRANCH  12  13
ENDBRANCH  11  12
ENDBRANCH  10  11
ENDBRANCH   9  10
ENDBRANCH   4   9
ENDBRANCH   3   6
ENDBRANCH   2   3
ENDBRANCH   1   2
BRANCH   1  17
ATOM     17  C   UNL     1       8.577   2.557  22.292  0.00  0.00    +0.041 C 
BRANCH  17  18
ATOM     18  C   UNL     1       9.127   3.430  23.418  0.00  0.00    +0.229 C 
BRANCH  18  19
ATOM     19  O   UNL     1       9.131   2.763  24.666  0.00  0.00    -0.489 OA
BRANCH  19  20
ATOM     20  C   UNL     1       8.097   1.892  24.937  0.00  0.00    +0.157 A 
ATOM     21  C   UNL     1       8.527   0.573  25.203  0.00  0.00    +0.085 A 
ATOM     22 CL   UNL     1      10.213   0.160  25.229  0.00  0.00    -0.080 Cl
ATOM     23  C   UNL     1       7.620  -0.459  25.461  0.00  0.00    +0.037 A 
ATOM     24  C   UNL     1       6.255  -0.197  25.465  0.00  0.00    +0.039 A 
ATOM     25  C   UNL     1       5.804   1.099  25.222  0.00  0.00    +0.037 A 
ATOM     26  C   UNL     1       6.706   2.139  24.961  0.00  0.00    +0.085 A 
ATOM     27 CL   UNL     1       5.911   3.655  24.675  0.00  0.00    -0.080 Cl
BRANCH  24  28
ATOM     28  C   UNL     1       5.259  -1.251  25.701  0.00  0.00    +0.218 C 
ATOM     29  O   UNL     1       4.701  -1.231  26.931  0.00  0.00    -0.474 OA
ATOM     30  C   UNL     1       3.976  -2.450  27.004  0.00  0.00    +0.254 C 
ATOM     31  C   UNL     1       3.849  -2.893  25.566  0.00  0.00    +0.186 C 
ATOM     32  N   UNL     1       4.903  -2.163  24.852  0.00  0.00    -0.247 NA
ENDBRANCH  24  28
ENDBRANCH  19  20
ENDBRANCH  18  19
ENDBRANCH  17  18
ENDBRANCH   1  17
TORSDOF 15
ENDMDL
MODEL 8
REMARK VINA RESULT:      -6.3      2.398      2.935
REMARK  Name = 
REMARK  15 active torsions:
REMARK  status: ('A' for Active; 'I' for Inactive)
REMARK    1  A    between atoms: O_1  and  C_2
REMARK    2  A    between atoms: C_2  and  C_3
REMARK    3  A    between atoms: C_3  and  O_4
REMARK    4  A    between atoms: O_4  and  C_5
REMARK    5  A    between atoms: C_5  and  O_6
REMARK    6  A    between atoms: O_6  and  C_7
REMARK    7  A    between atoms: C_7  and  C_8
REMARK    8  A    between atoms: C_11  and  C_12
REMARK    9  A    between atoms: C_12  and  C_13
REMARK   10  A    between atoms: C_13  and  C_14
REMARK   11  A    between atoms: C_14  and  C_15
REMARK   12  A    between atoms: C_15  and  C_16
REMARK   13  A    between atoms: C_16  and  O_17
REMARK   14  A    between atoms: O_17  and  C_18
REMARK   15  A    between atoms: C_22  and  C_26
REMARK                            x       y       z     vdW  Elec       q    Type
REMARK                         _______ _______ _______ _____ _____    ______ ____
ROOT
ATOM      1  C   UNL     1       8.528  -1.903  22.285  0.00  0.00    +0.004 C 
ENDROOT
BRANCH   1   2
ATOM      2  C   UNL     1       9.523  -1.647  23.419  0.00  0.00    +0.008 C 
BRANCH   2   3
ATOM      3  C   UNL     1      10.422  -0.438  23.184  0.00  0.00    +0.077 C 
BRANCH   3   6
ATOM      4  C   UNL     1       9.031   2.708  24.467  0.00  0.00    +0.109 A 
ATOM      5  C   UNL     1       9.929   2.111  23.553  0.00  0.00    +0.073 A 
ATOM      6  C   UNL     1       9.770   0.766  23.755  0.00  0.00    +0.138 A 
ATOM      7  O   UNL     1       8.856   0.562  24.742  0.00  0.00    -0.359 OA
ATOM      8  N   UNL     1       8.390   1.786  25.197  0.00  0.00    -0.081 NA
BRANCH   4   9
ATOM      9  C   UNL     1       8.770   4.162  24.645  0.00  0.00    +0.221 C 
BRANCH   9  10
ATOM     10  O   UNL     1       9.131   4.866  23.454  0.00  0.00    -0.348 OA
BRANCH  10  11
ATOM     11  C   UNL     1       9.995   5.957  23.716  0.00  0.00    +0.323 C 
BRANCH  11  12
ATOM     12  O   UNL     1      11.149   5.574  24.454  0.00  0.00    -0.352 OA
BRANCH  12  13
ATOM     13  C   UNL     1      12.339   6.147  23.911  0.00  0.00    +0.190 C 
BRANCH  13  14
ATOM     14  C   UNL     1      13.096   5.071  23.143  0.00  0.00    +0.184 C 
BRANCH  14  15
ATOM     15  O   UNL     1      14.081   5.669  22.312  0.00  0.00    -0.393 OA
ATOM     16  H   UNL     1      14.379   4.982  21.691  0.00  0.00    +0.209 HD
ENDBRANCH  14  15
ENDBRANCH  13  14
ENDBRANCH  12  13
ENDBRANCH  11  12
ENDBRANCH  10  11
ENDBRANCH   9  10
ENDBRANCH   4   9
ENDBRANCH   3   6
ENDBRANCH   2   3
ENDBRANCH   1   2
BRANCH   1  17
ATOM     17  C   UNL     1       7.269  -2.633  22.780  0.00  0.00    +0.041 C 
BRANCH  17  18
ATOM     18  C   UNL     1       7.205  -4.044  22.201  0.00  0.00    +0.229 C 
BRANCH  18  19
ATOM     19  O   UNL     1       7.753  -5.012  23.075  0.00  0.00    -0.489 OA
BRANCH  19  20
ATOM     20  C   UNL     1       7.219  -5.116  24.342  0.00  0.00    +0.157 A 
ATOM     21  C   UNL     1       8.186  -5.041  25.368  0.00  0.00    +0.085 A 
ATOM     22 CL   UNL     1       9.865  -4.784  25.011  0.00  0.00    -0.080 Cl
ATOM     23  C   UNL     1       7.840  -5.165  26.717  0.00  0.00    +0.037 A 
ATOM     24  C   UNL     1       6.512  -5.363  27.075  0.00  0.00    +0.039 A 
ATOM     25  C   UNL     1       5.535  -5.425  26.084  0.00  0.00    +0.037 A 
ATOM     26  C   UNL     1       5.873  -5.303  24.729  0.00  0.00    +0.085 A 
ATOM     27 CL   UNL     1       4.495  -5.426  23.683  0.00  0.00    -0.080 Cl
BRANCH  24  28
ATOM     28  C   UNL     1       6.098  -5.530  28.475  0.00  0.00    +0.218 C 
ATOM     29  O   UNL     1       6.783  -6.475  29.155  0.00  0.00    -0.474 OA
ATOM     30  C   UNL     1       6.063  -6.619  30.371  0.00  0.00    +0.254 C 
ATOM     31  C   UNL     1       5.212  -5.375  30.449  0.00  0.00    +0.186 C 
ATOM     32  N   UNL     1       5.155  -4.869  29.072  0.00  0.00    -0.247 NA
ENDBRANCH  24  28
ENDBRANCH  19  20
ENDBRANCH  18  19
ENDBRANCH  17  18
ENDBRANCH   1  17
TORSDOF 15
ENDMDL
MODEL 9
REMARK VINA RESULT:      -6.3      3.161      4.325
REMARK  Name = 
REMARK  15 active torsions:
REMARK  status: ('A' for Active; 'I' for Inactive)
REMARK    1  A    between atoms: O_1  and  C_2
REMARK    2  A    between atoms: C_2  and  C_3
REMARK    3  A    between atoms: C_3  and  O_4
REMARK    4  A    between atoms: O_4  and  C_5
REMARK    5  A    between atoms: C_5  and  O_6
REMARK    6  A    between atoms: O_6  and  C_7
REMARK    7  A    between atoms: C_7  and  C_8
REMARK    8  A    between atoms: C_11  and  C_12
REMARK    9  A    between atoms: C_12  and  C_13
REMARK   10  A    between atoms: C_13  and  C_14
REMARK   11  A    between atoms: C_14  and  C_15
REMARK   12  A    between atoms: C_15  and  C_16
REMARK   13  A    between atoms: C_16  and  O_17
REMARK   14  A    between atoms: O_17  and  C_18
REMARK   15  A    between atoms: C_22  and  C_26
REMARK                            x       y       z     vdW  Elec       q    Type
REMARK                         _______ _______ _______ _____ _____    ______ ____
ROOT
ATOM      1  C   UNL     1       9.048   0.740  21.495  0.00  0.00    +0.004 C 
ENDROOT
BRANCH   1   2
ATOM      2  C   UNL     1      10.119   1.695  22.025  0.00  0.00    +0.008 C 
BRANCH   2   3
ATOM      3  C   UNL     1      10.346   1.588  23.529  0.00  0.00    +0.077 C 
BRANCH   3   6
ATOM      4  C   UNL     1       8.288   4.168  25.137  0.00  0.00    +0.109 A 
ATOM      5  C   UNL     1       9.288   3.899  24.175  0.00  0.00    +0.073 A 
ATOM      6  C   UNL     1       9.442   2.538  24.222  0.00  0.00    +0.138 A 
ATOM      7  O   UNL     1       8.610   2.021  25.166  0.00  0.00    -0.359 OA
ATOM      8  N   UNL     1       7.882   3.047  25.748  0.00  0.00    -0.081 NA
BRANCH   4   9
ATOM      9  C   UNL     1       7.703   5.493  25.473  0.00  0.00    +0.221 C 
BRANCH   9  10
ATOM     10  O   UNL     1       7.517   6.256  24.277  0.00  0.00    -0.348 OA
BRANCH  10  11
ATOM     11  C   UNL     1       6.213   6.112  23.746  0.00  0.00    +0.323 C 
BRANCH  11  12
ATOM     12  O   UNL     1       6.179   5.269  22.600  0.00  0.00    -0.352 OA
BRANCH  12  13
ATOM     13  C   UNL     1       5.269   4.183  22.769  0.00  0.00    +0.190 C 
BRANCH  13  14
ATOM     14  C   UNL     1       5.994   2.880  22.458  0.00  0.00    +0.184 C 
BRANCH  14  15
ATOM     15  O   UNL     1       6.009   2.045  23.607  0.00  0.00    -0.393 OA
ATOM     16  H   UNL     1       5.957   2.631  24.381  0.00  0.00    +0.209 HD
ENDBRANCH  14  15
ENDBRANCH  13  14
ENDBRANCH  12  13
ENDBRANCH  11  12
ENDBRANCH  10  11
ENDBRANCH   9  10
ENDBRANCH   4   9
ENDBRANCH   3   6
ENDBRANCH   2   3
ENDBRANCH   1   2
BRANCH   1  17
ATOM     17  C   UNL     1       9.480  -0.731  21.617  0.00  0.00    +0.041 C 
BRANCH  17  18
ATOM     18  C   UNL     1       8.348  -1.574  22.202  0.00  0.00    +0.229 C 
BRANCH  18  19
ATOM     19  O   UNL     1       8.791  -2.846  22.635  0.00  0.00    -0.489 OA
BRANCH  19  20
ATOM     20  C   UNL     1       8.355  -3.299  23.862  0.00  0.00    +0.157 A 
ATOM     21  C   UNL     1       7.665  -4.530  23.795  0.00  0.00    +0.085 A 
ATOM     22 CL   UNL     1       7.466  -5.374  22.291  0.00  0.00    -0.080 Cl
ATOM     23  C   UNL     1       7.114  -5.130  24.931  0.00  0.00    +0.037 A 
ATOM     24  C   UNL     1       7.244  -4.513  26.170  0.00  0.00    +0.039 A 
ATOM     25  C   UNL     1       7.934  -3.307  26.268  0.00  0.00    +0.037 A 
ATOM     26  C   UNL     1       8.488  -2.698  25.133  0.00  0.00    +0.085 A 
ATOM     27 CL   UNL     1       9.284  -1.201  25.500  0.00  0.00    -0.080 Cl
BRANCH  24  28
ATOM     28  C   UNL     1       6.659  -5.084  27.391  0.00  0.00    +0.218 C 
ATOM     29  O   UNL     1       5.531  -4.472  27.813  0.00  0.00    -0.474 OA
ATOM     30  C   UNL     1       5.297  -5.024  29.101  0.00  0.00    +0.254 C 
ATOM     31  C   UNL     1       6.140  -6.276  29.128  0.00  0.00    +0.186 C 
ATOM     32  N   UNL     1       7.136  -6.083  28.067  0.00  0.00    -0.247 NA
ENDBRANCH  24  28
ENDBRANCH  19  20
ENDBRANCH  18  19
ENDBRANCH  17  18
ENDBRANCH   1  17
TORSDOF 15
ENDMDL
