MODEL 1
REMARK VINA RESULT:      -7.0      0.000      0.000
REMARK  Name = 
REMARK  10 active torsions:
REMARK  status: ('A' for Active; 'I' for Inactive)
REMARK    1  A    between atoms: C_1  and  N_2
REMARK    2  A    between atoms: N_9  and  C_10
REMARK    3  A    between atoms: C_13  and  C_15
REMARK    4  A    between atoms: C_15  and  O_16
REMARK    5  A    between atoms: O_16  and  P_17
REMARK    6  A    between atoms: P_17  and  O_18
REMARK    7  A    between atoms: P_17  and  O_19
REMARK    8  A    between atoms: C_21  and  O_23
REMARK    9  A    between atoms: C_24  and  O_26
REMARK   10  A    between atoms: C_27  and  N_29
REMARK                            x       y       z     vdW  Elec       q    Type
REMARK                         _______ _______ _______ _____ _____    ______ ____
ROOT
ATOM      1  C   UNL     1       6.592  -2.264  22.445  0.00  0.00    +0.253 C 
ATOM      2  C   UNL     1       6.773  -3.680  21.873  0.00  0.00    +0.195 C 
ATOM      3  C   UNL     1       6.831  -4.600  23.094  0.00  0.00    +0.178 C 
ATOM      4  C   UNL     1       6.663  -3.666  24.282  0.00  0.00    +0.178 C 
ATOM      5  O   UNL     1       6.060  -2.460  23.771  0.00  0.00    -0.346 OA
ENDROOT
BRANCH   1  12
ATOM      6  C   UNL     1       8.766   3.811  23.673  0.00  0.00    +0.132 C 
ATOM      7  N   UNL     1       8.519   2.416  23.315  0.00  0.00    -0.303 N 
ATOM      8  C   UNL     1       9.655   1.585  22.898  0.00  0.00    +0.193 C 
ATOM      9  C   UNL     1       9.201   0.192  22.694  0.00  0.00    +0.120 A 
ATOM     10  N   UNL     1       9.953  -0.873  22.279  0.00  0.00    -0.235 NA
ATOM     11  C   UNL     1       9.095  -1.874  22.218  0.00  0.00    +0.203 A 
ATOM     12  N   UNL     1       7.812  -1.472  22.502  0.00  0.00    -0.286 N 
ATOM     13  C   UNL     1       7.888  -0.157  22.877  0.00  0.00    +0.163 A 
ATOM     14  N   UNL     1       6.864   0.622  23.283  0.00  0.00    -0.221 NA
ATOM     15  C   UNL     1       7.201   1.854  23.487  0.00  0.00    +0.187 C 
BRANCH   8  16
ATOM     16  N   UNL     1      10.106   2.134  21.636  0.00  0.00    -0.308 NA
ATOM     17  H   UNL     1      11.094   2.366  21.765  0.00  0.00    +0.120 HD
ATOM     18  H   UNL     1      10.122   1.372  20.959  0.00  0.00    +0.120 HD
ENDBRANCH   8  16
ENDBRANCH   1  12
BRANCH   2  19
ATOM     19  O   UNL     1       5.648  -4.046  21.054  0.00  0.00    -0.385 OA
ATOM     20  H   UNL     1       5.256  -4.866  21.403  0.00  0.00    +0.210 HD
ENDBRANCH   2  19
BRANCH   3  21
ATOM     21  O   UNL     1       8.092  -5.264  23.159  0.00  0.00    -0.386 OA
ATOM     22  H   UNL     1       8.076  -5.886  23.909  0.00  0.00    +0.210 HD
ENDBRANCH   3  21
BRANCH   4  23
ATOM     23  C   UNL     1       5.803  -4.251  25.393  0.00  0.00    +0.206 C 
BRANCH  23  24
ATOM     24  O   UNL     1       6.463  -5.408  25.876  0.00  0.00    -0.284 OA
BRANCH  24  25
ATOM     25  P   UNL     1       7.758  -5.200  26.789  0.00  0.00    +0.472 P 
ATOM     26  O   UNL     1       8.067  -3.790  27.151  0.00  0.00    -0.228 OA
BRANCH  25  27
ATOM     27  O   UNL     1       8.885  -5.976  25.972  0.00  0.00    -0.303 OA
ATOM     28  H   UNL     1       9.785  -5.669  26.164  0.00  0.00    +0.222 HD
ENDBRANCH  25  27
BRANCH  25  29
ATOM     29  O   UNL     1       7.446  -6.185  28.001  0.00  0.00    -0.303 OA
ATOM     30  H   UNL     1       7.242  -7.086  27.695  0.00  0.00    +0.222 HD
ENDBRANCH  25  29
ENDBRANCH  24  25
ENDBRANCH  23  24
ENDBRANCH   4  23
TORSDOF 9
ENDMDL
MODEL 2
REMARK VINA RESULT:      -6.9      2.243      3.494
REMARK  Name = 
REMARK  10 active torsions:
REMARK  status: ('A' for Active; 'I' for Inactive)
REMARK    1  A    between atoms: C_1  and  N_2
REMARK    2  A    between atoms: N_9  and  C_10
REMARK    3  A    between atoms: C_13  and  C_15
REMARK    4  A    between atoms: C_15  and  O_16
REMARK    5  A    between atoms: O_16  and  P_17
REMARK    6  A    between atoms: P_17  and  O_18
REMARK    7  A    between atoms: P_17  and  O_19
REMARK    8  A    between atoms: C_21  and  O_23
REMARK    9  A    between atoms: C_24  and  O_26
REMARK   10  A    between atoms: C_27  and  N_29
REMARK                            x       y       z     vdW  Elec       q    Type
REMARK                         _______ _______ _______ _____ _____    ______ ____
ROOT
ATOM      1  C   UNL     1       9.382  -2.531  24.216  0.00  0.00    +0.253 C 
ATOM      2  C   UNL     1       8.229  -2.302  25.206  0.00  0.00    +0.195 C 
ATOM      3  C   UNL     1       7.100  -3.217  24.727  0.00  0.00    +0.178 C 
ATOM      4  C   UNL     1       7.677  -3.923  23.509  0.00  0.00    +0.178 C 
ATOM      5  O   UNL     1       9.110  -3.813  23.614  0.00  0.00    -0.346 OA
ENDROOT
BRANCH   1  12
ATOM      6  C   UNL     1      11.106   3.748  23.351  0.00  0.00    +0.132 C 
ATOM      7  N   UNL     1      10.636   2.365  23.304  0.00  0.00    -0.303 N 
ATOM      8  C   UNL     1      10.164   1.826  22.023  0.00  0.00    +0.193 C 
ATOM      9  C   UNL     1       9.846   0.389  22.177  0.00  0.00    +0.120 A 
ATOM     10  N   UNL     1       9.353  -0.458  21.222  0.00  0.00    -0.235 NA
ATOM     11  C   UNL     1       9.207  -1.609  21.852  0.00  0.00    +0.203 A 
ATOM     12  N   UNL     1       9.512  -1.508  23.189  0.00  0.00    -0.286 N 
ATOM     13  C   UNL     1       9.991  -0.241  23.386  0.00  0.00    +0.163 A 
ATOM     14  N   UNL     1      10.449   0.272  24.546  0.00  0.00    -0.221 NA
ATOM     15  C   UNL     1      10.753   1.527  24.473  0.00  0.00    +0.187 C 
BRANCH   8  16
ATOM     16  N   UNL     1       8.953   2.555  21.708  0.00  0.00    -0.308 NA
ATOM     17  H   UNL     1       8.218   2.150  22.291  0.00  0.00    +0.120 HD
ATOM     18  H   UNL     1       9.060   3.500  22.074  0.00  0.00    +0.120 HD
ENDBRANCH   8  16
ENDBRANCH   1  12
BRANCH   2  19
ATOM     19  O   UNL     1       8.617  -2.685  26.538  0.00  0.00    -0.385 OA
ATOM     20  H   UNL     1       9.567  -2.895  26.543  0.00  0.00    +0.210 HD
ENDBRANCH   2  19
BRANCH   3  21
ATOM     21  O   UNL     1       5.957  -2.448  24.358  0.00  0.00    -0.386 OA
ATOM     22  H   UNL     1       6.169  -1.503  24.473  0.00  0.00    +0.210 HD
ENDBRANCH   3  21
BRANCH   4  23
ATOM     23  C   UNL     1       7.270  -5.386  23.411  0.00  0.00    +0.206 C 
BRANCH  23  24
ATOM     24  O   UNL     1       5.993  -5.513  24.013  0.00  0.00    -0.284 OA
BRANCH  24  25
ATOM     25  P   UNL     1       4.771  -5.953  23.081  0.00  0.00    +0.472 P 
ATOM     26  O   UNL     1       3.699  -4.936  22.906  0.00  0.00    -0.228 OA
BRANCH  25  27
ATOM     27  O   UNL     1       4.323  -7.338  23.731  0.00  0.00    -0.303 OA
ATOM     28  H   UNL     1       3.636  -7.800  23.225  0.00  0.00    +0.222 HD
ENDBRANCH  25  27
BRANCH  25  29
ATOM     29  O   UNL     1       5.536  -6.404  21.759  0.00  0.00    -0.303 OA
ATOM     30  H   UNL     1       6.222  -5.765  21.499  0.00  0.00    +0.222 HD
ENDBRANCH  25  29
ENDBRANCH  24  25
ENDBRANCH  23  24
ENDBRANCH   4  23
TORSDOF 9
ENDMDL
MODEL 3
REMARK VINA RESULT:      -6.7      2.442      4.002
REMARK  Name = 
REMARK  10 active torsions:
REMARK  status: ('A' for Active; 'I' for Inactive)
REMARK    1  A    between atoms: C_1  and  N_2
REMARK    2  A    between atoms: N_9  and  C_10
REMARK    3  A    between atoms: C_13  and  C_15
REMARK    4  A    between atoms: C_15  and  O_16
REMARK    5  A    between atoms: O_16  and  P_17
REMARK    6  A    between atoms: P_17  and  O_18
REMARK    7  A    between atoms: P_17  and  O_19
REMARK    8  A    between atoms: C_21  and  O_23
REMARK    9  A    between atoms: C_24  and  O_26
REMARK   10  A    between atoms: C_27  and  N_29
REMARK                            x       y       z     vdW  Elec       q    Type
REMARK                         _______ _______ _______ _____ _____    ______ ____
ROOT
ATOM      1  C   UNL     1       8.650  -4.186  24.728  0.00  0.00    +0.253 C 
ATOM      2  C   UNL     1       9.010  -5.068  25.934  0.00  0.00    +0.195 C 
ATOM      3  C   UNL     1       7.672  -5.574  26.476  0.00  0.00    +0.178 C 
ATOM      4  C   UNL     1       6.633  -4.969  25.544  0.00  0.00    +0.178 C 
ATOM      5  O   UNL     1       7.329  -4.611  24.334  0.00  0.00    -0.346 OA
ENDROOT
BRANCH   1  12
ATOM      6  C   UNL     1       9.933   1.607  21.910  0.00  0.00    +0.132 C 
ATOM      7  N   UNL     1       9.637   0.451  22.755  0.00  0.00    -0.303 N 
ATOM      8  C   UNL     1       9.296   0.679  24.164  0.00  0.00    +0.193 C 
ATOM      9  C   UNL     1       8.925  -0.605  24.798  0.00  0.00    +0.120 A 
ATOM     10  N   UNL     1       8.573  -0.814  26.103  0.00  0.00    -0.235 NA
ATOM     11  C   UNL     1       8.372  -2.117  26.181  0.00  0.00    +0.203 A 
ATOM     12  N   UNL     1       8.659  -2.755  24.999  0.00  0.00    -0.286 N 
ATOM     13  C   UNL     1       8.948  -1.777  24.086  0.00  0.00    +0.163 A 
ATOM     14  N   UNL     1       9.244  -1.957  22.783  0.00  0.00    -0.221 NA
ATOM     15  C   UNL     1       9.569  -0.866  22.170  0.00  0.00    +0.187 C 
BRANCH   8  16
ATOM     16  N   UNL     1      10.500   1.192  24.785  0.00  0.00    -0.308 NA
ATOM     17  H   UNL     1      10.880   1.887  24.138  0.00  0.00    +0.120 HD
ATOM     18  H   UNL     1      10.217   1.743  25.595  0.00  0.00    +0.120 HD
ENDBRANCH   8  16
ENDBRANCH   1  12
BRANCH   2  19
ATOM     19  O   UNL     1       9.811  -6.192  25.522  0.00  0.00    -0.385 OA
ATOM     20  H   UNL     1      10.709  -5.881  25.314  0.00  0.00    +0.210 HD
ENDBRANCH   2  19
BRANCH   3  21
ATOM     21  O   UNL     1       7.468  -5.114  27.811  0.00  0.00    -0.386 OA
ATOM     22  H   UNL     1       7.133  -4.200  27.775  0.00  0.00    +0.210 HD
ENDBRANCH   3  21
BRANCH   4  23
ATOM     23  C   UNL     1       5.484  -5.914  25.227  0.00  0.00    +0.206 C 
BRANCH  23  24
ATOM     24  O   UNL     1       4.433  -5.136  24.680  0.00  0.00    -0.284 OA
BRANCH  24  25
ATOM     25  P   UNL     1       4.115  -5.306  23.122  0.00  0.00    +0.472 P 
ATOM     26  O   UNL     1       2.689  -5.560  22.783  0.00  0.00    -0.228 OA
BRANCH  25  27
ATOM     27  O   UNL     1       5.151  -6.433  22.679  0.00  0.00    -0.303 OA
ATOM     28  H   UNL     1       5.503  -6.307  21.784  0.00  0.00    +0.222 HD
ENDBRANCH  25  27
BRANCH  25  29
ATOM     29  O   UNL     1       4.753  -3.974  22.527  0.00  0.00    -0.303 OA
ATOM     30  H   UNL     1       5.151  -4.120  21.651  0.00  0.00    +0.222 HD
ENDBRANCH  25  29
ENDBRANCH  24  25
ENDBRANCH  23  24
ENDBRANCH   4  23
TORSDOF 9
ENDMDL
MODEL 4
REMARK VINA RESULT:      -6.7      4.914      7.455
REMARK  Name = 
REMARK  10 active torsions:
REMARK  status: ('A' for Active; 'I' for Inactive)
REMARK    1  A    between atoms: C_1  and  N_2
REMARK    2  A    between atoms: N_9  and  C_10
REMARK    3  A    between atoms: C_13  and  C_15
REMARK    4  A    between atoms: C_15  and  O_16
REMARK    5  A    between atoms: O_16  and  P_17
REMARK    6  A    between atoms: P_17  and  O_18
REMARK    7  A    between atoms: P_17  and  O_19
REMARK    8  A    between atoms: C_21  and  O_23
REMARK    9  A    between atoms: C_24  and  O_26
REMARK   10  A    between atoms: C_27  and  N_29
REMARK                            x       y       z     vdW  Elec       q    Type
REMARK                         _______ _______ _______ _____ _____    ______ ____
ROOT
ATOM      1  C   UNL     1       9.532   0.644  24.350  0.00  0.00    +0.253 C 
ATOM      2  C   UNL     1      10.285   1.545  23.358  0.00  0.00    +0.195 C 
ATOM      3  C   UNL     1       9.200   2.163  22.474  0.00  0.00    +0.178 C 
ATOM      4  C   UNL     1       7.899   1.595  23.019  0.00  0.00    +0.178 C 
ATOM      5  O   UNL     1       8.179   1.144  24.359  0.00  0.00    -0.346 OA
ENDROOT
BRANCH   1  12
ATOM      6  C   UNL     1       7.844  -5.252  26.701  0.00  0.00    +0.132 C 
ATOM      7  N   UNL     1       8.342  -4.072  25.997  0.00  0.00    -0.303 N 
ATOM      8  C   UNL     1       9.018  -4.256  24.707  0.00  0.00    +0.193 C 
ATOM      9  C   UNL     1       9.336  -2.935  24.122  0.00  0.00    +0.120 A 
ATOM     10  N   UNL     1       9.987  -2.685  22.945  0.00  0.00    -0.235 NA
ATOM     11  C   UNL     1      10.056  -1.368  22.885  0.00  0.00    +0.203 A 
ATOM     12  N   UNL     1       9.545  -0.772  24.013  0.00  0.00    -0.286 N 
ATOM     13  C   UNL     1       9.017  -1.775  24.780  0.00  0.00    +0.163 A 
ATOM     14  N   UNL     1       8.374  -1.632  25.957  0.00  0.00    -0.221 NA
ATOM     15  C   UNL     1       8.061  -2.756  26.516  0.00  0.00    +0.187 C 
BRANCH   8  16
ATOM     16  N   UNL     1      10.249  -4.960  25.002  0.00  0.00    -0.308 NA
ATOM     17  H   UNL     1      10.716  -5.102  24.103  0.00  0.00    +0.120 HD
ATOM     18  H   UNL     1      10.863  -4.313  25.494  0.00  0.00    +0.120 HD
ENDBRANCH   8  16
ENDBRANCH   1  12
BRANCH   2  19
ATOM     19  O   UNL     1      10.985   2.594  24.053  0.00  0.00    -0.385 OA
ATOM     20  H   UNL     1      10.383   3.001  24.700  0.00  0.00    +0.210 HD
ENDBRANCH   2  19
BRANCH   3  21
ATOM     21  O   UNL     1       9.381   1.770  21.114  0.00  0.00    -0.386 OA
ATOM     22  H   UNL     1       9.225   2.545  20.545  0.00  0.00    +0.210 HD
ENDBRANCH   3  21
BRANCH   4  23
ATOM     23  C   UNL     1       6.760   2.604  23.035  0.00  0.00    +0.206 C 
BRANCH  23  24
ATOM     24  O   UNL     1       7.095   3.637  22.124  0.00  0.00    -0.284 OA
BRANCH  24  25
ATOM     25  P   UNL     1       6.874   5.148  22.598  0.00  0.00    +0.472 P 
ATOM     26  O   UNL     1       7.348   5.465  23.971  0.00  0.00    -0.228 OA
BRANCH  25  27
ATOM     27  O   UNL     1       5.319   5.371  22.326  0.00  0.00    -0.303 OA
ATOM     28  H   UNL     1       4.795   5.481  23.135  0.00  0.00    +0.222 HD
ENDBRANCH  25  27
BRANCH  25  29
ATOM     29  O   UNL     1       7.568   5.951  21.410  0.00  0.00    -0.303 OA
ATOM     30  H   UNL     1       6.988   6.646  21.053  0.00  0.00    +0.222 HD
ENDBRANCH  25  29
ENDBRANCH  24  25
ENDBRANCH  23  24
ENDBRANCH   4  23
TORSDOF 9
ENDMDL
MODEL 5
REMARK VINA RESULT:      -6.6      1.626      2.122
REMARK  Name = 
REMARK  10 active torsions:
REMARK  status: ('A' for Active; 'I' for Inactive)
REMARK    1  A    between atoms: C_1  and  N_2
REMARK    2  A    between atoms: N_9  and  C_10
REMARK    3  A    between atoms: C_13  and  C_15
REMARK    4  A    between atoms: C_15  and  O_16
REMARK    5  A    between atoms: O_16  and  P_17
REMARK    6  A    between atoms: P_17  and  O_18
REMARK    7  A    between atoms: P_17  and  O_19
REMARK    8  A    between atoms: C_21  and  O_23
REMARK    9  A    between atoms: C_24  and  O_26
REMARK   10  A    between atoms: C_27  and  N_29
REMARK                            x       y       z     vdW  Elec       q    Type
REMARK                         _______ _______ _______ _____ _____    ______ ____
ROOT
ATOM      1  C   UNL     1       7.501  -3.257  23.765  0.00  0.00    +0.253 C 
ATOM      2  C   UNL     1       8.085  -4.642  23.445  0.00  0.00    +0.195 C 
ATOM      3  C   UNL     1       8.505  -5.223  24.797  0.00  0.00    +0.178 C 
ATOM      4  C   UNL     1       8.122  -4.150  25.805  0.00  0.00    +0.178 C 
ATOM      5  O   UNL     1       7.140  -3.315  25.160  0.00  0.00    -0.346 OA
ENDROOT
BRANCH   1  12
ATOM      6  C   UNL     1       7.588   3.241  22.807  0.00  0.00    +0.132 C 
ATOM      7  N   UNL     1       7.814   1.804  22.950  0.00  0.00    -0.303 N 
ATOM      8  C   UNL     1       9.183   1.291  22.820  0.00  0.00    +0.193 C 
ATOM      9  C   UNL     1       9.198  -0.160  23.111  0.00  0.00    +0.120 A 
ATOM     10  N   UNL     1      10.275  -1.003  23.069  0.00  0.00    -0.235 NA
ATOM     11  C   UNL     1       9.773  -2.186  23.370  0.00  0.00    +0.203 A 
ATOM     12  N   UNL     1       8.409  -2.145  23.525  0.00  0.00    -0.286 N 
ATOM     13  C   UNL     1       8.044  -0.829  23.428  0.00  0.00    +0.163 A 
ATOM     14  N   UNL     1       6.799  -0.329  23.564  0.00  0.00    -0.221 NA
ATOM     15  C   UNL     1       6.722   0.941  23.330  0.00  0.00    +0.187 C 
BRANCH   8  16
ATOM     16  N   UNL     1       9.557   1.507  21.438  0.00  0.00    -0.308 NA
ATOM     17  H   UNL     1       8.815   2.080  21.029  0.00  0.00    +0.120 HD
ATOM     18  H   UNL     1      10.370   2.122  21.432  0.00  0.00    +0.120 HD
ENDBRANCH   8  16
ENDBRANCH   1  12
BRANCH   2  19
ATOM     19  O   UNL     1       7.086  -5.492  22.853  0.00  0.00    -0.385 OA
ATOM     20  H   UNL     1       6.208  -5.098  22.997  0.00  0.00    +0.210 HD
ENDBRANCH   2  19
BRANCH   3  21
ATOM     21  O   UNL     1       9.912  -5.451  24.827  0.00  0.00    -0.386 OA
ATOM     22  H   UNL     1      10.262  -5.346  23.924  0.00  0.00    +0.210 HD
ENDBRANCH   3  21
BRANCH   4  23
ATOM     23  C   UNL     1       7.560  -4.713  27.102  0.00  0.00    +0.206 C 
BRANCH  23  24
ATOM     24  O   UNL     1       6.964  -5.963  26.799  0.00  0.00    -0.284 OA
BRANCH  24  25
ATOM     25  P   UNL     1       5.370  -6.023  26.699  0.00  0.00    +0.472 P 
ATOM     26  O   UNL     1       4.653  -4.805  27.162  0.00  0.00    -0.228 OA
BRANCH  25  27
ATOM     27  O   UNL     1       5.025  -7.374  27.471  0.00  0.00    -0.303 OA
ATOM     28  H   UNL     1       4.208  -7.799  27.165  0.00  0.00    +0.222 HD
ENDBRANCH  25  27
BRANCH  25  29
ATOM     29  O   UNL     1       5.170  -6.418  25.169  0.00  0.00    -0.303 OA
ATOM     30  H   UNL     1       5.805  -7.098  24.883  0.00  0.00    +0.222 HD
ENDBRANCH  25  29
ENDBRANCH  24  25
ENDBRANCH  23  24
ENDBRANCH   4  23
TORSDOF 9
ENDMDL
MODEL 6
REMARK VINA RESULT:      -6.4      4.231      6.720
REMARK  Name = 
REMARK  10 active torsions:
REMARK  status: ('A' for Active; 'I' for Inactive)
REMARK    1  A    between atoms: C_1  and  N_2
REMARK    2  A    between atoms: N_9  and  C_10
REMARK    3  A    between atoms: C_13  and  C_15
REMARK    4  A    between atoms: C_15  and  O_16
REMARK    5  A    between atoms: O_16  and  P_17
REMARK    6  A    between atoms: P_17  and  O_18
REMARK    7  A    between atoms: P_17  and  O_19
REMARK    8  A    between atoms: C_21  and  O_23
REMARK    9  A    between atoms: C_24  and  O_26
REMARK   10  A    between atoms: C_27  and  N_29
REMARK                            x       y       z     vdW  Elec       q    Type
REMARK                         _______ _______ _______ _____ _____    ______ ____
ROOT
ATOM      1  C   UNL     1       9.573  -1.954  23.103  0.00  0.00    +0.253 C 
ATOM      2  C   UNL     1       8.689  -1.253  22.059  0.00  0.00    +0.195 C 
ATOM      3  C   UNL     1       8.108  -0.034  22.779  0.00  0.00    +0.178 C 
ATOM      4  C   UNL     1       8.704  -0.101  24.177  0.00  0.00    +0.178 C 
ATOM      5  O   UNL     1       9.872  -0.940  24.084  0.00  0.00    -0.346 OA
ENDROOT
BRANCH   1  12
ATOM      6  C   UNL     1       4.160  -5.673  22.969  0.00  0.00    +0.132 C 
ATOM      7  N   UNL     1       5.418  -4.970  23.214  0.00  0.00    -0.303 N 
ATOM      8  C   UNL     1       6.279  -5.433  24.309  0.00  0.00    +0.193 C 
ATOM      9  C   UNL     1       7.542  -4.660  24.307  0.00  0.00    +0.120 A 
ATOM     10  N   UNL     1       8.585  -4.775  25.185  0.00  0.00    -0.235 NA
ATOM     11  C   UNL     1       9.445  -3.856  24.787  0.00  0.00    +0.203 A 
ATOM     12  N   UNL     1       8.958  -3.108  23.742  0.00  0.00    -0.286 N 
ATOM     13  C   UNL     1       7.762  -3.670  23.385  0.00  0.00    +0.163 A 
ATOM     14  N   UNL     1       6.962  -3.278  22.372  0.00  0.00    -0.221 NA
ATOM     15  C   UNL     1       5.843  -3.924  22.316  0.00  0.00    +0.187 C 
BRANCH   8  16
ATOM     16  N   UNL     1       5.550  -5.159  25.530  0.00  0.00    -0.308 NA
ATOM     17  H   UNL     1       5.271  -6.069  25.904  0.00  0.00    +0.120 HD
ATOM     18  H   UNL     1       6.219  -4.810  26.216  0.00  0.00    +0.120 HD
ENDBRANCH   8  16
ENDBRANCH   1  12
BRANCH   2  19
ATOM     19  O   UNL     1       9.477  -0.812  20.938  0.00  0.00    -0.385 OA
ATOM     20  H   UNL     1       8.924  -0.253  20.363  0.00  0.00    +0.210 HD
ENDBRANCH   2  19
BRANCH   3  21
ATOM     21  O   UNL     1       6.685  -0.123  22.842  0.00  0.00    -0.386 OA
ATOM     22  H   UNL     1       6.307   0.677  22.434  0.00  0.00    +0.210 HD
ENDBRANCH   3  21
BRANCH   4  23
ATOM     23  C   UNL     1       9.082   1.263  24.737  0.00  0.00    +0.206 C 
BRANCH  23  24
ATOM     24  O   UNL     1      10.341   1.612  24.189  0.00  0.00    -0.284 OA
BRANCH  24  25
ATOM     25  P   UNL     1      10.406   2.884  23.223  0.00  0.00    +0.472 P 
ATOM     26  O   UNL     1      11.563   3.794  23.436  0.00  0.00    -0.228 OA
BRANCH  25  27
ATOM     27  O   UNL     1       8.962   3.533  23.409  0.00  0.00    -0.303 OA
ATOM     28  H   UNL     1       8.250   3.022  22.993  0.00  0.00    +0.222 HD
ENDBRANCH  25  27
BRANCH  25  29
ATOM     29  O   UNL     1      10.309   2.191  21.792  0.00  0.00    -0.303 OA
ATOM     30  H   UNL     1      10.185   1.229  21.861  0.00  0.00    +0.222 HD
ENDBRANCH  25  29
ENDBRANCH  24  25
ENDBRANCH  23  24
ENDBRANCH   4  23
TORSDOF 9
ENDMDL
MODEL 7
REMARK VINA RESULT:      -6.4      1.414      2.012
REMARK  Name = 
REMARK  10 active torsions:
REMARK  status: ('A' for Active; 'I' for Inactive)
REMARK    1  A    between atoms: C_1  and  N_2
REMARK    2  A    between atoms: N_9  and  C_10
REMARK    3  A    between atoms: C_13  and  C_15
REMARK    4  A    between atoms: C_15  and  O_16
REMARK    5  A    between atoms: O_16  and  P_17
REMARK    6  A    between atoms: P_17  and  O_18
REMARK    7  A    between atoms: P_17  and  O_19
REMARK    8  A    between atoms: C_21  and  O_23
REMARK    9  A    between atoms: C_24  and  O_26
REMARK   10  A    between atoms: C_27  and  N_29
REMARK                            x       y       z     vdW  Elec       q    Type
REMARK                         _______ _______ _______ _____ _____    ______ ____
ROOT
ATOM      1  C   UNL     1       6.624  -2.504  22.609  0.00  0.00    +0.253 C 
ATOM      2  C   UNL     1       6.848  -3.916  22.045  0.00  0.00    +0.195 C 
ATOM      3  C   UNL     1       6.989  -4.820  23.270  0.00  0.00    +0.178 C 
ATOM      4  C   UNL     1       6.822  -3.881  24.455  0.00  0.00    +0.178 C 
ATOM      5  O   UNL     1       6.149  -2.709  23.956  0.00  0.00    -0.346 OA
ENDROOT
BRANCH   1  12
ATOM      6  C   UNL     1       8.548   3.702  23.573  0.00  0.00    +0.132 C 
ATOM      7  N   UNL     1       8.356   2.285  23.271  0.00  0.00    -0.303 N 
ATOM      8  C   UNL     1       9.521   1.489  22.865  0.00  0.00    +0.193 C 
ATOM      9  C   UNL     1       9.126   0.071  22.721  0.00  0.00    +0.120 A 
ATOM     10  N   UNL     1       9.917  -0.975  22.332  0.00  0.00    -0.235 NA
ATOM     11  C   UNL     1       9.103  -2.014  22.324  0.00  0.00    +0.203 A 
ATOM     12  N   UNL     1       7.808  -1.658  22.615  0.00  0.00    -0.286 N 
ATOM     13  C   UNL     1       7.832  -0.328  22.940  0.00  0.00    +0.163 A 
ATOM     14  N   UNL     1       6.782   0.421  23.335  0.00  0.00    -0.221 NA
ATOM     15  C   UNL     1       7.068   1.673  23.487  0.00  0.00    +0.187 C 
BRANCH   8  16
ATOM     16  N   UNL     1       9.927   2.009  21.576  0.00  0.00    -0.308 NA
ATOM     17  H   UNL     1       9.513   2.941  21.502  0.00  0.00    +0.120 HD
ATOM     18  H   UNL     1      10.929   2.191  21.620  0.00  0.00    +0.120 HD
ENDBRANCH   8  16
ENDBRANCH   1  12
BRANCH   2  19
ATOM     19  O   UNL     1       5.711  -4.341  21.270  0.00  0.00    -0.385 OA
ATOM     20  H   UNL     1       5.069  -4.773  21.860  0.00  0.00    +0.210 HD
ENDBRANCH   2  19
BRANCH   3  21
ATOM     21  O   UNL     1       8.281  -5.426  23.297  0.00  0.00    -0.386 OA
ATOM     22  H   UNL     1       8.245  -6.206  23.879  0.00  0.00    +0.210 HD
ENDBRANCH   3  21
BRANCH   4  23
ATOM     23  C   UNL     1       6.030  -4.492  25.602  0.00  0.00    +0.206 C 
BRANCH  23  24
ATOM     24  O   UNL     1       5.895  -5.877  25.335  0.00  0.00    -0.284 OA
BRANCH  24  25
ATOM     25  P   UNL     1       4.418  -6.487  25.297  0.00  0.00    +0.472 P 
ATOM     26  O   UNL     1       3.929  -7.064  26.578  0.00  0.00    -0.228 OA
BRANCH  25  27
ATOM     27  O   UNL     1       4.490  -7.490  24.060  0.00  0.00    -0.303 OA
ATOM     28  H   UNL     1       5.334  -7.964  23.993  0.00  0.00    +0.222 HD
ENDBRANCH  25  27
BRANCH  25  29
ATOM     29  O   UNL     1       3.588  -5.257  24.717  0.00  0.00    -0.303 OA
ATOM     30  H   UNL     1       2.731  -5.536  24.352  0.00  0.00    +0.222 HD
ENDBRANCH  25  29
ENDBRANCH  24  25
ENDBRANCH  23  24
ENDBRANCH   4  23
TORSDOF 9
ENDMDL
MODEL 8
REMARK VINA RESULT:      -6.3      4.428      6.917
REMARK  Name = 
REMARK  10 active torsions:
REMARK  status: ('A' for Active; 'I' for Inactive)
REMARK    1  A    between atoms: C_1  and  N_2
REMARK    2  A    between atoms: N_9  and  C_10
REMARK    3  A    between atoms: C_13  and  C_15
REMARK    4  A    between atoms: C_15  and  O_16
REMARK    5  A    between atoms: O_16  and  P_17
REMARK    6  A    between atoms: P_17  and  O_18
REMARK    7  A    between atoms: P_17  and  O_19
REMARK    8  A    between atoms: C_21  and  O_23
REMARK    9  A    between atoms: C_24  and  O_26
REMARK   10  A    between atoms: C_27  and  N_29
REMARK                            x       y       z     vdW  Elec       q    Type
REMARK                         _______ _______ _______ _____ _____    ______ ____
ROOT
ATOM      1  C   UNL     1       9.289  -0.613  24.663  0.00  0.00    +0.253 C 
ATOM      2  C   UNL     1      10.391  -0.238  23.660  0.00  0.00    +0.195 C 
ATOM      3  C   UNL     1       9.651   0.206  22.397  0.00  0.00    +0.178 C 
ATOM      4  C   UNL     1       8.178   0.077  22.756  0.00  0.00    +0.178 C 
ATOM      5  O   UNL     1       8.108   0.070  24.196  0.00  0.00    -0.346 OA
ENDROOT
BRANCH   1  12
ATOM      6  C   UNL     1       5.430  -4.952  27.734  0.00  0.00    +0.132 C 
ATOM      7  N   UNL     1       6.423  -4.191  26.979  0.00  0.00    -0.303 N 
ATOM      8  C   UNL     1       7.404  -4.924  26.170  0.00  0.00    +0.193 C 
ATOM      9  C   UNL     1       8.233  -3.965  25.407  0.00  0.00    +0.120 A 
ATOM     10  N   UNL     1       9.271  -4.254  24.564  0.00  0.00    -0.235 NA
ATOM     11  C   UNL     1       9.702  -3.073  24.163  0.00  0.00    +0.203 A 
ATOM     12  N   UNL     1       9.033  -2.042  24.777  0.00  0.00    -0.286 N 
ATOM     13  C   UNL     1       8.039  -2.613  25.526  0.00  0.00    +0.163 A 
ATOM     14  N   UNL     1       7.113  -1.963  26.260  0.00  0.00    -0.221 NA
ATOM     15  C   UNL     1       6.350  -2.750  26.946  0.00  0.00    +0.187 C 
BRANCH   8  16
ATOM     16  N   UNL     1       8.241  -5.638  27.113  0.00  0.00    -0.308 NA
ATOM     17  H   UNL     1       8.896  -4.948  27.490  0.00  0.00    +0.120 HD
ATOM     18  H   UNL     1       7.660  -5.883  27.914  0.00  0.00    +0.120 HD
ENDBRANCH   8  16
ENDBRANCH   1  12
BRANCH   2  19
ATOM     19  O   UNL     1      11.182   0.857  24.158  0.00  0.00    -0.385 OA
ATOM     20  H   UNL     1      11.114   1.604  23.537  0.00  0.00    +0.210 HD
ENDBRANCH   2  19
BRANCH   3  21
ATOM     21  O   UNL     1       9.972  -0.651  21.303  0.00  0.00    -0.386 OA
ATOM     22  H   UNL     1       9.227  -1.263  21.160  0.00  0.00    +0.210 HD
ENDBRANCH   3  21
BRANCH   4  23
ATOM     23  C   UNL     1       7.319   1.199  22.195  0.00  0.00    +0.206 C 
BRANCH  23  24
ATOM     24  O   UNL     1       8.170   2.308  21.959  0.00  0.00    -0.284 OA
BRANCH  24  25
ATOM     25  P   UNL     1       8.281   3.418  23.104  0.00  0.00    +0.472 P 
ATOM     26  O   UNL     1       9.582   3.467  23.824  0.00  0.00    -0.228 OA
BRANCH  25  27
ATOM     27  O   UNL     1       6.997   3.120  23.999  0.00  0.00    -0.303 OA
ATOM     28  H   UNL     1       6.331   3.825  23.969  0.00  0.00    +0.222 HD
ENDBRANCH  25  27
BRANCH  25  29
ATOM     29  O   UNL     1       7.869   4.732  22.305  0.00  0.00    -0.303 OA
ATOM     30  H   UNL     1       7.775   4.564  21.351  0.00  0.00    +0.222 HD
ENDBRANCH  25  29
ENDBRANCH  24  25
ENDBRANCH  23  24
ENDBRANCH   4  23
TORSDOF 9
ENDMDL
MODEL 9
REMARK VINA RESULT:      -6.3      1.673      2.396
REMARK  Name = 
REMARK  10 active torsions:
REMARK  status: ('A' for Active; 'I' for Inactive)
REMARK    1  A    between atoms: C_1  and  N_2
REMARK    2  A    between atoms: N_9  and  C_10
REMARK    3  A    between atoms: C_13  and  C_15
REMARK    4  A    between atoms: C_15  and  O_16
REMARK    5  A    between atoms: O_16  and  P_17
REMARK    6  A    between atoms: P_17  and  O_18
REMARK    7  A    between atoms: P_17  and  O_19
REMARK    8  A    between atoms: C_21  and  O_23
REMARK    9  A    between atoms: C_24  and  O_26
REMARK   10  A    between atoms: C_27  and  N_29
REMARK                            x       y       z     vdW  Elec       q    Type
REMARK                         _______ _______ _______ _____ _____    ______ ____
ROOT
ATOM      1  C   UNL     1       7.940  -1.664  25.273  0.00  0.00    +0.253 C 
ATOM      2  C   UNL     1       6.523  -1.684  24.679  0.00  0.00    +0.195 C 
ATOM      3  C   UNL     1       6.400  -3.038  23.977  0.00  0.00    +0.178 C 
ATOM      4  C   UNL     1       7.739  -3.715  24.225  0.00  0.00    +0.178 C 
ATOM      5  O   UNL     1       8.330  -3.051  25.359  0.00  0.00    -0.346 OA
ENDROOT
BRANCH   1  12
ATOM      6  C   UNL     1       9.779   4.469  23.809  0.00  0.00    +0.132 C 
ATOM      7  N   UNL     1       9.529   3.036  23.947  0.00  0.00    -0.303 N 
ATOM      8  C   UNL     1      10.354   2.100  23.173  0.00  0.00    +0.193 C 
ATOM      9  C   UNL     1      10.010   0.710  23.548  0.00  0.00    +0.120 A 
ATOM     10  N   UNL     1      10.537  -0.442  23.031  0.00  0.00    -0.235 NA
ATOM     11  C   UNL     1       9.888  -1.406  23.658  0.00  0.00    +0.203 A 
ATOM     12  N   UNL     1       8.915  -0.914  24.494  0.00  0.00    -0.286 N 
ATOM     13  C   UNL     1       9.038   0.449  24.479  0.00  0.00    +0.163 A 
ATOM     14  N   UNL     1       8.308   1.329  25.194  0.00  0.00    -0.221 NA
ATOM     15  C   UNL     1       8.569   2.565  24.916  0.00  0.00    +0.187 C 
BRANCH   8  16
ATOM     16  N   UNL     1      10.009   2.322  21.784  0.00  0.00    -0.308 NA
ATOM     17  H   UNL     1       8.993   2.219  21.724  0.00  0.00    +0.120 HD
ATOM     18  H   UNL     1      10.165   3.309  21.583  0.00  0.00    +0.120 HD
ENDBRANCH   8  16
ENDBRANCH   1  12
BRANCH   2  19
ATOM     19  O   UNL     1       5.532  -1.597  25.720  0.00  0.00    -0.385 OA
ATOM     20  H   UNL     1       4.861  -2.287  25.576  0.00  0.00    +0.210 HD
ENDBRANCH   2  19
BRANCH   3  21
ATOM     21  O   UNL     1       6.187  -2.858  22.578  0.00  0.00    -0.386 OA
ATOM     22  H   UNL     1       5.907  -1.937  22.424  0.00  0.00    +0.210 HD
ENDBRANCH   3  21
BRANCH   4  23
ATOM     23  C   UNL     1       7.619  -5.208  24.496  0.00  0.00    +0.206 C 
BRANCH  23  24
ATOM     24  O   UNL     1       6.417  -5.413  25.218  0.00  0.00    -0.284 OA
BRANCH  24  25
ATOM     25  P   UNL     1       6.525  -5.619  26.800  0.00  0.00    +0.472 P 
ATOM     26  O   UNL     1       5.689  -6.714  27.362  0.00  0.00    -0.228 OA
BRANCH  25  27
ATOM     27  O   UNL     1       6.230  -4.156  27.359  0.00  0.00    -0.303 OA
ATOM     28  H   UNL     1       5.289  -3.919  27.351  0.00  0.00    +0.222 HD
ENDBRANCH  25  27
BRANCH  25  29
ATOM     29  O   UNL     1       8.099  -5.768  26.987  0.00  0.00    -0.303 OA
ATOM     30  H   UNL     1       8.594  -5.344  26.264  0.00  0.00    +0.222 HD
ENDBRANCH  25  29
ENDBRANCH  24  25
ENDBRANCH  23  24
ENDBRANCH   4  23
TORSDOF 9
ENDMDL
