MODEL 1
REMARK VINA RESULT:      -6.8      0.000      0.000
REMARK  Name = 
REMARK  8 active torsions:
REMARK  status: ('A' for Active; 'I' for Inactive)
REMARK    1  A    between atoms: C_1  and  N_2
REMARK    2  A    between atoms: N_2  and  C_3
REMARK    3  A    between atoms: C_7  and  O_16
REMARK    4  A    between atoms: O_16  and  C_17
REMARK    5  A    between atoms: C_17  and  C_19
REMARK    6  A    between atoms: C_19  and  O_20
REMARK    7  A    between atoms: C_19  and  C_21
REMARK    8  A    between atoms: C_19  and  C_26
REMARK                            x       y       z     vdW  Elec       q    Type
REMARK                         _______ _______ _______ _____ _____    ______ ____
ROOT
ATOM      1  C   UNL     1       8.446  -2.743  24.388  0.00  0.00    +0.350 C 
ATOM      2  O   UNL     1       9.435  -3.262  23.873  0.00  0.00    -0.247 OA
ENDROOT
BRANCH   1   3
ATOM      3  O   UNL     1       8.475  -1.475  24.939  0.00  0.00    -0.458 OA
BRANCH   3  11
ATOM      4  C   UNL     1       8.794   4.007  23.517  0.00  0.00    +0.193 C 
ATOM      5  N   UNL     1       8.655   2.541  23.981  0.00  0.00    +0.247 N 
ATOM      6  C   UNL     1       7.890   1.705  22.917  0.00  0.00    +0.102 C 
ATOM      7  C   UNL     1       8.863   1.623  21.744  0.00  0.00    +0.201 C 
ATOM      8  C   UNL     1      10.252   1.693  22.358  0.00  0.00    +0.201 C 
ATOM      9  O   UNL     1       9.787   0.547  21.656  0.00  0.00    -0.357 OA
ATOM     10  C   UNL     1       7.567   0.317  23.520  0.00  0.00    +0.102 C 
ATOM     11  C   UNL     1       8.823  -0.451  23.984  0.00  0.00    +0.187 C 
ATOM     12  C   UNL     1       9.931   0.458  24.558  0.00  0.00    +0.102 C 
ATOM     13  C   UNL     1      10.030   1.824  23.861  0.00  0.00    +0.102 C 
ATOM     14  C   UNL     1       8.031   2.603  25.363  0.00  0.00    +0.193 C 
ENDBRANCH   3  11
ENDBRANCH   1   3
BRANCH   1  15
ATOM     15  C   UNL     1       7.026  -3.391  24.467  0.00  0.00    +0.226 C 
BRANCH  15  16
ATOM     16  C   UNL     1       6.904  -4.064  25.835  0.00  0.00    +0.037 A 
ATOM     17  S   UNL     1       5.587  -3.734  26.905  0.00  0.00    -0.098 S 
ATOM     18  C   UNL     1       6.060  -4.955  27.999  0.00  0.00    +0.045 A 
ATOM     19  C   UNL     1       7.224  -5.571  27.611  0.00  0.00    +0.008 A 
ATOM     20  C   UNL     1       7.719  -5.046  26.383  0.00  0.00    +0.015 A 
ENDBRANCH  15  16
BRANCH  15  21
ATOM     21  C   UNL     1       6.847  -4.270  23.231  0.00  0.00    +0.037 A 
ATOM     22  S   UNL     1       5.971  -3.622  21.879  0.00  0.00    -0.098 S 
ATOM     23  C   UNL     1       6.224  -5.018  20.940  0.00  0.00    +0.045 A 
ATOM     24  C   UNL     1       6.923  -5.982  21.629  0.00  0.00    +0.008 A 
ATOM     25  C   UNL     1       7.265  -5.561  22.951  0.00  0.00    +0.015 A 
ENDBRANCH  15  21
BRANCH  15  26
ATOM     26  O   UNL     1       5.970  -2.422  24.416  0.00  0.00    -0.369 OA
ATOM     27  H   UNL     1       6.190  -1.746  25.080  0.00  0.00    +0.212 HD
ENDBRANCH  15  26
ENDBRANCH   1  15
TORSDOF 6
ENDMDL
MODEL 2
REMARK VINA RESULT:      -6.8      1.140      3.400
REMARK  Name = 
REMARK  8 active torsions:
REMARK  status: ('A' for Active; 'I' for Inactive)
REMARK    1  A    between atoms: C_1  and  N_2
REMARK    2  A    between atoms: N_2  and  C_3
REMARK    3  A    between atoms: C_7  and  O_16
REMARK    4  A    between atoms: O_16  and  C_17
REMARK    5  A    between atoms: C_17  and  C_19
REMARK    6  A    between atoms: C_19  and  O_20
REMARK    7  A    between atoms: C_19  and  C_21
REMARK    8  A    between atoms: C_19  and  C_26
REMARK                            x       y       z     vdW  Elec       q    Type
REMARK                         _______ _______ _______ _____ _____    ______ ____
ROOT
ATOM      1  C   UNL     1       9.097  -3.185  24.190  0.00  0.00    +0.350 C 
ATOM      2  O   UNL     1      10.260  -3.089  23.803  0.00  0.00    -0.247 OA
ENDROOT
BRANCH   1   3
ATOM      3  O   UNL     1       8.370  -2.097  24.635  0.00  0.00    -0.458 OA
BRANCH   3  11
ATOM      4  C   UNL     1       8.418   3.574  24.588  0.00  0.00    +0.193 C 
ATOM      5  N   UNL     1       8.338   2.035  24.672  0.00  0.00    +0.247 N 
ATOM      6  C   UNL     1       7.832   1.444  23.325  0.00  0.00    +0.102 C 
ATOM      7  C   UNL     1       8.984   1.696  22.357  0.00  0.00    +0.201 C 
ATOM      8  C   UNL     1      10.245   1.684  23.207  0.00  0.00    +0.201 C 
ATOM      9  O   UNL     1      10.003   0.720  22.189  0.00  0.00    -0.357 OA
ATOM     10  C   UNL     1       7.543  -0.063  23.527  0.00  0.00    +0.102 C 
ATOM     11  C   UNL     1       8.772  -0.857  24.018  0.00  0.00    +0.187 C 
ATOM     12  C   UNL     1       9.688  -0.060  24.972  0.00  0.00    +0.102 C 
ATOM     13  C   UNL     1       9.774   1.437  24.635  0.00  0.00    +0.102 C 
ATOM     14  C   UNL     1       7.498   1.731  25.897  0.00  0.00    +0.193 C 
ENDBRANCH   3  11
ENDBRANCH   1   3
BRANCH   1  15
ATOM     15  C   UNL     1       8.261  -4.504  24.207  0.00  0.00    +0.226 C 
BRANCH  15  16
ATOM     16  C   UNL     1       7.493  -4.579  22.885  0.00  0.00    +0.037 A 
ATOM     17  S   UNL     1       7.135  -6.086  22.117  0.00  0.00    -0.098 S 
ATOM     18  C   UNL     1       6.155  -5.345  20.933  0.00  0.00    +0.045 A 
ATOM     19  C   UNL     1       6.136  -3.978  21.062  0.00  0.00    +0.008 A 
ATOM     20  C   UNL     1       6.920  -3.539  22.166  0.00  0.00    +0.015 A 
ENDBRANCH  15  16
BRANCH  15  21
ATOM     21  C   UNL     1       7.444  -4.520  25.497  0.00  0.00    +0.037 A 
ATOM     22  S   UNL     1       5.761  -4.100  25.412  0.00  0.00    -0.098 S 
ATOM     23  C   UNL     1       5.521  -4.388  27.072  0.00  0.00    +0.045 A 
ATOM     24  C   UNL     1       6.685  -4.760  27.704  0.00  0.00    +0.008 A 
ATOM     25  C   UNL     1       7.793  -4.818  26.805  0.00  0.00    +0.015 A 
ENDBRANCH  15  21
BRANCH  15  26
ATOM     26  O   UNL     1       9.079  -5.682  24.247  0.00  0.00    -0.369 OA
ATOM     27  H   UNL     1       9.972  -5.399  23.984  0.00  0.00    +0.212 HD
ENDBRANCH  15  26
ENDBRANCH   1  15
TORSDOF 6
ENDMDL
MODEL 3
REMARK VINA RESULT:      -6.7      1.608      1.925
REMARK  Name = 
REMARK  8 active torsions:
REMARK  status: ('A' for Active; 'I' for Inactive)
REMARK    1  A    between atoms: C_1  and  N_2
REMARK    2  A    between atoms: N_2  and  C_3
REMARK    3  A    between atoms: C_7  and  O_16
REMARK    4  A    between atoms: O_16  and  C_17
REMARK    5  A    between atoms: C_17  and  C_19
REMARK    6  A    between atoms: C_19  and  O_20
REMARK    7  A    between atoms: C_19  and  C_21
REMARK    8  A    between atoms: C_19  and  C_26
REMARK                            x       y       z     vdW  Elec       q    Type
REMARK                         _______ _______ _______ _____ _____    ______ ____
ROOT
ATOM      1  C   UNL     1       7.344  -3.384  25.757  0.00  0.00    +0.350 C 
ATOM      2  O   UNL     1       8.296  -3.967  26.273  0.00  0.00    -0.247 OA
ENDROOT
BRANCH   1   3
ATOM      3  O   UNL     1       7.362  -2.028  25.485  0.00  0.00    -0.458 OA
BRANCH   3  11
ATOM      4  C   UNL     1      10.035   1.862  22.341  0.00  0.00    +0.193 C 
ATOM      5  N   UNL     1       9.264   0.877  23.244  0.00  0.00    +0.247 N 
ATOM      6  C   UNL     1       8.309  -0.007  22.393  0.00  0.00    +0.102 C 
ATOM      7  C   UNL     1       9.250  -0.905  21.596  0.00  0.00    +0.201 C 
ATOM      8  C   UNL     1      10.490  -1.070  22.460  0.00  0.00    +0.201 C 
ATOM      9  O   UNL     1       9.648  -2.165  22.118  0.00  0.00    -0.357 OA
ATOM     10  C   UNL     1       7.393  -0.807  23.351  0.00  0.00    +0.102 C 
ATOM     11  C   UNL     1       8.177  -1.691  24.344  0.00  0.00    +0.187 C 
ATOM     12  C   UNL     1       9.513  -1.072  24.808  0.00  0.00    +0.102 C 
ATOM     13  C   UNL     1      10.224  -0.253  23.719  0.00  0.00    +0.102 C 
ATOM     14  C   UNL     1       8.616   1.724  24.322  0.00  0.00    +0.193 C 
ENDBRANCH   3  11
ENDBRANCH   1   3
BRANCH   1  15
ATOM     15  C   UNL     1       6.014  -4.063  25.299  0.00  0.00    +0.226 C 
BRANCH  15  16
ATOM     16  C   UNL     1       5.519  -4.932  26.456  0.00  0.00    +0.037 A 
ATOM     17  S   UNL     1       4.891  -4.247  27.913  0.00  0.00    -0.098 S 
ATOM     18  C   UNL     1       4.406  -5.767  28.518  0.00  0.00    +0.045 A 
ATOM     19  C   UNL     1       4.758  -6.793  27.676  0.00  0.00    +0.008 A 
ATOM     20  C   UNL     1       5.415  -6.316  26.506  0.00  0.00    +0.015 A 
ENDBRANCH  15  16
BRANCH  15  21
ATOM     21  C   UNL     1       6.281  -4.754  23.963  0.00  0.00    +0.037 A 
ATOM     22  S   UNL     1       4.927  -5.113  22.937  0.00  0.00    -0.098 S 
ATOM     23  C   UNL     1       5.921  -5.752  21.712  0.00  0.00    +0.045 A 
ATOM     24  C   UNL     1       7.250  -5.738  22.067  0.00  0.00    +0.008 A 
ATOM     25  C   UNL     1       7.456  -5.183  23.367  0.00  0.00    +0.015 A 
ENDBRANCH  15  21
BRANCH  15  26
ATOM     26  O   UNL     1       4.965  -3.117  25.048  0.00  0.00    -0.369 OA
ATOM     27  H   UNL     1       5.402  -2.258  24.916  0.00  0.00    +0.212 HD
ENDBRANCH  15  26
ENDBRANCH   1  15
TORSDOF 6
ENDMDL
MODEL 4
REMARK VINA RESULT:      -6.6      1.247      3.635
REMARK  Name = 
REMARK  8 active torsions:
REMARK  status: ('A' for Active; 'I' for Inactive)
REMARK    1  A    between atoms: C_1  and  N_2
REMARK    2  A    between atoms: N_2  and  C_3
REMARK    3  A    between atoms: C_7  and  O_16
REMARK    4  A    between atoms: O_16  and  C_17
REMARK    5  A    between atoms: C_17  and  C_19
REMARK    6  A    between atoms: C_19  and  O_20
REMARK    7  A    between atoms: C_19  and  C_21
REMARK    8  A    between atoms: C_19  and  C_26
REMARK                            x       y       z     vdW  Elec       q    Type
REMARK                         _______ _______ _______ _____ _____    ______ ____
ROOT
ATOM      1  C   UNL     1       7.676  -2.835  24.533  0.00  0.00    +0.350 C 
ATOM      2  O   UNL     1       6.732  -2.198  24.996  0.00  0.00    -0.247 OA
ENDROOT
BRANCH   1   3
ATOM      3  O   UNL     1       8.835  -2.228  24.086  0.00  0.00    -0.458 OA
BRANCH   3  11
ATOM      4  C   UNL     1      10.674   3.083  23.322  0.00  0.00    +0.193 C 
ATOM      5  N   UNL     1      10.250   1.623  23.588  0.00  0.00    +0.247 N 
ATOM      6  C   UNL     1       8.866   1.580  24.296  0.00  0.00    +0.102 C 
ATOM      7  C   UNL     1       7.889   2.053  23.223  0.00  0.00    +0.201 C 
ATOM      8  C   UNL     1       8.506   1.639  21.896  0.00  0.00    +0.201 C 
ATOM      9  O   UNL     1       7.268   1.111  22.358  0.00  0.00    -0.357 OA
ATOM     10  C   UNL     1       8.591   0.127  24.753  0.00  0.00    +0.102 C 
ATOM     11  C   UNL     1       8.617  -0.890  23.592  0.00  0.00    +0.187 C 
ATOM     12  C   UNL     1       9.647  -0.553  22.492  0.00  0.00    +0.102 C 
ATOM     13  C   UNL     1       9.820   0.954  22.251  0.00  0.00    +0.102 C 
ATOM     14  C   UNL     1      11.407   0.986  24.334  0.00  0.00    +0.193 C 
ENDBRANCH   3  11
ENDBRANCH   1   3
BRANCH   1  15
ATOM     15  C   UNL     1       7.739  -4.392  24.414  0.00  0.00    +0.226 C 
BRANCH  15  16
ATOM     16  C   UNL     1       7.106  -4.777  23.075  0.00  0.00    +0.037 A 
ATOM     17  S   UNL     1       6.111  -3.681  22.183  0.00  0.00    -0.098 S 
ATOM     18  C   UNL     1       6.016  -4.728  20.840  0.00  0.00    +0.045 A 
ATOM     19  C   UNL     1       6.668  -5.916  21.066  0.00  0.00    +0.008 A 
ATOM     20  C   UNL     1       7.273  -5.952  22.354  0.00  0.00    +0.015 A 
ENDBRANCH  15  16
BRANCH  15  21
ATOM     21  C   UNL     1       7.121  -4.981  25.680  0.00  0.00    +0.037 A 
ATOM     22  S   UNL     1       5.493  -5.579  25.600  0.00  0.00    -0.098 S 
ATOM     23  C   UNL     1       5.518  -6.098  27.221  0.00  0.00    +0.045 A 
ATOM     24  C   UNL     1       6.711  -5.802  27.839  0.00  0.00    +0.008 A 
ATOM     25  C   UNL     1       7.625  -5.143  26.961  0.00  0.00    +0.015 A 
ENDBRANCH  15  21
BRANCH  15  26
ATOM     26  O   UNL     1       9.083  -4.891  24.364  0.00  0.00    -0.369 OA
ATOM     27  H   UNL     1       9.572  -4.295  23.771  0.00  0.00    +0.212 HD
ENDBRANCH  15  26
ENDBRANCH   1  15
TORSDOF 6
ENDMDL
MODEL 5
REMARK VINA RESULT:      -6.6      2.009      2.610
REMARK  Name = 
REMARK  8 active torsions:
REMARK  status: ('A' for Active; 'I' for Inactive)
REMARK    1  A    between atoms: C_1  and  N_2
REMARK    2  A    between atoms: N_2  and  C_3
REMARK    3  A    between atoms: C_7  and  O_16
REMARK    4  A    between atoms: O_16  and  C_17
REMARK    5  A    between atoms: C_17  and  C_19
REMARK    6  A    between atoms: C_19  and  O_20
REMARK    7  A    between atoms: C_19  and  C_21
REMARK    8  A    between atoms: C_19  and  C_26
REMARK                            x       y       z     vdW  Elec       q    Type
REMARK                         _______ _______ _______ _____ _____    ______ ____
ROOT
ATOM      1  C   UNL     1       6.608  -2.716  22.823  0.00  0.00    +0.350 C 
ATOM      2  O   UNL     1       5.899  -2.624  21.823  0.00  0.00    -0.247 OA
ENDROOT
BRANCH   1   3
ATOM      3  O   UNL     1       7.888  -2.197  22.876  0.00  0.00    -0.458 OA
BRANCH   3  11
ATOM      4  C   UNL     1      10.562   2.757  23.575  0.00  0.00    +0.193 C 
ATOM      5  N   UNL     1       9.901   1.368  23.443  0.00  0.00    +0.247 N 
ATOM      6  C   UNL     1       8.458   1.396  24.021  0.00  0.00    +0.102 C 
ATOM      7  C   UNL     1       7.682   2.263  23.033  0.00  0.00    +0.201 C 
ATOM      8  C   UNL     1       8.371   2.071  21.691  0.00  0.00    +0.201 C 
ATOM      9  O   UNL     1       7.027   1.667  21.922  0.00  0.00    -0.357 OA
ATOM     10  C   UNL     1       7.924  -0.055  24.085  0.00  0.00    +0.102 C 
ATOM     11  C   UNL     1       7.925  -0.764  22.714  0.00  0.00    +0.187 C 
ATOM     12  C   UNL     1       9.106  -0.360  21.805  0.00  0.00    +0.102 C 
ATOM     13  C   UNL     1       9.524   1.111  21.955  0.00  0.00    +0.102 C 
ATOM     14  C   UNL     1      10.864   0.389  24.086  0.00  0.00    +0.193 C 
ENDBRANCH   3  11
ENDBRANCH   1   3
BRANCH   1  15
ATOM     15  C   UNL     1       6.181  -3.378  24.173  0.00  0.00    +0.226 C 
BRANCH  15  16
ATOM     16  C   UNL     1       7.437  -3.975  24.810  0.00  0.00    +0.037 A 
ATOM     17  S   UNL     1       8.040  -3.429  26.335  0.00  0.00    -0.098 S 
ATOM     18  C   UNL     1       9.220  -4.660  26.404  0.00  0.00    +0.045 A 
ATOM     19  C   UNL     1       9.214  -5.443  25.276  0.00  0.00    +0.008 A 
ATOM     20  C   UNL     1       8.208  -5.036  24.354  0.00  0.00    +0.015 A 
ENDBRANCH  15  16
BRANCH  15  21
ATOM     21  C   UNL     1       5.021  -4.326  23.878  0.00  0.00    +0.037 A 
ATOM     22  S   UNL     1       3.481  -3.996  24.608  0.00  0.00    -0.098 S 
ATOM     23  C   UNL     1       2.737  -5.315  23.831  0.00  0.00    +0.045 A 
ATOM     24  C   UNL     1       3.627  -6.026  23.060  0.00  0.00    +0.008 A 
ATOM     25  C   UNL     1       4.942  -5.471  23.101  0.00  0.00    +0.015 A 
ENDBRANCH  15  21
BRANCH  15  26
ATOM     26  O   UNL     1       5.679  -2.427  25.123  0.00  0.00    -0.369 OA
ATOM     27  H   UNL     1       4.737  -2.636  25.243  0.00  0.00    +0.212 HD
ENDBRANCH  15  26
ENDBRANCH   1  15
TORSDOF 6
ENDMDL
MODEL 6
REMARK VINA RESULT:      -6.6      2.173      2.726
REMARK  Name = 
REMARK  8 active torsions:
REMARK  status: ('A' for Active; 'I' for Inactive)
REMARK    1  A    between atoms: C_1  and  N_2
REMARK    2  A    between atoms: N_2  and  C_3
REMARK    3  A    between atoms: C_7  and  O_16
REMARK    4  A    between atoms: O_16  and  C_17
REMARK    5  A    between atoms: C_17  and  C_19
REMARK    6  A    between atoms: C_19  and  O_20
REMARK    7  A    between atoms: C_19  and  C_21
REMARK    8  A    between atoms: C_19  and  C_26
REMARK                            x       y       z     vdW  Elec       q    Type
REMARK                         _______ _______ _______ _____ _____    ______ ____
ROOT
ATOM      1  C   UNL     1       5.641  -2.671  23.507  0.00  0.00    +0.350 C 
ATOM      2  O   UNL     1       5.466  -2.873  22.307  0.00  0.00    -0.247 OA
ENDROOT
BRANCH   1   3
ATOM      3  O   UNL     1       6.111  -1.466  23.996  0.00  0.00    -0.458 OA
BRANCH   3  11
ATOM      4  C   UNL     1      10.523   2.090  23.748  0.00  0.00    +0.193 C 
ATOM      5  N   UNL     1       9.282   1.183  23.880  0.00  0.00    +0.247 N 
ATOM      6  C   UNL     1       8.538   1.078  22.519  0.00  0.00    +0.102 C 
ATOM      7  C   UNL     1       9.488   0.269  21.641  0.00  0.00    +0.201 C 
ATOM      8  C   UNL     1      10.258  -0.633  22.593  0.00  0.00    +0.201 C 
ATOM      9  O   UNL     1       9.385  -1.148  21.594  0.00  0.00    -0.357 OA
ATOM     10  C   UNL     1       7.185   0.362  22.750  0.00  0.00    +0.102 C 
ATOM     11  C   UNL     1       7.340  -1.042  23.370  0.00  0.00    +0.187 C 
ATOM     12  C   UNL     1       8.514  -1.157  24.367  0.00  0.00    +0.102 C 
ATOM     13  C   UNL     1       9.732  -0.303  23.985  0.00  0.00    +0.102 C 
ATOM     14  C   UNL     1       8.484   1.741  25.042  0.00  0.00    +0.193 C 
ENDBRANCH   3  11
ENDBRANCH   1   3
BRANCH   1  15
ATOM     15  C   UNL     1       5.333  -3.693  24.647  0.00  0.00    +0.226 C 
BRANCH  15  16
ATOM     16  C   UNL     1       6.658  -4.342  25.053  0.00  0.00    +0.037 A 
ATOM     17  S   UNL     1       7.801  -4.902  23.884  0.00  0.00    -0.098 S 
ATOM     18  C   UNL     1       8.976  -5.244  25.072  0.00  0.00    +0.045 A 
ATOM     19  C   UNL     1       8.510  -5.004  26.341  0.00  0.00    +0.008 A 
ATOM     20  C   UNL     1       7.175  -4.509  26.331  0.00  0.00    +0.015 A 
ENDBRANCH  15  16
BRANCH  15  21
ATOM     21  C   UNL     1       4.219  -4.615  24.157  0.00  0.00    +0.037 A 
ATOM     22  S   UNL     1       2.584  -4.242  24.606  0.00  0.00    -0.098 S 
ATOM     23  C   UNL     1       1.954  -5.547  23.713  0.00  0.00    +0.045 A 
ATOM     24  C   UNL     1       2.946  -6.285  23.111  0.00  0.00    +0.008 A 
ATOM     25  C   UNL     1       4.248  -5.762  23.380  0.00  0.00    +0.015 A 
ENDBRANCH  15  21
BRANCH  15  26
ATOM     26  O   UNL     1       4.829  -3.066  25.835  0.00  0.00    -0.369 OA
ATOM     27  H   UNL     1       4.162  -3.673  26.199  0.00  0.00    +0.212 HD
ENDBRANCH  15  26
ENDBRANCH   1  15
TORSDOF 6
ENDMDL
MODEL 7
REMARK VINA RESULT:      -6.5      2.295      3.242
REMARK  Name = 
REMARK  8 active torsions:
REMARK  status: ('A' for Active; 'I' for Inactive)
REMARK    1  A    between atoms: C_1  and  N_2
REMARK    2  A    between atoms: N_2  and  C_3
REMARK    3  A    between atoms: C_7  and  O_16
REMARK    4  A    between atoms: O_16  and  C_17
REMARK    5  A    between atoms: C_17  and  C_19
REMARK    6  A    between atoms: C_19  and  O_20
REMARK    7  A    between atoms: C_19  and  C_21
REMARK    8  A    between atoms: C_19  and  C_26
REMARK                            x       y       z     vdW  Elec       q    Type
REMARK                         _______ _______ _______ _____ _____    ______ ____
ROOT
ATOM      1  C   UNL     1       6.226  -3.509  22.762  0.00  0.00    +0.350 C 
ATOM      2  O   UNL     1       5.917  -3.282  21.594  0.00  0.00    -0.247 OA
ENDROOT
BRANCH   1   3
ATOM      3  O   UNL     1       6.593  -2.507  23.642  0.00  0.00    -0.458 OA
BRANCH   3  11
ATOM      4  C   UNL     1       9.829   2.123  24.151  0.00  0.00    +0.193 C 
ATOM      5  N   UNL     1       8.904   0.889  24.095  0.00  0.00    +0.247 N 
ATOM      6  C   UNL     1       8.005   0.941  22.828  0.00  0.00    +0.102 C 
ATOM      7  C   UNL     1       8.980   0.716  21.675  0.00  0.00    +0.201 C 
ATOM      8  C   UNL     1      10.100  -0.139  22.246  0.00  0.00    +0.201 C 
ATOM      9  O   UNL     1       9.243  -0.600  21.208  0.00  0.00    -0.357 OA
ATOM     10  C   UNL     1       6.941  -0.178  22.933  0.00  0.00    +0.102 C 
ATOM     11  C   UNL     1       7.553  -1.587  23.082  0.00  0.00    +0.187 C 
ATOM     12  C   UNL     1       8.860  -1.614  23.905  0.00  0.00    +0.102 C 
ATOM     13  C   UNL     1       9.737  -0.368  23.708  0.00  0.00    +0.102 C 
ATOM     14  C   UNL     1       8.185   0.851  25.429  0.00  0.00    +0.193 C 
ENDBRANCH   3  11
ENDBRANCH   1   3
BRANCH   1  15
ATOM     15  C   UNL     1       6.218  -4.917  23.439  0.00  0.00    +0.226 C 
BRANCH  15  16
ATOM     16  C   UNL     1       4.790  -5.191  23.914  0.00  0.00    +0.037 A 
ATOM     17  S   UNL     1       4.263  -6.773  24.371  0.00  0.00    -0.098 S 
ATOM     18  C   UNL     1       2.757  -6.201  24.932  0.00  0.00    +0.045 A 
ATOM     19  C   UNL     1       2.612  -4.850  24.730  0.00  0.00    +0.008 A 
ATOM     20  C   UNL     1       3.767  -4.277  24.127  0.00  0.00    +0.015 A 
ENDBRANCH  15  16
BRANCH  15  21
ATOM     21  C   UNL     1       7.326  -4.934  24.490  0.00  0.00    +0.037 A 
ATOM     22  S   UNL     1       6.896  -4.625  26.144  0.00  0.00    -0.098 S 
ATOM     23  C   UNL     1       8.491  -4.862  26.689  0.00  0.00    +0.045 A 
ATOM     24  C   UNL     1       9.354  -5.134  25.652  0.00  0.00    +0.008 A 
ATOM     25  C   UNL     1       8.690  -5.157  24.388  0.00  0.00    +0.015 A 
ENDBRANCH  15  21
BRANCH  15  26
ATOM     26  O   UNL     1       6.531  -5.976  22.523  0.00  0.00    -0.369 OA
ATOM     27  H   UNL     1       5.953  -5.845  21.751  0.00  0.00    +0.212 HD
ENDBRANCH  15  26
ENDBRANCH   1  15
TORSDOF 6
ENDMDL
MODEL 8
REMARK VINA RESULT:      -6.5      3.166      7.257
REMARK  Name = 
REMARK  8 active torsions:
REMARK  status: ('A' for Active; 'I' for Inactive)
REMARK    1  A    between atoms: C_1  and  N_2
REMARK    2  A    between atoms: N_2  and  C_3
REMARK    3  A    between atoms: C_7  and  O_16
REMARK    4  A    between atoms: O_16  and  C_17
REMARK    5  A    between atoms: C_17  and  C_19
REMARK    6  A    between atoms: C_19  and  O_20
REMARK    7  A    between atoms: C_19  and  C_21
REMARK    8  A    between atoms: C_19  and  C_26
REMARK                            x       y       z     vdW  Elec       q    Type
REMARK                         _______ _______ _______ _____ _____    ______ ____
ROOT
ATOM      1  C   UNL     1       9.751   1.234  23.793  0.00  0.00    +0.350 C 
ATOM      2  O   UNL     1      10.380   1.310  24.847  0.00  0.00    -0.247 OA
ENDROOT
BRANCH   1   3
ATOM      3  O   UNL     1       9.451   0.025  23.192  0.00  0.00    -0.458 OA
BRANCH   3  11
ATOM      4  C   UNL     1       6.946  -4.959  24.217  0.00  0.00    +0.193 C 
ATOM      5  N   UNL     1       7.598  -3.611  23.846  0.00  0.00    +0.247 N 
ATOM      6  C   UNL     1       6.940  -2.451  24.645  0.00  0.00    +0.102 C 
ATOM      7  C   UNL     1       7.394  -2.690  26.082  0.00  0.00    +0.201 C 
ATOM      8  C   UNL     1       8.744  -3.381  25.977  0.00  0.00    +0.201 C 
ATOM      9  O   UNL     1       8.591  -2.094  26.562  0.00  0.00    -0.357 OA
ATOM     10  C   UNL     1       7.454  -1.106  24.075  0.00  0.00    +0.102 C 
ATOM     11  C   UNL     1       8.991  -0.972  24.128  0.00  0.00    +0.187 C 
ATOM     12  C   UNL     1       9.740  -2.303  23.901  0.00  0.00    +0.102 C 
ATOM     13  C   UNL     1       9.015  -3.525  24.484  0.00  0.00    +0.102 C 
ATOM     14  C   UNL     1       7.519  -3.516  22.334  0.00  0.00    +0.193 C 
ENDBRANCH   3  11
ENDBRANCH   1   3
BRANCH   1  15
ATOM     15  C   UNL     1       9.170   2.449  23.001  0.00  0.00    +0.226 C 
BRANCH  15  16
ATOM     16  C   UNL     1      10.076   3.651  23.272  0.00  0.00    +0.037 A 
ATOM     17  S   UNL     1       9.472   5.120  23.953  0.00  0.00    -0.098 S 
ATOM     18  C   UNL     1      11.034   5.787  24.115  0.00  0.00    +0.045 A 
ATOM     19  C   UNL     1      12.003   4.954  23.613  0.00  0.00    +0.008 A 
ATOM     20  C   UNL     1      11.452   3.741  23.110  0.00  0.00    +0.015 A 
ENDBRANCH  15  16
BRANCH  15  21
ATOM     21  C   UNL     1       7.694   2.582  23.372  0.00  0.00    +0.037 A 
ATOM     22  S   UNL     1       6.576   3.075  22.138  0.00  0.00    -0.098 S 
ATOM     23  C   UNL     1       5.238   2.940  23.182  0.00  0.00    +0.045 A 
ATOM     24  C   UNL     1       5.612   2.567  24.452  0.00  0.00    +0.008 A 
ATOM     25  C   UNL     1       7.023   2.379  24.567  0.00  0.00    +0.015 A 
ENDBRANCH  15  21
BRANCH  15  26
ATOM     26  O   UNL     1       9.201   2.252  21.580  0.00  0.00    -0.369 OA
ATOM     27  H   UNL     1       8.705   1.433  21.410  0.00  0.00    +0.212 HD
ENDBRANCH  15  26
ENDBRANCH   1  15
TORSDOF 6
ENDMDL
MODEL 9
REMARK VINA RESULT:      -6.5      3.044      7.016
REMARK  Name = 
REMARK  8 active torsions:
REMARK  status: ('A' for Active; 'I' for Inactive)
REMARK    1  A    between atoms: C_1  and  N_2
REMARK    2  A    between atoms: N_2  and  C_3
REMARK    3  A    between atoms: C_7  and  O_16
REMARK    4  A    between atoms: O_16  and  C_17
REMARK    5  A    between atoms: C_17  and  C_19
REMARK    6  A    between atoms: C_19  and  O_20
REMARK    7  A    between atoms: C_19  and  C_21
REMARK    8  A    between atoms: C_19  and  C_26
REMARK                            x       y       z     vdW  Elec       q    Type
REMARK                         _______ _______ _______ _____ _____    ______ ____
ROOT
ATOM      1  C   UNL     1       8.299  -3.674  25.963  0.00  0.00    +0.350 C 
ATOM      2  O   UNL     1       8.952  -3.813  26.995  0.00  0.00    -0.247 OA
ENDROOT
BRANCH   1   3
ATOM      3  O   UNL     1       6.916  -3.675  25.953  0.00  0.00    -0.458 OA
BRANCH   3  11
ATOM      4  C   UNL     1       2.524  -6.547  28.105  0.00  0.00    +0.193 C 
ATOM      5  N   UNL     1       3.659  -5.730  27.452  0.00  0.00    +0.247 N 
ATOM      6  C   UNL     1       4.213  -4.675  28.450  0.00  0.00    +0.102 C 
ATOM      7  C   UNL     1       4.929  -5.510  29.508  0.00  0.00    +0.201 C 
ATOM      8  C   UNL     1       5.407  -6.762  28.789  0.00  0.00    +0.201 C 
ATOM      9  O   UNL     1       6.308  -5.821  29.360  0.00  0.00    -0.357 OA
ATOM     10  C   UNL     1       5.174  -3.731  27.687  0.00  0.00    +0.102 C 
ATOM     11  C   UNL     1       6.344  -4.474  27.009  0.00  0.00    +0.187 C 
ATOM     12  C   UNL     1       5.967  -5.873  26.474  0.00  0.00    +0.102 C 
ATOM     13  C   UNL     1       4.939  -6.609  27.347  0.00  0.00    +0.102 C 
ATOM     14  C   UNL     1       3.087  -5.193  26.154  0.00  0.00    +0.193 C 
ENDBRANCH   3  11
ENDBRANCH   1   3
BRANCH   1  15
ATOM     15  C   UNL     1       8.901  -3.439  24.541  0.00  0.00    +0.226 C 
BRANCH  15  16
ATOM     16  C   UNL     1       9.241  -1.952  24.424  0.00  0.00    +0.037 A 
ATOM     17  S   UNL     1       8.570  -0.772  25.493  0.00  0.00    -0.098 S 
ATOM     18  C   UNL     1       9.553   0.475  24.869  0.00  0.00    +0.045 A 
ATOM     19  C   UNL     1      10.337   0.041  23.829  0.00  0.00    +0.008 A 
ATOM     20  C   UNL     1      10.142  -1.344  23.560  0.00  0.00    +0.015 A 
ENDBRANCH  15  16
BRANCH  15  21
ATOM     21  C   UNL     1       7.925  -4.021  23.521  0.00  0.00    +0.037 A 
ATOM     22  S   UNL     1       6.925  -2.924  22.619  0.00  0.00    -0.098 S 
ATOM     23  C   UNL     1       6.219  -4.181  21.714  0.00  0.00    +0.045 A 
ATOM     24  C   UNL     1       6.689  -5.416  22.097  0.00  0.00    +0.008 A 
ATOM     25  C   UNL     1       7.653  -5.327  23.146  0.00  0.00    +0.015 A 
ENDBRANCH  15  21
BRANCH  15  26
ATOM     26  O   UNL     1      10.139  -4.136  24.340  0.00  0.00    -0.369 OA
ATOM     27  H   UNL     1      10.442  -3.898  23.447  0.00  0.00    +0.212 HD
ENDBRANCH  15  26
ENDBRANCH   1  15
TORSDOF 6
ENDMDL
