MODEL 1
REMARK VINA RESULT:      -6.5      0.000      0.000
REMARK  Name = 
REMARK  16 active torsions:
REMARK  status: ('A' for Active; 'I' for Inactive)
REMARK    1  A    between atoms: C_1  and  C_2
REMARK    2  A    between atoms: C_2  and  C_3
REMARK    3  A    between atoms: C_8  and  N_10
REMARK    4  A    between atoms: C_11  and  C_13
REMARK    5  A    between atoms: C_18  and  O_19
REMARK    6  A    between atoms: C_20  and  C_22
REMARK    7  A    between atoms: C_26  and  C_75
REMARK    8  A    between atoms: C_35  and  C_36
REMARK    9  A    between atoms: C_36  and  S_37
REMARK   10  A    between atoms: S_37  and  C_38
REMARK   11  A    between atoms: C_51  and  C_53
REMARK   12  A    between atoms: C_53  and  C_54
REMARK   13  A    between atoms: C_57  and  N_60
REMARK   14  A    between atoms: N_60  and  C_61
REMARK   15  A    between atoms: N_60  and  C_62
REMARK   16  A    between atoms: N_63  and  C_64
REMARK                            x       y       z     vdW  Elec       q    Type
REMARK                         _______ _______ _______ _____ _____    ______ ____
ROOT
ATOM      1  C   UNL     1       7.843  -4.442  23.177  0.00  0.00    +0.159 C 
ATOM      2  C   UNL     1       7.940  -3.117  22.250  0.00  0.00    +0.237 C 
ATOM      3  O   UNL     1       7.407  -3.185  21.127  0.00  0.00    -0.274 OA
ATOM      4  N   UNL     1       8.523  -1.875  22.602  0.00  0.00    -0.288 N 
ATOM      5  C   UNL     1       9.151  -1.350  23.845  0.00  0.00    +0.162 C 
ATOM      6  C   UNL     1       9.808   0.022  23.504  0.00  0.00    +0.033 C 
ATOM      7  C   UNL     1       9.748   0.146  21.992  0.00  0.00    +0.021 C 
ATOM      8  C   UNL     1       8.223  -1.205  25.068  0.00  0.00    +0.236 C 
ATOM      9  O   UNL     1       8.343  -2.037  25.973  0.00  0.00    -0.274 OA
ATOM     10  N   UNL     1       7.306  -0.160  25.203  0.00  0.00    -0.291 N 
ATOM     11  C   UNL     1       6.901   0.733  24.104  0.00  0.00    +0.133 C 
ATOM     12  C   UNL     1       6.599  -0.052  26.525  0.00  0.00    +0.166 C 
ATOM     13  C   UNL     1       5.070   0.236  26.357  0.00  0.00    +0.237 C 
ATOM     14  O   UNL     1       4.642   0.973  25.461  0.00  0.00    -0.274 OA
ATOM     15  N   UNL     1       4.155  -0.284  27.260  0.00  0.00    -0.287 N 
ATOM     16  C   UNL     1       4.454  -0.756  28.622  0.00  0.00    +0.169 C 
ATOM     17  C   UNL     1       3.825   0.152  29.679  0.00  0.00    +0.106 C 
ATOM     18  C   UNL     1       2.400   0.521  29.306  0.00  0.00    +0.141 C 
ATOM     19  O   UNL     1       1.539   0.606  30.184  0.00  0.00    -0.297 OA
ATOM     20  C   UNL     1       2.076   0.896  27.879  0.00  0.00    +0.082 C 
ATOM     21  C   UNL     1       4.036  -2.220  28.825  0.00  0.00    +0.235 C 
ATOM     22  O   UNL     1       3.558  -2.867  27.914  0.00  0.00    -0.274 OA
ATOM     23  N   UNL     1       4.249  -2.680  30.101  0.00  0.00    -0.297 N 
ATOM     24  H   UNL     1       4.842  -2.135  30.726  0.00  0.00    +0.150 HD
ATOM     25  C   UNL     1       4.102  -4.078  30.484  0.00  0.00    +0.213 C 
ATOM     26  C   UNL     1       5.245  -4.927  29.848  0.00  0.00    +0.333 C 
ATOM     27  O   UNL     1       5.879  -5.761  30.485  0.00  0.00    -0.248 OA
ATOM     28  O   UNL     1       5.393  -4.702  28.514  0.00  0.00    -0.458 OA
ATOM     29  C   UNL     1       5.255  -5.803  27.539  0.00  0.00    +0.203 C 
ATOM     30  C   UNL     1       6.181  -6.962  27.890  0.00  0.00    +0.054 C 
ATOM     31  C   UNL     1       5.382  -5.164  26.105  0.00  0.00    +0.200 C 
ATOM     32  C   UNL     1       6.714  -5.286  25.283  0.00  0.00    +0.238 C 
ATOM     33  O   UNL     1       7.704  -5.912  25.644  0.00  0.00    -0.274 OA
ATOM     34  C   UNL     1       2.736  -0.105  26.948  0.00  0.00    +0.120 C 
ATOM     35  C   UNL     1       8.738  -0.902  21.522  0.00  0.00    +0.109 C 
ATOM     36  N   UNL     1       6.725  -4.461  24.140  0.00  0.00    -0.302 N 
ATOM     37  H   UNL     1       5.814  -4.263  23.750  0.00  0.00    +0.150 HD
ENDROOT
BRANCH  25  38
ATOM     38  C   UNL     1       2.738  -4.706  30.223  0.00  0.00    -0.017 A 
ATOM     39  C   UNL     1       1.551  -3.967  30.099  0.00  0.00    +0.006 A 
ATOM     40  C   UNL     1       0.444  -4.530  29.460  0.00  0.00    +0.000 A 
ATOM     41  C   UNL     1       0.485  -5.852  29.027  0.00  0.00    +0.000 A 
ATOM     42  C   UNL     1       1.585  -6.647  29.334  0.00  0.00    +0.000 A 
ATOM     43  C   UNL     1       2.689  -6.086  29.965  0.00  0.00    +0.006 A 
ENDBRANCH  25  38
BRANCH  31  44
ATOM     44  N   UNL     1       4.207  -5.341  25.215  0.00  0.00    -0.296 N 
ATOM     45  H   UNL     1       3.749  -4.512  24.853  0.00  0.00    +0.150 HD
ATOM     46  C   UNL     1       3.677  -6.533  24.768  0.00  0.00    +0.267 C 
ATOM     47  O   UNL     1       4.116  -7.631  25.081  0.00  0.00    -0.268 OA
BRANCH  46  48
ATOM     48  C   UNL     1       2.490  -6.354  23.818  0.00  0.00    +0.167 A 
ATOM     49  C   UNL     1       1.911  -7.409  23.144  0.00  0.00    +0.147 A 
ATOM     50  C   UNL     1       0.852  -7.119  22.248  0.00  0.00    +0.049 A 
ATOM     51  C   UNL     1       0.443  -5.800  22.080  0.00  0.00    +0.023 A 
ATOM     52  C   UNL     1       1.073  -4.814  22.821  0.00  0.00    +0.112 A 
ATOM     53  N   UNL     1       2.078  -5.057  23.698  0.00  0.00    -0.247 NA
BRANCH  49  54
ATOM     54  O   UNL     1       2.248  -8.715  23.321  0.00  0.00    -0.504 OA
ATOM     55  H   UNL     1       3.096  -8.796  23.788  0.00  0.00    +0.292 HD
ENDBRANCH  49  54
ENDBRANCH  46  48
ENDBRANCH  31  44
BRANCH   1  57
ATOM     56  C   UNL     1       6.404  -6.372  21.891  0.00  0.00    +0.006 C 
ATOM     57  C   UNL     1       7.767  -5.799  22.342  0.00  0.00    +0.028 C 
ENDBRANCH   1  57
BRANCH  12  58
ATOM     58  C   UNL     1       7.208   0.961  27.546  0.00  0.00    +0.067 C 
BRANCH  58  59
ATOM     59  C   UNL     1       6.613   2.318  27.863  0.00  0.00    -0.045 A 
ATOM     60  C   UNL     1       6.745   3.455  27.068  0.00  0.00    +0.005 A 
ATOM     61  C   UNL     1       6.233   4.706  27.499  0.00  0.00    +0.023 A 
ATOM     62  C   UNL     1       5.567   4.887  28.728  0.00  0.00    +0.029 A 
ATOM     63  C   UNL     1       5.526   3.744  29.536  0.00  0.00    +0.023 A 
ATOM     64  C   UNL     1       6.038   2.502  29.125  0.00  0.00    +0.005 A 
BRANCH  62  65
ATOM     65  N   UNL     1       5.070   6.122  29.153  0.00  0.00    -0.336 N 
ATOM     66  C   UNL     1       5.907   7.028  29.946  0.00  0.00    +0.129 C 
ATOM     67  C   UNL     1       4.075   6.849  28.353  0.00  0.00    +0.129 C 
ENDBRANCH  62  65
ENDBRANCH  58  59
ENDBRANCH  12  58
BRANCH  20  68
ATOM     68  C   UNL     1       2.371   2.376  27.582  0.00  0.00    +0.082 C 
BRANCH  68  69
ATOM     69  S   UNL     1       1.633   2.923  26.011  0.00  0.00    -0.155 S 
BRANCH  69  70
ATOM     70  C   UNL     1       2.846   4.076  25.362  0.00  0.00    +0.064 C 
ATOM     71  C   UNL     1       3.422   3.551  24.039  0.00  0.00    +0.006 C 
ATOM     72  C   UNL     1       2.327   3.522  22.951  0.00  0.00    +0.020 C 
ATOM     73  C   UNL     1       1.723   4.926  22.792  0.00  0.00    +0.085 C 
ATOM     74  N   UNL     1       2.352   5.903  23.710  0.00  0.00    -0.301 NA
ATOM     75  C   UNL     1       3.806   5.950  23.448  0.00  0.00    +0.085 C 
ATOM     76  C   UNL     1       4.474   4.576  23.607  0.00  0.00    +0.020 C 
ATOM     77  C   UNL     1       2.133   5.431  25.097  0.00  0.00    +0.098 C 
ENDBRANCH  69  70
ENDBRANCH  68  69
ENDBRANCH  20  68
TORSDOF 11
ENDMDL
MODEL 2
REMARK VINA RESULT:      -6.4      1.016      1.432
REMARK  Name = 
REMARK  16 active torsions:
REMARK  status: ('A' for Active; 'I' for Inactive)
REMARK    1  A    between atoms: C_1  and  C_2
REMARK    2  A    between atoms: C_2  and  C_3
REMARK    3  A    between atoms: C_8  and  N_10
REMARK    4  A    between atoms: C_11  and  C_13
REMARK    5  A    between atoms: C_18  and  O_19
REMARK    6  A    between atoms: C_20  and  C_22
REMARK    7  A    between atoms: C_26  and  C_75
REMARK    8  A    between atoms: C_35  and  C_36
REMARK    9  A    between atoms: C_36  and  S_37
REMARK   10  A    between atoms: S_37  and  C_38
REMARK   11  A    between atoms: C_51  and  C_53
REMARK   12  A    between atoms: C_53  and  C_54
REMARK   13  A    between atoms: C_57  and  N_60
REMARK   14  A    between atoms: N_60  and  C_61
REMARK   15  A    between atoms: N_60  and  C_62
REMARK   16  A    between atoms: N_63  and  C_64
REMARK                            x       y       z     vdW  Elec       q    Type
REMARK                         _______ _______ _______ _____ _____    ______ ____
ROOT
ATOM      1  C   UNL     1       7.820  -4.561  23.144  0.00  0.00    +0.159 C 
ATOM      2  C   UNL     1       7.902  -3.257  22.187  0.00  0.00    +0.237 C 
ATOM      3  O   UNL     1       7.369  -3.357  21.066  0.00  0.00    -0.274 OA
ATOM      4  N   UNL     1       8.471  -2.000  22.510  0.00  0.00    -0.288 N 
ATOM      5  C   UNL     1       9.094  -1.440  23.740  0.00  0.00    +0.162 C 
ATOM      6  C   UNL     1       9.735  -0.069  23.366  0.00  0.00    +0.033 C 
ATOM      7  C   UNL     1       9.672   0.019  21.853  0.00  0.00    +0.021 C 
ATOM      8  C   UNL     1       8.166  -1.278  24.960  0.00  0.00    +0.236 C 
ATOM      9  O   UNL     1       8.296  -2.087  25.884  0.00  0.00    -0.274 OA
ATOM     10  N   UNL     1       7.237  -0.240  25.073  0.00  0.00    -0.291 N 
ATOM     11  C   UNL     1       6.821   0.623  23.953  0.00  0.00    +0.133 C 
ATOM     12  C   UNL     1       6.530  -0.110  26.392  0.00  0.00    +0.166 C 
ATOM     13  C   UNL     1       4.998   0.156  26.219  0.00  0.00    +0.237 C 
ATOM     14  O   UNL     1       4.561   0.868  25.308  0.00  0.00    -0.274 OA
ATOM     15  N   UNL     1       4.090  -0.353  27.135  0.00  0.00    -0.287 N 
ATOM     16  C   UNL     1       4.395  -0.791  28.507  0.00  0.00    +0.169 C 
ATOM     17  C   UNL     1       3.756   0.135  29.544  0.00  0.00    +0.106 C 
ATOM     18  C   UNL     1       2.327   0.479  29.164  0.00  0.00    +0.141 C 
ATOM     19  O   UNL     1       1.466   0.574  30.041  0.00  0.00    -0.297 OA
ATOM     20  C   UNL     1       1.998   0.817  27.729  0.00  0.00    +0.082 C 
ATOM     21  C   UNL     1       3.994  -2.254  28.744  0.00  0.00    +0.235 C 
ATOM     22  O   UNL     1       3.522  -2.927  27.848  0.00  0.00    -0.274 OA
ATOM     23  N   UNL     1       4.213  -2.682  30.030  0.00  0.00    -0.297 N 
ATOM     24  H   UNL     1       4.800  -2.116  30.642  0.00  0.00    +0.150 HD
ATOM     25  C   UNL     1       4.082  -4.072  30.445  0.00  0.00    +0.213 C 
ATOM     26  C   UNL     1       5.234  -4.923  29.828  0.00  0.00    +0.333 C 
ATOM     27  O   UNL     1       5.878  -5.735  30.483  0.00  0.00    -0.248 OA
ATOM     28  O   UNL     1       5.378  -4.727  28.488  0.00  0.00    -0.458 OA
ATOM     29  C   UNL     1       5.253  -5.851  27.539  0.00  0.00    +0.203 C 
ATOM     30  C   UNL     1       6.192  -6.991  27.915  0.00  0.00    +0.054 C 
ATOM     31  C   UNL     1       5.371  -5.244  26.090  0.00  0.00    +0.200 C 
ATOM     32  C   UNL     1       6.703  -5.369  25.270  0.00  0.00    +0.238 C 
ATOM     33  O   UNL     1       7.700  -5.976  25.644  0.00  0.00    -0.274 OA
ATOM     34  C   UNL     1       2.668  -0.197  26.821  0.00  0.00    +0.120 C 
ATOM     35  C   UNL     1       8.674  -1.050  21.408  0.00  0.00    +0.109 C 
ATOM     36  N   UNL     1       6.704  -4.571  24.109  0.00  0.00    -0.302 N 
ATOM     37  H   UNL     1       5.790  -4.392  23.715  0.00  0.00    +0.150 HD
ENDROOT
BRANCH  25  38
ATOM     38  C   UNL     1       2.726  -4.722  30.201  0.00  0.00    -0.017 A 
ATOM     39  C   UNL     1       1.537  -3.998  30.014  0.00  0.00    +0.006 A 
ATOM     40  C   UNL     1       0.443  -4.602  29.392  0.00  0.00    +0.000 A 
ATOM     41  C   UNL     1       0.497  -5.947  29.039  0.00  0.00    +0.000 A 
ATOM     42  C   UNL     1       1.594  -6.717  29.409  0.00  0.00    +0.000 A 
ATOM     43  C   UNL     1       2.686  -6.114  30.023  0.00  0.00    +0.006 A 
ENDBRANCH  25  38
BRANCH  31  44
ATOM     44  N   UNL     1       4.197  -5.454  25.206  0.00  0.00    -0.296 N 
ATOM     45  H   UNL     1       3.700  -4.639  24.865  0.00  0.00    +0.150 HD
ATOM     46  C   UNL     1       3.716  -6.659  24.739  0.00  0.00    +0.267 C 
ATOM     47  O   UNL     1       4.205  -7.743  25.026  0.00  0.00    -0.268 OA
BRANCH  46  48
ATOM     48  C   UNL     1       2.514  -6.514  23.802  0.00  0.00    +0.167 A 
ATOM     49  C   UNL     1       1.908  -7.594  23.195  0.00  0.00    +0.147 A 
ATOM     50  C   UNL     1       0.837  -7.336  22.304  0.00  0.00    +0.049 A 
ATOM     51  C   UNL     1       0.443  -6.022  22.074  0.00  0.00    +0.023 A 
ATOM     52  C   UNL     1       1.099  -5.008  22.750  0.00  0.00    +0.112 A 
ATOM     53  N   UNL     1       2.117  -5.219  23.621  0.00  0.00    -0.247 NA
BRANCH  49  54
ATOM     54  O   UNL     1       2.231  -8.893  23.435  0.00  0.00    -0.504 OA
ATOM     55  H   UNL     1       1.464  -9.475  23.302  0.00  0.00    +0.292 HD
ENDBRANCH  49  54
ENDBRANCH  46  48
ENDBRANCH  31  44
BRANCH   1  57
ATOM     56  C   UNL     1       6.430  -6.434  21.728  0.00  0.00    +0.006 C 
ATOM     57  C   UNL     1       7.759  -5.938  22.341  0.00  0.00    +0.028 C 
ENDBRANCH   1  57
BRANCH  12  58
ATOM     58  C   UNL     1       7.129   0.933  27.389  0.00  0.00    +0.067 C 
BRANCH  58  59
ATOM     59  C   UNL     1       7.315   2.404  27.078  0.00  0.00    -0.045 A 
ATOM     60  C   UNL     1       6.786   3.453  27.828  0.00  0.00    +0.005 A 
ATOM     61  C   UNL     1       6.933   4.798  27.400  0.00  0.00    +0.023 A 
ATOM     62  C   UNL     1       7.610   5.164  26.219  0.00  0.00    +0.029 A 
ATOM     63  C   UNL     1       8.055   4.082  25.450  0.00  0.00    +0.023 A 
ATOM     64  C   UNL     1       7.907   2.746  25.858  0.00  0.00    +0.005 A 
BRANCH  62  65
ATOM     65  N   UNL     1       7.748   6.490  25.797  0.00  0.00    -0.336 N 
ATOM     66  C   UNL     1       9.074   7.106  25.702  0.00  0.00    +0.129 C 
ATOM     67  C   UNL     1       6.795   7.080  24.847  0.00  0.00    +0.129 C 
ENDBRANCH  62  65
ENDBRANCH  58  59
ENDBRANCH  12  58
BRANCH  20  68
ATOM     68  C   UNL     1       2.275   2.293  27.398  0.00  0.00    +0.082 C 
BRANCH  68  69
ATOM     69  S   UNL     1       1.532   2.796  25.815  0.00  0.00    -0.155 S 
BRANCH  69  70
ATOM     70  C   UNL     1       1.770   4.574  25.790  0.00  0.00    +0.064 C 
ATOM     71  C   UNL     1       3.264   4.911  25.904  0.00  0.00    +0.006 C 
ATOM     72  C   UNL     1       4.020   4.423  24.650  0.00  0.00    +0.020 C 
ATOM     73  C   UNL     1       3.391   5.046  23.394  0.00  0.00    +0.085 C 
ATOM     74  N   UNL     1       2.252   5.931  23.731  0.00  0.00    -0.301 NA
ATOM     75  C   UNL     1       2.718   6.999  24.640  0.00  0.00    +0.085 C 
ATOM     76  C   UNL     1       3.345   6.439  25.926  0.00  0.00    +0.020 C 
ATOM     77  C   UNL     1       1.235   5.115  24.435  0.00  0.00    +0.098 C 
ENDBRANCH  69  70
ENDBRANCH  68  69
ENDBRANCH  20  68
TORSDOF 11
ENDMDL
MODEL 3
REMARK VINA RESULT:      -3.7      3.113     10.044
REMARK  Name = 
REMARK  16 active torsions:
REMARK  status: ('A' for Active; 'I' for Inactive)
REMARK    1  A    between atoms: C_1  and  C_2
REMARK    2  A    between atoms: C_2  and  C_3
REMARK    3  A    between atoms: C_8  and  N_10
REMARK    4  A    between atoms: C_11  and  C_13
REMARK    5  A    between atoms: C_18  and  O_19
REMARK    6  A    between atoms: C_20  and  C_22
REMARK    7  A    between atoms: C_26  and  C_75
REMARK    8  A    between atoms: C_35  and  C_36
REMARK    9  A    between atoms: C_36  and  S_37
REMARK   10  A    between atoms: S_37  and  C_38
REMARK   11  A    between atoms: C_51  and  C_53
REMARK   12  A    between atoms: C_53  and  C_54
REMARK   13  A    between atoms: C_57  and  N_60
REMARK   14  A    between atoms: N_60  and  C_61
REMARK   15  A    between atoms: N_60  and  C_62
REMARK   16  A    between atoms: N_63  and  C_64
REMARK                            x       y       z     vdW  Elec       q    Type
REMARK                         _______ _______ _______ _____ _____    ______ ____
ROOT
ATOM      1  C   UNL     1       8.534   3.613  23.549  0.00  0.00    +0.159 C 
ATOM      2  C   UNL     1       9.575   2.427  23.916  0.00  0.00    +0.237 C 
ATOM      3  O   UNL     1      10.619   2.767  24.502  0.00  0.00    -0.274 OA
ATOM      4  N   UNL     1       9.399   1.041  23.683  0.00  0.00    -0.288 N 
ATOM      5  C   UNL     1       8.287   0.225  23.125  0.00  0.00    +0.162 C 
ATOM      6  C   UNL     1       8.816  -1.227  22.920  0.00  0.00    +0.033 C 
ATOM      7  C   UNL     1      10.316  -1.155  23.145  0.00  0.00    +0.021 C 
ATOM      8  C   UNL     1       6.980   0.203  23.946  0.00  0.00    +0.236 C 
ATOM      9  O   UNL     1       6.028   0.861  23.515  0.00  0.00    -0.274 OA
ATOM     10  N   UNL     1       6.829  -0.557  25.107  0.00  0.00    -0.291 N 
ATOM     11  C   UNL     1       7.946  -1.173  25.845  0.00  0.00    +0.133 C 
ATOM     12  C   UNL     1       5.449  -0.616  25.698  0.00  0.00    +0.166 C 
ATOM     13  C   UNL     1       5.462  -0.450  27.254  0.00  0.00    +0.237 C 
ATOM     14  O   UNL     1       6.361  -0.935  27.951  0.00  0.00    -0.274 OA
ATOM     15  N   UNL     1       4.418   0.194  27.899  0.00  0.00    -0.287 N 
ATOM     16  C   UNL     1       3.065   0.409  27.360  0.00  0.00    +0.169 C 
ATOM     17  C   UNL     1       2.023  -0.406  28.128  0.00  0.00    +0.106 C 
ATOM     18  C   UNL     1       2.258  -0.323  29.626  0.00  0.00    +0.141 C 
ATOM     19  O   UNL     1       1.296  -0.267  30.395  0.00  0.00    -0.297 OA
ATOM     20  C   UNL     1       3.665  -0.429  30.167  0.00  0.00    +0.082 C 
ATOM     21  C   UNL     1       2.691   1.897  27.323  0.00  0.00    +0.235 C 
ATOM     22  O   UNL     1       3.483   2.751  27.674  0.00  0.00    -0.274 OA
ATOM     23  N   UNL     1       1.415   2.133  26.878  0.00  0.00    -0.297 N 
ATOM     24  H   UNL     1       0.910   1.378  26.413  0.00  0.00    +0.150 HD
ATOM     25  C   UNL     1       0.900   3.464  26.585  0.00  0.00    +0.213 C 
ATOM     26  C   UNL     1       1.590   4.032  25.307  0.00  0.00    +0.333 C 
ATOM     27  O   UNL     1       0.963   4.581  24.408  0.00  0.00    -0.248 OA
ATOM     28  O   UNL     1       2.947   3.929  25.346  0.00  0.00    -0.458 OA
ATOM     29  C   UNL     1       3.802   5.128  25.248  0.00  0.00    +0.203 C 
ATOM     30  C   UNL     1       3.464   5.940  24.003  0.00  0.00    +0.054 C 
ATOM     31  C   UNL     1       5.290   4.647  25.435  0.00  0.00    +0.200 C 
ATOM     32  C   UNL     1       6.248   4.490  24.201  0.00  0.00    +0.238 C 
ATOM     33  O   UNL     1       5.952   4.774  23.046  0.00  0.00    -0.274 OA
ATOM     34  C   UNL     1       4.577   0.450  29.332  0.00  0.00    +0.120 C 
ATOM     35  C   UNL     1      10.575   0.176  23.851  0.00  0.00    +0.109 C 
ATOM     36  N   UNL     1       7.450   3.830  24.526  0.00  0.00    -0.302 N 
ATOM     37  H   UNL     1       7.747   3.936  25.486  0.00  0.00    +0.150 HD
ENDROOT
BRANCH  25  38
ATOM     38  C   UNL     1       0.947   4.469  27.729  0.00  0.00    -0.017 A 
ATOM     39  C   UNL     1       0.738   4.127  29.075  0.00  0.00    +0.006 A 
ATOM     40  C   UNL     1       1.197   4.972  30.088  0.00  0.00    +0.000 A 
ATOM     41  C   UNL     1       1.780   6.194  29.766  0.00  0.00    +0.000 A 
ATOM     42  C   UNL     1       1.800   6.625  28.444  0.00  0.00    +0.000 A 
ATOM     43  C   UNL     1       1.348   5.782  27.435  0.00  0.00    +0.006 A 
ENDBRANCH  25  38
BRANCH  31  44
ATOM     44  N   UNL     1       6.020   5.241  26.584  0.00  0.00    -0.296 N 
ATOM     45  H   UNL     1       5.986   4.759  27.475  0.00  0.00    +0.150 HD
ATOM     46  C   UNL     1       6.802   6.376  26.572  0.00  0.00    +0.267 C 
ATOM     47  O   UNL     1       6.978   7.070  25.580  0.00  0.00    -0.268 OA
BRANCH  46  48
ATOM     48  C   UNL     1       7.454   6.682  27.923  0.00  0.00    +0.167 A 
ATOM     49  C   UNL     1       8.811   6.885  28.065  0.00  0.00    +0.147 A 
ATOM     50  C   UNL     1       9.312   7.107  29.372  0.00  0.00    +0.049 A 
ATOM     51  C   UNL     1       8.431   7.108  30.449  0.00  0.00    +0.023 A 
ATOM     52  C   UNL     1       7.083   6.918  30.199  0.00  0.00    +0.112 A 
ATOM     53  N   UNL     1       6.567   6.719  28.961  0.00  0.00    -0.247 NA
BRANCH  49  54
ATOM     54  O   UNL     1       9.694   6.943  27.033  0.00  0.00    -0.504 OA
ATOM     55  H   UNL     1       9.638   7.797  26.572  0.00  0.00    +0.292 HD
ENDBRANCH  49  54
ENDBRANCH  46  48
ENDBRANCH  31  44
BRANCH   1  57
ATOM     56  C   UNL     1      10.460   5.451  24.148  0.00  0.00    +0.006 C 
ATOM     57  C   UNL     1       9.236   5.025  23.307  0.00  0.00    +0.028 C 
ENDBRANCH   1  57
BRANCH  12  58
ATOM     58  C   UNL     1       4.594  -1.867  25.317  0.00  0.00    +0.067 C 
BRANCH  58  59
ATOM     59  C   UNL     1       5.092  -3.013  24.459  0.00  0.00    -0.045 A 
ATOM     60  C   UNL     1       5.527  -4.245  24.946  0.00  0.00    +0.005 A 
ATOM     61  C   UNL     1       6.068  -5.221  24.070  0.00  0.00    +0.023 A 
ATOM     62  C   UNL     1       6.199  -5.026  22.681  0.00  0.00    +0.029 A 
ATOM     63  C   UNL     1       5.830  -3.749  22.240  0.00  0.00    +0.023 A 
ATOM     64  C   UNL     1       5.302  -2.771  23.098  0.00  0.00    +0.005 A 
BRANCH  62  65
ATOM     65  N   UNL     1       6.739  -5.987  21.821  0.00  0.00    -0.336 N 
ATOM     66  C   UNL     1       6.579  -5.861  20.369  0.00  0.00    +0.129 C 
ATOM     67  C   UNL     1       7.962  -6.717  22.181  0.00  0.00    +0.129 C 
ENDBRANCH  62  65
ENDBRANCH  58  59
ENDBRANCH  12  58
BRANCH  20  68
ATOM     68  C   UNL     1       4.117  -1.889  30.334  0.00  0.00    +0.082 C 
BRANCH  68  69
ATOM     69  S   UNL     1       3.309  -3.002  29.143  0.00  0.00    -0.155 S 
BRANCH  69  70
ATOM     70  C   UNL     1       4.578  -4.218  28.781  0.00  0.00    +0.064 C 
ATOM     71  C   UNL     1       4.714  -5.205  29.949  0.00  0.00    +0.006 C 
ATOM     72  C   UNL     1       3.429  -6.049  30.090  0.00  0.00    +0.020 C 
ATOM     73  C   UNL     1       3.140  -6.771  28.764  0.00  0.00    +0.085 C 
ATOM     74  N   UNL     1       4.161  -6.464  27.736  0.00  0.00    -0.301 NA
ATOM     75  C   UNL     1       5.493  -6.857  28.241  0.00  0.00    +0.085 C 
ATOM     76  C   UNL     1       5.849  -6.156  29.560  0.00  0.00    +0.020 C 
ATOM     77  C   UNL     1       4.151  -5.000  27.508  0.00  0.00    +0.098 C 
ENDBRANCH  69  70
ENDBRANCH  68  69
ENDBRANCH  20  68
TORSDOF 11
ENDMDL
