MODEL 1
REMARK VINA RESULT:      -7.9      0.000      0.000
REMARK  Name = 
REMARK  1 active torsions:
REMARK  status: ('A' for Active; 'I' for Inactive)
REMARK    1  A    between atoms: C_29  and  C_31
REMARK                            x       y       z     vdW  Elec       q    Type
REMARK                         _______ _______ _______ _____ _____    ______ ____
ROOT
ATOM      1  C   UNL     1       4.731  -3.292  24.808  0.00  0.00    +0.189 C 
ATOM      2  C   UNL     1       5.183  -3.928  23.414  0.00  0.00    +0.064 C 
ATOM      3  C   UNL     1       6.373  -4.909  23.714  0.00  0.00    +0.057 C 
ATOM      4  C   UNL     1       7.481  -5.069  22.661  0.00  0.00    +0.024 C 
ATOM      5  N   UNL     1       6.851  -4.483  25.050  0.00  0.00    -0.294 NA
ATOM      6  C   UNL     1       7.585  -3.197  24.934  0.00  0.00    +0.108 C 
ATOM      7  C   UNL     1       9.109  -3.132  24.712  0.00  0.00    +0.160 C 
ATOM      8  N   UNL     1       9.483  -1.774  24.281  0.00  0.00    -0.250 N 
ATOM      9  C   UNL     1       9.928  -1.351  23.027  0.00  0.00    +0.275 A 
ATOM     10  O   UNL     1      10.313  -2.021  22.087  0.00  0.00    -0.266 OA
ATOM     11  C   UNL     1       9.735   0.111  22.986  0.00  0.00    +0.066 A 
ATOM     12  C   UNL     1       9.047   0.394  24.141  0.00  0.00    +0.077 A 
ATOM     13  C   UNL     1       8.412   1.618  24.306  0.00  0.00    +0.031 A 
ATOM     14  C   UNL     1       7.299   1.557  25.248  0.00  0.00    +0.138 A 
ATOM     15  C   UNL     1       7.157   2.568  26.378  0.00  0.00    +0.275 A 
ATOM     16  O   UNL     1       7.877   3.547  26.426  0.00  0.00    -0.266 OA
ATOM     17  N   UNL     1       6.220   2.241  27.308  0.00  0.00    -0.319 N 
ATOM     18  H   UNL     1       6.134   2.859  28.102  0.00  0.00    +0.169 HD
ATOM     19  C   UNL     1       5.393   1.101  27.187  0.00  0.00    +0.071 A 
ATOM     20  C   UNL     1       4.402   0.870  28.131  0.00  0.00    +0.028 A 
ATOM     21  C   UNL     1       3.582  -0.250  27.972  0.00  0.00    +0.006 A 
ATOM     22  C   UNL     1       3.781  -1.197  26.926  0.00  0.00    +0.048 A 
ATOM     23  C   UNL     1       4.798  -1.011  25.984  0.00  0.00    +0.148 A 
ATOM     24  C   UNL     1       5.559   0.198  26.100  0.00  0.00    +0.130 A 
ATOM     25  N   UNL     1       6.531   0.493  25.142  0.00  0.00    -0.236 NA
ATOM     26  C   UNL     1       8.634   2.648  23.396  0.00  0.00    +0.012 A 
ATOM     27  C   UNL     1       9.430   2.373  22.263  0.00  0.00    +0.002 A 
ATOM     28  C   UNL     1       9.939   1.081  22.023  0.00  0.00    +0.015 A 
ATOM     29  N   UNL     1       8.941  -0.697  25.034  0.00  0.00    -0.293 N 
ATOM     30  H   UNL     1       7.926  -0.797  25.202  0.00  0.00    +0.187 HD
ATOM     31  O   UNL     1       5.082  -1.867  24.923  0.00  0.00    -0.485 OA
ATOM     32  C   UNL     1       5.538  -4.217  25.740  0.00  0.00    +0.129 C 
ENDROOT
TORSDOF 0
ENDMDL
MODEL 2
REMARK VINA RESULT:      -7.7      1.411      1.645
REMARK  Name = 
REMARK  1 active torsions:
REMARK  status: ('A' for Active; 'I' for Inactive)
REMARK    1  A    between atoms: C_29  and  C_31
REMARK                            x       y       z     vdW  Elec       q    Type
REMARK                         _______ _______ _______ _____ _____    ______ ____
ROOT
ATOM      1  C   UNL     1       4.293  -4.099  24.136  0.00  0.00    +0.189 C 
ATOM      2  C   UNL     1       4.998  -4.366  22.728  0.00  0.00    +0.064 C 
ATOM      3  C   UNL     1       6.078  -5.485  22.953  0.00  0.00    +0.057 C 
ATOM      4  C   UNL     1       7.370  -5.442  22.123  0.00  0.00    +0.024 C 
ATOM      5  N   UNL     1       6.289  -5.479  24.420  0.00  0.00    -0.294 NA
ATOM      6  C   UNL     1       7.064  -4.275  24.811  0.00  0.00    +0.108 C 
ATOM      7  C   UNL     1       8.603  -4.277  24.903  0.00  0.00    +0.160 C 
ATOM      8  N   UNL     1       9.092  -2.887  24.952  0.00  0.00    -0.250 N 
ATOM      9  C   UNL     1       9.790  -2.177  23.974  0.00  0.00    +0.275 A 
ATOM     10  O   UNL     1      10.339  -2.594  22.972  0.00  0.00    -0.266 OA
ATOM     11  C   UNL     1       9.648  -0.748  24.313  0.00  0.00    +0.066 A 
ATOM     12  C   UNL     1       8.749  -0.735  25.353  0.00  0.00    +0.077 A 
ATOM     13  C   UNL     1       8.127   0.445  25.737  0.00  0.00    +0.031 A 
ATOM     14  C   UNL     1       6.845   0.221  26.400  0.00  0.00    +0.138 A 
ATOM     15  C   UNL     1       6.506   0.893  27.723  0.00  0.00    +0.275 A 
ATOM     16  O   UNL     1       7.227   1.761  28.179  0.00  0.00    -0.266 OA
ATOM     17  N   UNL     1       5.393   0.403  28.332  0.00  0.00    -0.319 N 
ATOM     18  H   UNL     1       5.165   0.786  29.238  0.00  0.00    +0.169 HD
ATOM     19  C   UNL     1       4.578  -0.590  27.742  0.00  0.00    +0.071 A 
ATOM     20  C   UNL     1       3.411  -0.987  28.380  0.00  0.00    +0.028 A 
ATOM     21  C   UNL     1       2.611  -1.951  27.762  0.00  0.00    +0.006 A 
ATOM     22  C   UNL     1       2.991  -2.590  26.546  0.00  0.00    +0.048 A 
ATOM     23  C   UNL     1       4.181  -2.238  25.901  0.00  0.00    +0.148 A 
ATOM     24  C   UNL     1       4.935  -1.173  26.494  0.00  0.00    +0.130 A 
ATOM     25  N   UNL     1       6.087  -0.708  25.856  0.00  0.00    -0.236 NA
ATOM     26  C   UNL     1       8.554   1.662  25.214  0.00  0.00    +0.012 A 
ATOM     27  C   UNL     1       9.553   1.643  24.217  0.00  0.00    +0.002 A 
ATOM     28  C   UNL     1      10.067   0.428  23.720  0.00  0.00    +0.015 A 
ATOM     29  N   UNL     1       8.438  -2.016  25.864  0.00  0.00    -0.293 N 
ATOM     30  H   UNL     1       7.407  -2.075  25.806  0.00  0.00    +0.187 HD
ATOM     31  O   UNL     1       4.650  -2.793  24.713  0.00  0.00    -0.485 OA
ATOM     32  C   UNL     1       4.871  -5.306  24.901  0.00  0.00    +0.129 C 
ENDROOT
TORSDOF 0
ENDMDL
MODEL 3
REMARK VINA RESULT:      -7.7      1.822      6.312
REMARK  Name = 
REMARK  1 active torsions:
REMARK  status: ('A' for Active; 'I' for Inactive)
REMARK    1  A    between atoms: C_29  and  C_31
REMARK                            x       y       z     vdW  Elec       q    Type
REMARK                         _______ _______ _______ _____ _____    ______ ____
ROOT
ATOM      1  C   UNL     1       8.694  -1.486  22.164  0.00  0.00    +0.189 C 
ATOM      2  C   UNL     1       8.813   0.096  22.357  0.00  0.00    +0.064 C 
ATOM      3  C   UNL     1       9.973   0.353  23.385  0.00  0.00    +0.057 C 
ATOM      4  C   UNL     1       9.863   1.554  24.337  0.00  0.00    +0.024 C 
ATOM      5  N   UNL     1      10.139  -0.955  24.061  0.00  0.00    -0.294 NA
ATOM      6  C   UNL     1       9.003  -1.188  24.989  0.00  0.00    +0.108 C 
ATOM      7  C   UNL     1       9.048  -0.767  26.472  0.00  0.00    +0.160 C 
ATOM      8  N   UNL     1       7.684  -0.792  27.029  0.00  0.00    -0.250 N 
ATOM      9  C   UNL     1       6.881   0.285  27.411  0.00  0.00    +0.275 A 
ATOM     10  O   UNL     1       7.193   1.449  27.578  0.00  0.00    -0.266 OA
ATOM     11  C   UNL     1       5.498  -0.225  27.469  0.00  0.00    +0.066 A 
ATOM     12  C   UNL     1       5.585  -1.498  26.959  0.00  0.00    +0.077 A 
ATOM     13  C   UNL     1       4.443  -2.183  26.564  0.00  0.00    +0.031 A 
ATOM     14  C   UNL     1       4.715  -3.205  25.557  0.00  0.00    +0.138 A 
ATOM     15  C   UNL     1       4.190  -4.626  25.706  0.00  0.00    +0.275 A 
ATOM     16  O   UNL     1       3.396  -4.905  26.584  0.00  0.00    -0.266 OA
ATOM     17  N   UNL     1       4.723  -5.515  24.825  0.00  0.00    -0.319 N 
ATOM     18  H   UNL     1       4.441  -6.480  24.927  0.00  0.00    +0.169 HD
ATOM     19  C   UNL     1       5.625  -5.130  23.807  0.00  0.00    +0.071 A 
ATOM     20  C   UNL     1       6.068  -6.074  22.891  0.00  0.00    +0.028 A 
ATOM     21  C   UNL     1       6.938  -5.660  21.879  0.00  0.00    +0.006 A 
ATOM     22  C   UNL     1       7.442  -4.329  21.806  0.00  0.00    +0.048 A 
ATOM     23  C   UNL     1       7.044  -3.367  22.739  0.00  0.00    +0.148 A 
ATOM     24  C   UNL     1       6.069  -3.782  23.705  0.00  0.00    +0.130 A 
ATOM     25  N   UNL     1       5.559  -2.851  24.611  0.00  0.00    -0.236 NA
ATOM     26  C   UNL     1       3.183  -1.674  26.867  0.00  0.00    +0.012 A 
ATOM     27  C   UNL     1       3.110  -0.407  27.485  0.00  0.00    +0.002 A 
ATOM     28  C   UNL     1       4.271   0.352  27.738  0.00  0.00    +0.015 A 
ATOM     29  N   UNL     1       6.909  -1.952  26.758  0.00  0.00    -0.293 N 
ATOM     30  H   UNL     1       6.939  -2.231  25.763  0.00  0.00    +0.187 HD
ATOM     31  O   UNL     1       7.470  -2.041  22.764  0.00  0.00    -0.485 OA
ATOM     32  C   UNL     1       9.991  -1.892  22.890  0.00  0.00    +0.129 C 
ENDROOT
TORSDOF 0
ENDMDL
MODEL 4
REMARK VINA RESULT:      -7.6      1.228      1.525
REMARK  Name = 
REMARK  1 active torsions:
REMARK  status: ('A' for Active; 'I' for Inactive)
REMARK    1  A    between atoms: C_29  and  C_31
REMARK                            x       y       z     vdW  Elec       q    Type
REMARK                         _______ _______ _______ _____ _____    ______ ____
ROOT
ATOM      1  C   UNL     1       4.289  -2.053  26.028  0.00  0.00    +0.189 C 
ATOM      2  C   UNL     1       4.631  -3.191  24.961  0.00  0.00    +0.064 C 
ATOM      3  C   UNL     1       5.636  -4.185  25.647  0.00  0.00    +0.057 C 
ATOM      4  C   UNL     1       6.705  -4.869  24.780  0.00  0.00    +0.024 C 
ATOM      5  N   UNL     1       6.175  -3.407  26.787  0.00  0.00    -0.294 NA
ATOM      6  C   UNL     1       7.117  -2.372  26.289  0.00  0.00    +0.108 C 
ATOM      7  C   UNL     1       8.631  -2.630  26.152  0.00  0.00    +0.160 C 
ATOM      8  N   UNL     1       9.231  -1.578  25.312  0.00  0.00    -0.250 N 
ATOM      9  C   UNL     1       9.745  -1.688  24.018  0.00  0.00    +0.275 A 
ATOM     10  O   UNL     1      10.014  -2.691  23.385  0.00  0.00    -0.266 OA
ATOM     11  C   UNL     1       9.803  -0.318  23.474  0.00  0.00    +0.066 A 
ATOM     12  C   UNL     1       9.168   0.450  24.422  0.00  0.00    +0.077 A 
ATOM     13  C   UNL     1       8.750   1.740  24.125  0.00  0.00    +0.031 A 
ATOM     14  C   UNL     1       7.639   2.183  24.962  0.00  0.00    +0.138 A 
ATOM     15  C   UNL     1       7.667   3.528  25.674  0.00  0.00    +0.275 A 
ATOM     16  O   UNL     1       8.542   4.338  25.433  0.00  0.00    -0.266 OA
ATOM     17  N   UNL     1       6.685   3.693  26.600  0.00  0.00    -0.319 N 
ATOM     18  H   UNL     1       6.702   4.551  27.133  0.00  0.00    +0.169 HD
ATOM     19  C   UNL     1       5.678   2.726  26.821  0.00  0.00    +0.071 A 
ATOM     20  C   UNL     1       4.658   2.993  27.725  0.00  0.00    +0.028 A 
ATOM     21  C   UNL     1       3.661   2.031  27.903  0.00  0.00    +0.006 A 
ATOM     22  C   UNL     1       3.701   0.764  27.253  0.00  0.00    +0.048 A 
ATOM     23  C   UNL     1       4.737   0.452  26.367  0.00  0.00    +0.148 A 
ATOM     24  C   UNL     1       5.692   1.491  26.115  0.00  0.00    +0.130 A 
ATOM     25  N   UNL     1       6.703   1.283  25.174  0.00  0.00    -0.236 NA
ATOM     26  C   UNL     1       9.146   2.347  22.936  0.00  0.00    +0.012 A 
ATOM     27  C   UNL     1       9.888   1.578  22.013  0.00  0.00    +0.002 A 
ATOM     28  C   UNL     1      10.172   0.218  22.255  0.00  0.00    +0.015 A 
ATOM     29  N   UNL     1       8.877  -0.238  25.622  0.00  0.00    -0.293 N 
ATOM     30  H   UNL     1       7.859  -0.112  25.751  0.00  0.00    +0.187 HD
ATOM     31  O   UNL     1       4.876  -0.749  25.677  0.00  0.00    -0.485 OA
ATOM     32  C   UNL     1       4.924  -2.717  27.266  0.00  0.00    +0.129 C 
ENDROOT
TORSDOF 0
ENDMDL
MODEL 5
REMARK VINA RESULT:      -7.6      1.773      5.179
REMARK  Name = 
REMARK  1 active torsions:
REMARK  status: ('A' for Active; 'I' for Inactive)
REMARK    1  A    between atoms: C_29  and  C_31
REMARK                            x       y       z     vdW  Elec       q    Type
REMARK                         _______ _______ _______ _____ _____    ______ ____
ROOT
ATOM      1  C   UNL     1       5.255  -0.776  27.911  0.00  0.00    +0.189 C 
ATOM      2  C   UNL     1       5.168   0.718  28.470  0.00  0.00    +0.064 C 
ATOM      3  C   UNL     1       4.031   1.448  27.669  0.00  0.00    +0.057 C 
ATOM      4  C   UNL     1       4.179   2.951  27.380  0.00  0.00    +0.024 C 
ATOM      5  N   UNL     1       3.854   0.606  26.463  0.00  0.00    -0.294 NA
ATOM      6  C   UNL     1       5.001   0.801  25.541  0.00  0.00    +0.108 C 
ATOM      7  C   UNL     1       4.990   1.860  24.421  0.00  0.00    +0.160 C 
ATOM      8  N   UNL     1       6.363   2.062  23.925  0.00  0.00    -0.250 N 
ATOM      9  C   UNL     1       7.191   3.175  24.091  0.00  0.00    +0.275 A 
ATOM     10  O   UNL     1       6.903   4.291  24.478  0.00  0.00    -0.266 OA
ATOM     11  C   UNL     1       8.566   2.717  23.814  0.00  0.00    +0.066 A 
ATOM     12  C   UNL     1       8.448   1.354  23.677  0.00  0.00    +0.077 A 
ATOM     13  C   UNL     1       9.570   0.538  23.719  0.00  0.00    +0.031 A 
ATOM     14  C   UNL     1       9.263  -0.827  24.137  0.00  0.00    +0.138 A 
ATOM     15  C   UNL     1       9.765  -2.031  23.352  0.00  0.00    +0.275 A 
ATOM     16  O   UNL     1      10.569  -1.891  22.451  0.00  0.00    -0.266 OA
ATOM     17  N   UNL     1       9.201  -3.213  23.718  0.00  0.00    -0.319 N 
ATOM     18  H   UNL     1       9.467  -4.028  23.184  0.00  0.00    +0.169 HD
ATOM     19  C   UNL     1       8.288  -3.321  24.792  0.00  0.00    +0.071 A 
ATOM     20  C   UNL     1       7.812  -4.570  25.165  0.00  0.00    +0.028 A 
ATOM     21  C   UNL     1       6.932  -4.650  26.247  0.00  0.00    +0.006 A 
ATOM     22  C   UNL     1       6.450  -3.492  26.923  0.00  0.00    +0.048 A 
ATOM     23  C   UNL     1       6.881  -2.217  26.543  0.00  0.00    +0.148 A 
ATOM     24  C   UNL     1       7.866  -2.163  25.502  0.00  0.00    +0.130 A 
ATOM     25  N   UNL     1       8.409  -0.930  25.133  0.00  0.00    -0.236 NA
ATOM     26  C   UNL     1      10.844   1.099  23.695  0.00  0.00    +0.012 A 
ATOM     27  C   UNL     1      10.950   2.506  23.733  0.00  0.00    +0.002 A 
ATOM     28  C   UNL     1       9.808   3.323  23.851  0.00  0.00    +0.015 A 
ATOM     29  N   UNL     1       7.112   0.891  23.635  0.00  0.00    -0.293 N 
ATOM     30  H   UNL     1       7.060   0.185  24.388  0.00  0.00    +0.187 HD
ATOM     31  O   UNL     1       6.480  -1.020  27.131  0.00  0.00    -0.485 OA
ATOM     32  C   UNL     1       3.964  -0.770  27.070  0.00  0.00    +0.129 C 
ENDROOT
TORSDOF 0
ENDMDL
MODEL 6
REMARK VINA RESULT:      -7.5      1.840      5.226
REMARK  Name = 
REMARK  1 active torsions:
REMARK  status: ('A' for Active; 'I' for Inactive)
REMARK    1  A    between atoms: C_29  and  C_31
REMARK                            x       y       z     vdW  Elec       q    Type
REMARK                         _______ _______ _______ _____ _____    ______ ____
ROOT
ATOM      1  C   UNL     1       9.233  -3.883  25.019  0.00  0.00    +0.189 C 
ATOM      2  C   UNL     1       8.980  -4.522  26.461  0.00  0.00    +0.064 C 
ATOM      3  C   UNL     1       7.688  -5.410  26.357  0.00  0.00    +0.057 C 
ATOM      4  C   UNL     1       6.766  -5.519  27.581  0.00  0.00    +0.024 C 
ATOM      5  N   UNL     1       7.022  -4.917  25.128  0.00  0.00    -0.294 NA
ATOM      6  C   UNL     1       6.414  -3.587  25.385  0.00  0.00    +0.108 C 
ATOM      7  C   UNL     1       4.959  -3.423  25.866  0.00  0.00    +0.160 C 
ATOM      8  N   UNL     1       4.763  -2.053  26.372  0.00  0.00    -0.250 N 
ATOM      9  C   UNL     1       4.569  -1.633  27.689  0.00  0.00    +0.275 A 
ATOM     10  O   UNL     1       4.302  -2.298  28.672  0.00  0.00    -0.266 OA
ATOM     11  C   UNL     1       4.872  -0.189  27.716  0.00  0.00    +0.066 A 
ATOM     12  C   UNL     1       5.373   0.075  26.464  0.00  0.00    +0.077 A 
ATOM     13  C   UNL     1       6.058   1.256  26.209  0.00  0.00    +0.031 A 
ATOM     14  C   UNL     1       6.987   1.142  25.089  0.00  0.00    +0.138 A 
ATOM     15  C   UNL     1       7.008   2.169  23.966  0.00  0.00    +0.275 A 
ATOM     16  O   UNL     1       6.364   3.197  24.054  0.00  0.00    -0.266 OA
ATOM     17  N   UNL     1       7.747   1.802  22.884  0.00  0.00    -0.319 N 
ATOM     18  H   UNL     1       7.742   2.433  22.095  0.00  0.00    +0.169 HD
ATOM     19  C   UNL     1       8.497   0.604  22.847  0.00  0.00    +0.071 A 
ATOM     20  C   UNL     1       9.295   0.329  21.744  0.00  0.00    +0.028 A 
ATOM     21  C   UNL     1      10.046  -0.848  21.745  0.00  0.00    +0.006 A 
ATOM     22  C   UNL     1       9.959  -1.806  22.797  0.00  0.00    +0.048 A 
ATOM     23  C   UNL     1       9.134  -1.574  23.902  0.00  0.00    +0.148 A 
ATOM     24  C   UNL     1       8.454  -0.312  23.934  0.00  0.00    +0.130 A 
ATOM     25  N   UNL     1       7.683   0.025  25.048  0.00  0.00    -0.236 NA
ATOM     26  C   UNL     1       6.069   2.276  27.157  0.00  0.00    +0.012 A 
ATOM     27  C   UNL     1       5.460   2.028  28.406  0.00  0.00    +0.002 A 
ATOM     28  C   UNL     1       4.906   0.768  28.713  0.00  0.00    +0.015 A 
ATOM     29  N   UNL     1       5.246  -0.998  25.552  0.00  0.00    -0.293 N 
ATOM     30  H   UNL     1       6.208  -1.163  25.211  0.00  0.00    +0.187 HD
ATOM     31  O   UNL     1       8.972  -2.435  24.984  0.00  0.00    -0.485 OA
ATOM     32  C   UNL     1       8.215  -4.726  24.226  0.00  0.00    +0.129 C 
ENDROOT
TORSDOF 0
ENDMDL
MODEL 7
REMARK VINA RESULT:      -7.4      2.447      4.794
REMARK  Name = 
REMARK  1 active torsions:
REMARK  status: ('A' for Active; 'I' for Inactive)
REMARK    1  A    between atoms: C_29  and  C_31
REMARK                            x       y       z     vdW  Elec       q    Type
REMARK                         _______ _______ _______ _____ _____    ______ ____
ROOT
ATOM      1  C   UNL     1       5.079   2.469  27.232  0.00  0.00    +0.189 C 
ATOM      2  C   UNL     1       4.370   1.075  26.906  0.00  0.00    +0.064 C 
ATOM      3  C   UNL     1       4.925   0.021  27.931  0.00  0.00    +0.057 C 
ATOM      4  C   UNL     1       5.085  -1.438  27.475  0.00  0.00    +0.024 C 
ATOM      5  N   UNL     1       6.169   0.646  28.438  0.00  0.00    -0.294 NA
ATOM      6  C   UNL     1       7.223   0.587  27.394  0.00  0.00    +0.108 C 
ATOM      7  C   UNL     1       8.222  -0.583  27.292  0.00  0.00    +0.160 C 
ATOM      8  N   UNL     1       8.887  -0.546  25.977  0.00  0.00    -0.250 N 
ATOM      9  C   UNL     1       8.735  -1.423  24.902  0.00  0.00    +0.275 A 
ATOM     10  O   UNL     1       8.204  -2.517  24.877  0.00  0.00    -0.266 OA
ATOM     11  C   UNL     1       9.249  -0.719  23.712  0.00  0.00    +0.066 A 
ATOM     12  C   UNL     1       9.499   0.558  24.156  0.00  0.00    +0.077 A 
ATOM     13  C   UNL     1       9.698   1.596  23.256  0.00  0.00    +0.031 A 
ATOM     14  C   UNL     1       9.375   2.904  23.818  0.00  0.00    +0.138 A 
ATOM     15  C   UNL     1      10.337   4.078  23.704  0.00  0.00    +0.275 A 
ATOM     16  O   UNL     1      11.326   4.002  23.000  0.00  0.00    -0.266 OA
ATOM     17  N   UNL     1      10.011   5.148  24.478  0.00  0.00    -0.319 N 
ATOM     18  H   UNL     1      10.654   5.927  24.471  0.00  0.00    +0.169 HD
ATOM     19  C   UNL     1       8.832   5.191  25.258  0.00  0.00    +0.071 A 
ATOM     20  C   UNL     1       8.518   6.346  25.961  0.00  0.00    +0.028 A 
ATOM     21  C   UNL     1       7.334   6.370  26.702  0.00  0.00    +0.006 A 
ATOM     22  C   UNL     1       6.487   5.231  26.821  0.00  0.00    +0.048 A 
ATOM     23  C   UNL     1       6.798   4.042  26.155  0.00  0.00    +0.148 A 
ATOM     24  C   UNL     1       7.960   4.069  25.314  0.00  0.00    +0.130 A 
ATOM     25  N   UNL     1       8.281   2.946  24.550  0.00  0.00    -0.236 NA
ATOM     26  C   UNL     1       9.849   1.324  21.899  0.00  0.00    +0.012 A 
ATOM     27  C   UNL     1       9.690  -0.011  21.467  0.00  0.00    +0.002 A 
ATOM     28  C   UNL     1       9.331  -1.033  22.369  0.00  0.00    +0.015 A 
ATOM     29  N   UNL     1       9.394   0.713  25.558  0.00  0.00    -0.293 N 
ATOM     30  H   UNL     1       8.713   1.481  25.683  0.00  0.00    +0.187 HD
ATOM     31  O   UNL     1       6.046   2.871  26.198  0.00  0.00    -0.485 OA
ATOM     32  C   UNL     1       5.721   2.078  28.577  0.00  0.00    +0.129 C 
ENDROOT
TORSDOF 0
ENDMDL
MODEL 8
REMARK VINA RESULT:      -7.4      2.871      5.696
REMARK  Name = 
REMARK  1 active torsions:
REMARK  status: ('A' for Active; 'I' for Inactive)
REMARK    1  A    between atoms: C_29  and  C_31
REMARK                            x       y       z     vdW  Elec       q    Type
REMARK                         _______ _______ _______ _____ _____    ______ ____
ROOT
ATOM      1  C   UNL     1       3.127  -1.958  27.379  0.00  0.00    +0.189 C 
ATOM      2  C   UNL     1       1.885  -2.738  26.747  0.00  0.00    +0.064 C 
ATOM      3  C   UNL     1       1.707  -4.069  27.563  0.00  0.00    +0.057 C 
ATOM      4  C   UNL     1       1.200  -5.322  26.832  0.00  0.00    +0.024 C 
ATOM      5  N   UNL     1       3.012  -4.240  28.243  0.00  0.00    -0.294 NA
ATOM      6  C   UNL     1       4.040  -4.664  27.258  0.00  0.00    +0.108 C 
ATOM      7  C   UNL     1       4.347  -6.147  26.971  0.00  0.00    +0.160 C 
ATOM      8  N   UNL     1       5.124  -6.252  25.723  0.00  0.00    -0.250 N 
ATOM      9  C   UNL     1       4.718  -6.760  24.487  0.00  0.00    +0.275 A 
ATOM     10  O   UNL     1       3.732  -7.419  24.218  0.00  0.00    -0.266 OA
ATOM     11  C   UNL     1       5.671  -6.240  23.488  0.00  0.00    +0.066 A 
ATOM     12  C   UNL     1       6.445  -5.347  24.191  0.00  0.00    +0.077 A 
ATOM     13  C   UNL     1       7.248  -4.429  23.528  0.00  0.00    +0.031 A 
ATOM     14  C   UNL     1       7.526  -3.238  24.326  0.00  0.00    +0.138 A 
ATOM     15  C   UNL     1       8.942  -2.707  24.494  0.00  0.00    +0.275 A 
ATOM     16  O   UNL     1       9.857  -3.164  23.837  0.00  0.00    -0.266 OA
ATOM     17  N   UNL     1       9.071  -1.749  25.452  0.00  0.00    -0.319 N 
ATOM     18  H   UNL     1      10.006  -1.410  25.632  0.00  0.00    +0.169 HD
ATOM     19  C   UNL     1       7.966  -1.236  26.169  0.00  0.00    +0.071 A 
ATOM     20  C   UNL     1       8.157  -0.202  27.075  0.00  0.00    +0.028 A 
ATOM     21  C   UNL     1       7.043   0.304  27.749  0.00  0.00    +0.006 A 
ATOM     22  C   UNL     1       5.742  -0.257  27.597  0.00  0.00    +0.048 A 
ATOM     23  C   UNL     1       5.527  -1.325  26.721  0.00  0.00    +0.148 A 
ATOM     24  C   UNL     1       6.660  -1.760  25.958  0.00  0.00    +0.130 A 
ATOM     25  N   UNL     1       6.500  -2.762  24.999  0.00  0.00    -0.236 NA
ATOM     26  C   UNL     1       7.437  -4.532  22.153  0.00  0.00    +0.012 A 
ATOM     27  C   UNL     1       6.713  -5.522  21.454  0.00  0.00    +0.002 A 
ATOM     28  C   UNL     1       5.779  -6.347  22.114  0.00  0.00    +0.015 A 
ATOM     29  N   UNL     1       6.232  -5.374  25.589  0.00  0.00    -0.293 N 
ATOM     30  H   UNL     1       6.001  -4.396  25.833  0.00  0.00    +0.187 HD
ATOM     31  O   UNL     1       4.303  -1.948  26.493  0.00  0.00    -0.485 OA
ATOM     32  C   UNL     1       3.302  -2.817  28.647  0.00  0.00    +0.129 C 
ENDROOT
TORSDOF 0
ENDMDL
MODEL 9
REMARK VINA RESULT:      -7.4      1.738      6.269
REMARK  Name = 
REMARK  1 active torsions:
REMARK  status: ('A' for Active; 'I' for Inactive)
REMARK    1  A    between atoms: C_29  and  C_31
REMARK                            x       y       z     vdW  Elec       q    Type
REMARK                         _______ _______ _______ _____ _____    ______ ____
ROOT
ATOM      1  C   UNL     1       5.760   3.510  25.030  0.00  0.00    +0.189 C 
ATOM      2  C   UNL     1       4.195   3.192  25.060  0.00  0.00    +0.064 C 
ATOM      3  C   UNL     1       3.842   2.732  26.521  0.00  0.00    +0.057 C 
ATOM      4  C   UNL     1       2.737   1.683  26.719  0.00  0.00    +0.024 C 
ATOM      5  N   UNL     1       5.154   2.359  27.098  0.00  0.00    -0.294 NA
ATOM      6  C   UNL     1       5.612   1.072  26.515  0.00  0.00    +0.108 C 
ATOM      7  C   UNL     1       5.290  -0.289  27.162  0.00  0.00    +0.160 C 
ATOM      8  N   UNL     1       5.551  -1.366  26.190  0.00  0.00    -0.250 N 
ATOM      9  C   UNL     1       4.630  -2.184  25.532  0.00  0.00    +0.275 A 
ATOM     10  O   UNL     1       3.448  -2.346  25.765  0.00  0.00    -0.266 OA
ATOM     11  C   UNL     1       5.338  -2.762  24.374  0.00  0.00    +0.066 A 
ATOM     12  C   UNL     1       6.548  -2.110  24.356  0.00  0.00    +0.077 A 
ATOM     13  C   UNL     1       7.363  -2.157  23.233  0.00  0.00    +0.031 A 
ATOM     14  C   UNL     1       8.265  -1.013  23.138  0.00  0.00    +0.138 A 
ATOM     15  C   UNL     1       9.754  -1.193  22.879  0.00  0.00    +0.275 A 
ATOM     16  O   UNL     1      10.203  -2.284  22.583  0.00  0.00    -0.266 OA
ATOM     17  N   UNL     1      10.494  -0.066  23.059  0.00  0.00    -0.319 N 
ATOM     18  H   UNL     1      11.494  -0.158  22.950  0.00  0.00    +0.169 HD
ATOM     19  C   UNL     1       9.914   1.183  23.380  0.00  0.00    +0.071 A 
ATOM     20  C   UNL     1      10.719   2.310  23.469  0.00  0.00    +0.028 A 
ATOM     21  C   UNL     1      10.116   3.535  23.761  0.00  0.00    +0.006 A 
ATOM     22  C   UNL     1       8.725   3.650  24.044  0.00  0.00    +0.048 A 
ATOM     23  C   UNL     1       7.895   2.525  24.000  0.00  0.00    +0.148 A 
ATOM     24  C   UNL     1       8.513   1.296  23.595  0.00  0.00    +0.130 A 
ATOM     25  N   UNL     1       7.728   0.151  23.442  0.00  0.00    -0.236 NA
ATOM     26  C   UNL     1       7.064  -3.028  22.189  0.00  0.00    +0.012 A 
ATOM     27  C   UNL     1       5.866  -3.771  22.266  0.00  0.00    +0.002 A 
ATOM     28  C   UNL     1       4.966  -3.597  23.337  0.00  0.00    +0.015 A 
ATOM     29  N   UNL     1       6.790  -1.310  25.497  0.00  0.00    -0.293 N 
ATOM     30  H   UNL     1       6.993  -0.371  25.116  0.00  0.00    +0.187 HD
ATOM     31  O   UNL     1       6.527   2.520  24.257  0.00  0.00    -0.485 OA
ATOM     32  C   UNL     1       6.021   3.462  26.548  0.00  0.00    +0.129 C 
ENDROOT
TORSDOF 0
ENDMDL
