MODEL 1
REMARK VINA RESULT:      -6.4      0.000      0.000
REMARK  Name = 
REMARK  9 active torsions:
REMARK  status: ('A' for Active; 'I' for Inactive)
REMARK    1  A    between atoms: C_2  and  N_3
REMARK    2  A    between atoms: C_2  and  C_4
REMARK    3  A    between atoms: C_2  and  C_11
REMARK    4  A    between atoms: C_4  and  C_5
REMARK    5  A    between atoms: C_11  and  O_13
REMARK    6  A    between atoms: C_11  and  C_14
REMARK    7  A    between atoms: C_14  and  N_15
REMARK    8  A    between atoms: N_15  and  S_16
REMARK    9  A    between atoms: S_16  and  C_19
REMARK                            x       y       z     vdW  Elec       q    Type
REMARK                         _______ _______ _______ _____ _____    ______ ____
ROOT
ATOM      1  C   UNL     1       6.432  -4.509  26.017  0.00  0.00    +0.138 C 
ENDROOT
BRANCH   1   2
ATOM      2  N   UNL     1       5.876  -3.238  26.552  0.00  0.00    -0.187 NA
ATOM      3  H   UNL     1       6.485  -2.700  27.174  0.00  0.00    +0.148 HD
BRANCH   2   4
ATOM      4  S   UNL     1       5.158  -2.193  25.444  0.00  0.00    +0.059 S 
ATOM      5  O   UNL     1       4.005  -1.588  26.078  0.00  0.00    -0.153 OA
ATOM      6  O   UNL     1       5.039  -2.944  24.221  0.00  0.00    -0.153 OA
BRANCH   4   7
ATOM      7  C   UNL     1       6.400  -0.959  25.193  0.00  0.00    +0.106 A 
ATOM      8  C   UNL     1       6.317  -0.100  24.094  0.00  0.00    +0.037 A 
ATOM      9  C   UNL     1       7.333   0.834  23.856  0.00  0.00    -0.016 A 
ATOM     10  C   UNL     1       8.438   0.904  24.741  0.00  0.00    -0.018 A 
ATOM     11  C   UNL     1       9.462   1.829  24.486  0.00  0.00    +0.008 A 
ATOM     12  C   UNL     1       9.404   2.671  23.374  0.00  0.00    +0.001 A 
ATOM     13  C   UNL     1       8.319   2.605  22.507  0.00  0.00    +0.001 A 
ATOM     14  C   UNL     1       8.492   0.038  25.846  0.00  0.00    +0.010 A 
ATOM     15  C   UNL     1       7.288   1.695  22.747  0.00  0.00    +0.008 A 
ATOM     16  C   UNL     1       7.481  -0.895  26.073  0.00  0.00    +0.029 A 
ENDBRANCH   4   7
ENDBRANCH   2   4
ENDBRANCH   1   2
BRANCH   1  17
ATOM     17  C   UNL     1       7.857  -4.706  26.562  0.00  0.00    +0.147 C 
BRANCH  17  18
ATOM     18  O   UNL     1       7.971  -6.017  27.140  0.00  0.00    -0.389 OA
ATOM     19  H   UNL     1       8.763  -6.424  26.745  0.00  0.00    +0.210 HD
ENDBRANCH  17  18
BRANCH  17  20
ATOM     20  C   UNL     1       8.960  -4.534  25.484  0.00  0.00    +0.085 C 
BRANCH  20  21
ATOM     21  N   UNL     1       9.820  -5.729  25.395  0.00  0.00    -0.325 NA
ATOM     22  H   UNL     1       9.420  -6.481  25.960  0.00  0.00    +0.119 HD
ATOM     23  H   UNL     1       9.777  -6.084  24.436  0.00  0.00    +0.119 HD
ENDBRANCH  20  21
BRANCH  20  24
ATOM     24  C   UNL     1       8.273  -4.217  24.130  0.00  0.00    +0.056 C 
BRANCH  24  25
ATOM     25  C   UNL     1       8.800  -3.026  23.370  0.00  0.00    -0.046 A 
ATOM     26  C   UNL     1       8.132  -2.543  22.237  0.00  0.00    +0.004 A 
ATOM     27  C   UNL     1       8.683  -1.504  21.486  0.00  0.00    +0.000 A 
ATOM     28  C   UNL     1       9.901  -0.938  21.856  0.00  0.00    +0.000 A 
ATOM     29  C   UNL     1      10.568  -1.404  22.988  0.00  0.00    +0.000 A 
ATOM     30  C   UNL     1      10.019  -2.442  23.742  0.00  0.00    +0.004 A 
ENDBRANCH  24  25
ENDBRANCH  20  24
ENDBRANCH  17  20
ENDBRANCH   1  17
TORSDOF 9
ENDMDL
MODEL 2
REMARK VINA RESULT:      -6.1      2.106      4.472
REMARK  Name = 
REMARK  9 active torsions:
REMARK  status: ('A' for Active; 'I' for Inactive)
REMARK    1  A    between atoms: C_2  and  N_3
REMARK    2  A    between atoms: C_2  and  C_4
REMARK    3  A    between atoms: C_2  and  C_11
REMARK    4  A    between atoms: C_4  and  C_5
REMARK    5  A    between atoms: C_11  and  O_13
REMARK    6  A    between atoms: C_11  and  C_14
REMARK    7  A    between atoms: C_14  and  N_15
REMARK    8  A    between atoms: N_15  and  S_16
REMARK    9  A    between atoms: S_16  and  C_19
REMARK                            x       y       z     vdW  Elec       q    Type
REMARK                         _______ _______ _______ _____ _____    ______ ____
ROOT
ATOM      1  C   UNL     1       6.574  -2.979  25.583  0.00  0.00    +0.138 C 
ENDROOT
BRANCH   1   2
ATOM      2  N   UNL     1       7.967  -3.473  25.748  0.00  0.00    -0.187 NA
ATOM      3  H   UNL     1       8.119  -4.179  26.472  0.00  0.00    +0.148 HD
BRANCH   2   4
ATOM      4  S   UNL     1       8.784  -3.932  24.349  0.00  0.00    +0.059 S 
ATOM      5  O   UNL     1       7.858  -4.656  23.504  0.00  0.00    -0.153 OA
ATOM      6  O   UNL     1      10.018  -4.525  24.796  0.00  0.00    -0.153 OA
BRANCH   4   7
ATOM      7  C   UNL     1       9.180  -2.385  23.589  0.00  0.00    +0.106 A 
ATOM      8  C   UNL     1       9.760  -1.365  24.347  0.00  0.00    +0.037 A 
ATOM      9  C   UNL     1      10.015  -0.117  23.765  0.00  0.00    -0.016 A 
ATOM     10  C   UNL     1       9.685   0.099  22.404  0.00  0.00    -0.018 A 
ATOM     11  C   UNL     1       9.925   1.358  21.831  0.00  0.00    +0.008 A 
ATOM     12  C   UNL     1      10.476   2.393  22.588  0.00  0.00    +0.001 A 
ATOM     13  C   UNL     1      10.803   2.182  23.923  0.00  0.00    +0.001 A 
ATOM     14  C   UNL     1       9.114  -0.947  21.659  0.00  0.00    +0.010 A 
ATOM     15  C   UNL     1      10.577   0.934  24.508  0.00  0.00    +0.008 A 
ATOM     16  C   UNL     1       8.856  -2.185  22.247  0.00  0.00    +0.029 A 
ENDBRANCH   4   7
ENDBRANCH   2   4
ENDBRANCH   1   2
BRANCH   1  17
ATOM     17  C   UNL     1       6.411  -1.661  26.358  0.00  0.00    +0.147 C 
BRANCH  17  18
ATOM     18  O   UNL     1       7.662  -1.310  26.974  0.00  0.00    -0.389 OA
ATOM     19  H   UNL     1       8.351  -1.456  26.301  0.00  0.00    +0.210 HD
ENDBRANCH  17  18
BRANCH  17  20
ATOM     20  C   UNL     1       5.938  -0.478  25.472  0.00  0.00    +0.085 C 
BRANCH  20  21
ATOM     21  N   UNL     1       4.562  -0.068  25.807  0.00  0.00    -0.325 NA
ATOM     22  H   UNL     1       4.256   0.664  25.163  0.00  0.00    +0.119 HD
ATOM     23  H   UNL     1       3.937  -0.854  25.609  0.00  0.00    +0.119 HD
ENDBRANCH  20  21
BRANCH  20  24
ATOM     24  C   UNL     1       6.945   0.691  25.641  0.00  0.00    +0.056 C 
BRANCH  24  25
ATOM     25  C   UNL     1       6.906   1.771  24.590  0.00  0.00    -0.046 A 
ATOM     26  C   UNL     1       6.465   1.492  23.290  0.00  0.00    +0.004 A 
ATOM     27  C   UNL     1       6.528   2.475  22.300  0.00  0.00    +0.000 A 
ATOM     28  C   UNL     1       7.030   3.740  22.597  0.00  0.00    +0.000 A 
ATOM     29  C   UNL     1       7.461   4.031  23.890  0.00  0.00    +0.000 A 
ATOM     30  C   UNL     1       7.399   3.051  24.882  0.00  0.00    +0.004 A 
ENDBRANCH  24  25
ENDBRANCH  20  24
ENDBRANCH  17  20
ENDBRANCH   1  17
TORSDOF 9
ENDMDL
MODEL 3
REMARK VINA RESULT:      -6.1      1.935      4.228
REMARK  Name = 
REMARK  9 active torsions:
REMARK  status: ('A' for Active; 'I' for Inactive)
REMARK    1  A    between atoms: C_2  and  N_3
REMARK    2  A    between atoms: C_2  and  C_4
REMARK    3  A    between atoms: C_2  and  C_11
REMARK    4  A    between atoms: C_4  and  C_5
REMARK    5  A    between atoms: C_11  and  O_13
REMARK    6  A    between atoms: C_11  and  C_14
REMARK    7  A    between atoms: C_14  and  N_15
REMARK    8  A    between atoms: N_15  and  S_16
REMARK    9  A    between atoms: S_16  and  C_19
REMARK                            x       y       z     vdW  Elec       q    Type
REMARK                         _______ _______ _______ _____ _____    ______ ____
ROOT
ATOM      1  C   UNL     1       6.437  -4.364  24.875  0.00  0.00    +0.138 C 
ENDROOT
BRANCH   1   2
ATOM      2  N   UNL     1       7.749  -4.677  24.248  0.00  0.00    -0.187 NA
ATOM      3  H   UNL     1       7.804  -4.578  23.231  0.00  0.00    +0.148 HD
BRANCH   2   4
ATOM      4  S   UNL     1       9.113  -3.979  24.946  0.00  0.00    +0.059 S 
ATOM      5  O   UNL     1      10.238  -4.862  24.718  0.00  0.00    -0.153 OA
ATOM      6  O   UNL     1       8.716  -3.591  26.275  0.00  0.00    -0.153 OA
BRANCH   4   7
ATOM      7  C   UNL     1       9.333  -2.499  24.002  0.00  0.00    +0.106 A 
ATOM      8  C   UNL     1       9.932  -1.381  24.589  0.00  0.00    +0.037 A 
ATOM      9  C   UNL     1      10.048  -0.187  23.866  0.00  0.00    -0.016 A 
ATOM     10  C   UNL     1       9.560  -0.127  22.537  0.00  0.00    -0.018 A 
ATOM     11  C   UNL     1       9.662   1.078  21.823  0.00  0.00    +0.008 A 
ATOM     12  C   UNL     1      10.231   2.210  22.410  0.00  0.00    +0.001 A 
ATOM     13  C   UNL     1      10.713   2.150  23.714  0.00  0.00    +0.001 A 
ATOM     14  C   UNL     1       8.974  -1.268  21.964  0.00  0.00    +0.010 A 
ATOM     15  C   UNL     1      10.625   0.959  24.437  0.00  0.00    +0.008 A 
ATOM     16  C   UNL     1       8.854  -2.451  22.693  0.00  0.00    +0.029 A 
ENDBRANCH   4   7
ENDBRANCH   2   4
ENDBRANCH   1   2
BRANCH   1  17
ATOM     17  C   UNL     1       5.638  -3.443  23.937  0.00  0.00    +0.147 C 
BRANCH  17  18
ATOM     18  O   UNL     1       4.538  -4.175  23.371  0.00  0.00    -0.389 OA
ATOM     19  H   UNL     1       4.913  -4.731  22.663  0.00  0.00    +0.210 HD
ENDBRANCH  17  18
BRANCH  17  20
ATOM     20  C   UNL     1       5.087  -2.173  24.640  0.00  0.00    +0.085 C 
BRANCH  20  21
ATOM     21  N   UNL     1       3.930  -2.489  25.498  0.00  0.00    -0.325 NA
ATOM     22  H   UNL     1       4.180  -2.344  26.478  0.00  0.00    +0.119 HD
ATOM     23  H   UNL     1       3.199  -1.795  25.318  0.00  0.00    +0.119 HD
ENDBRANCH  20  21
BRANCH  20  24
ATOM     24  C   UNL     1       6.242  -1.524  25.448  0.00  0.00    +0.056 C 
BRANCH  24  25
ATOM     25  C   UNL     1       6.515  -0.065  25.178  0.00  0.00    -0.046 A 
ATOM     26  C   UNL     1       6.225   0.502  23.931  0.00  0.00    +0.004 A 
ATOM     27  C   UNL     1       6.573   1.826  23.663  0.00  0.00    +0.000 A 
ATOM     28  C   UNL     1       7.212   2.595  24.633  0.00  0.00    +0.000 A 
ATOM     29  C   UNL     1       7.495   2.044  25.881  0.00  0.00    +0.000 A 
ATOM     30  C   UNL     1       7.147   0.720  26.153  0.00  0.00    +0.004 A 
ENDBRANCH  24  25
ENDBRANCH  20  24
ENDBRANCH  17  20
ENDBRANCH   1  17
TORSDOF 9
ENDMDL
MODEL 4
REMARK VINA RESULT:      -6.1      1.683      2.280
REMARK  Name = 
REMARK  9 active torsions:
REMARK  status: ('A' for Active; 'I' for Inactive)
REMARK    1  A    between atoms: C_2  and  N_3
REMARK    2  A    between atoms: C_2  and  C_4
REMARK    3  A    between atoms: C_2  and  C_11
REMARK    4  A    between atoms: C_4  and  C_5
REMARK    5  A    between atoms: C_11  and  O_13
REMARK    6  A    between atoms: C_11  and  C_14
REMARK    7  A    between atoms: C_14  and  N_15
REMARK    8  A    between atoms: N_15  and  S_16
REMARK    9  A    between atoms: S_16  and  C_19
REMARK                            x       y       z     vdW  Elec       q    Type
REMARK                         _______ _______ _______ _____ _____    ______ ____
ROOT
ATOM      1  C   UNL     1       7.111  -5.529  24.975  0.00  0.00    +0.138 C 
ENDROOT
BRANCH   1   2
ATOM      2  N   UNL     1       5.806  -4.838  24.796  0.00  0.00    -0.187 NA
ATOM      3  H   UNL     1       5.497  -4.240  25.567  0.00  0.00    +0.148 HD
BRANCH   2   4
ATOM      4  S   UNL     1       5.563  -4.031  23.339  0.00  0.00    +0.059 S 
ATOM      5  O   UNL     1       4.196  -4.259  22.920  0.00  0.00    -0.153 OA
ATOM      6  O   UNL     1       6.679  -4.393  22.503  0.00  0.00    -0.153 OA
BRANCH   4   7
ATOM      7  C   UNL     1       5.761  -2.331  23.785  0.00  0.00    +0.106 A 
ATOM      8  C   UNL     1       6.377  -1.445  22.897  0.00  0.00    +0.037 A 
ATOM      9  C   UNL     1       6.594  -0.114  23.273  0.00  0.00    -0.016 A 
ATOM     10  C   UNL     1       6.180   0.326  24.555  0.00  0.00    -0.018 A 
ATOM     11  C   UNL     1       6.417   1.657  24.933  0.00  0.00    +0.008 A 
ATOM     12  C   UNL     1       7.059   2.542  24.066  0.00  0.00    +0.001 A 
ATOM     13  C   UNL     1       7.463   2.112  22.806  0.00  0.00    +0.001 A 
ATOM     14  C   UNL     1       5.551  -0.580  25.425  0.00  0.00    +0.010 A 
ATOM     15  C   UNL     1       7.231   0.794  22.410  0.00  0.00    +0.008 A 
ATOM     16  C   UNL     1       5.345  -1.907  25.047  0.00  0.00    +0.029 A 
ENDBRANCH   4   7
ENDBRANCH   2   4
ENDBRANCH   1   2
BRANCH   1  17
ATOM     17  C   UNL     1       7.910  -4.818  26.080  0.00  0.00    +0.147 C 
BRANCH  17  18
ATOM     18  O   UNL     1       8.014  -5.681  27.225  0.00  0.00    -0.389 OA
ATOM     19  H   UNL     1       8.486  -6.480  26.927  0.00  0.00    +0.210 HD
ENDBRANCH  17  18
BRANCH  17  20
ATOM     20  C   UNL     1       9.337  -4.397  25.637  0.00  0.00    +0.085 C 
BRANCH  20  21
ATOM     21  N   UNL     1      10.224  -5.565  25.490  0.00  0.00    -0.325 NA
ATOM     22  H   UNL     1      10.211  -6.116  26.350  0.00  0.00    +0.119 HD
ATOM     23  H   UNL     1       9.819  -6.189  24.785  0.00  0.00    +0.119 HD
ENDBRANCH  20  21
BRANCH  20  24
ATOM     24  C   UNL     1       9.219  -3.593  24.315  0.00  0.00    +0.056 C 
BRANCH  24  25
ATOM     25  C   UNL     1       9.523  -2.118  24.394  0.00  0.00    -0.046 A 
ATOM     26  C   UNL     1      10.207  -1.469  23.358  0.00  0.00    +0.004 A 
ATOM     27  C   UNL     1      10.569  -0.127  23.489  0.00  0.00    +0.000 A 
ATOM     28  C   UNL     1      10.254   0.576  24.649  0.00  0.00    +0.000 A 
ATOM     29  C   UNL     1       9.564  -0.057  25.680  0.00  0.00    +0.000 A 
ATOM     30  C   UNL     1       9.199  -1.398  25.553  0.00  0.00    +0.004 A 
ENDBRANCH  24  25
ENDBRANCH  20  24
ENDBRANCH  17  20
ENDBRANCH   1  17
TORSDOF 9
ENDMDL
MODEL 5
REMARK VINA RESULT:      -6.0      2.864      4.621
REMARK  Name = 
REMARK  9 active torsions:
REMARK  status: ('A' for Active; 'I' for Inactive)
REMARK    1  A    between atoms: C_2  and  N_3
REMARK    2  A    between atoms: C_2  and  C_4
REMARK    3  A    between atoms: C_2  and  C_11
REMARK    4  A    between atoms: C_4  and  C_5
REMARK    5  A    between atoms: C_11  and  O_13
REMARK    6  A    between atoms: C_11  and  C_14
REMARK    7  A    between atoms: C_14  and  N_15
REMARK    8  A    between atoms: N_15  and  S_16
REMARK    9  A    between atoms: S_16  and  C_19
REMARK                            x       y       z     vdW  Elec       q    Type
REMARK                         _______ _______ _______ _____ _____    ______ ____
ROOT
ATOM      1  C   UNL     1       4.007  -6.705  26.576  0.00  0.00    +0.138 C 
ENDROOT
BRANCH   1   2
ATOM      2  N   UNL     1       5.387  -6.756  27.128  0.00  0.00    -0.187 NA
ATOM      3  H   UNL     1       6.127  -7.044  26.481  0.00  0.00    +0.148 HD
BRANCH   2   4
ATOM      4  S   UNL     1       5.910  -5.415  28.001  0.00  0.00    +0.059 S 
ATOM      5  O   UNL     1       6.574  -5.888  29.198  0.00  0.00    -0.153 OA
ATOM      6  O   UNL     1       4.776  -4.529  28.068  0.00  0.00    -0.153 OA
BRANCH   4   7
ATOM      7  C   UNL     1       7.102  -4.674  26.924  0.00  0.00    +0.106 A 
ATOM      8  C   UNL     1       7.118  -3.288  26.752  0.00  0.00    +0.037 A 
ATOM      9  C   UNL     1       8.018  -2.705  25.850  0.00  0.00    -0.016 A 
ATOM     10  C   UNL     1       8.910  -3.530  25.123  0.00  0.00    -0.018 A 
ATOM     11  C   UNL     1       9.796  -2.941  24.206  0.00  0.00    +0.008 A 
ATOM     12  C   UNL     1       9.800  -1.560  24.004  0.00  0.00    +0.001 A 
ATOM     13  C   UNL     1       8.926  -0.749  24.721  0.00  0.00    +0.001 A 
ATOM     14  C   UNL     1       8.883  -4.920  25.323  0.00  0.00    +0.010 A 
ATOM     15  C   UNL     1       8.042  -1.316  25.640  0.00  0.00    +0.008 A 
ATOM     16  C   UNL     1       7.979  -5.496  26.216  0.00  0.00    +0.029 A 
ENDBRANCH   4   7
ENDBRANCH   2   4
ENDBRANCH   1   2
BRANCH   1  17
ATOM     17  C   UNL     1       3.991  -7.383  25.195  0.00  0.00    +0.147 C 
BRANCH  17  18
ATOM     18  O   UNL     1       3.067  -8.484  25.214  0.00  0.00    -0.389 OA
ATOM     19  H   UNL     1       2.291  -8.184  25.722  0.00  0.00    +0.210 HD
ENDBRANCH  17  18
BRANCH  17  20
ATOM     20  C   UNL     1       3.603  -6.421  24.040  0.00  0.00    +0.085 C 
BRANCH  20  21
ATOM     21  N   UNL     1       2.160  -6.486  23.744  0.00  0.00    -0.325 NA
ATOM     22  H   UNL     1       1.933  -5.824  23.000  0.00  0.00    +0.119 HD
ATOM     23  H   UNL     1       1.958  -7.403  23.335  0.00  0.00    +0.119 HD
ENDBRANCH  20  21
BRANCH  20  24
ATOM     24  C   UNL     1       4.047  -4.987  24.430  0.00  0.00    +0.056 C 
BRANCH  24  25
ATOM     25  C   UNL     1       5.163  -4.382  23.615  0.00  0.00    -0.046 A 
ATOM     26  C   UNL     1       5.266  -2.994  23.457  0.00  0.00    +0.004 A 
ATOM     27  C   UNL     1       6.243  -2.453  22.619  0.00  0.00    +0.000 A 
ATOM     28  C   UNL     1       7.122  -3.288  21.934  0.00  0.00    +0.000 A 
ATOM     29  C   UNL     1       7.034  -4.670  22.092  0.00  0.00    +0.000 A 
ATOM     30  C   UNL     1       6.060  -5.214  22.929  0.00  0.00    +0.004 A 
ENDBRANCH  24  25
ENDBRANCH  20  24
ENDBRANCH  17  20
ENDBRANCH   1  17
TORSDOF 9
ENDMDL
MODEL 6
REMARK VINA RESULT:      -6.0      2.944      5.876
REMARK  Name = 
REMARK  9 active torsions:
REMARK  status: ('A' for Active; 'I' for Inactive)
REMARK    1  A    between atoms: C_2  and  N_3
REMARK    2  A    between atoms: C_2  and  C_4
REMARK    3  A    between atoms: C_2  and  C_11
REMARK    4  A    between atoms: C_4  and  C_5
REMARK    5  A    between atoms: C_11  and  O_13
REMARK    6  A    between atoms: C_11  and  C_14
REMARK    7  A    between atoms: C_14  and  N_15
REMARK    8  A    between atoms: N_15  and  S_16
REMARK    9  A    between atoms: S_16  and  C_19
REMARK                            x       y       z     vdW  Elec       q    Type
REMARK                         _______ _______ _______ _____ _____    ______ ____
ROOT
ATOM      1  C   UNL     1       6.261   2.448  23.411  0.00  0.00    +0.138 C 
ENDROOT
BRANCH   1   2
ATOM      2  N   UNL     1       6.273   0.964  23.328  0.00  0.00    -0.187 NA
ATOM      3  H   UNL     1       6.984   0.546  22.722  0.00  0.00    +0.148 HD
BRANCH   2   4
ATOM      4  S   UNL     1       6.224   0.119  24.784  0.00  0.00    +0.059 S 
ATOM      5  O   UNL     1       4.858   0.128  25.264  0.00  0.00    -0.153 OA
ATOM      6  O   UNL     1       7.305   0.645  25.576  0.00  0.00    -0.153 OA
BRANCH   4   7
ATOM      7  C   UNL     1       6.664  -1.527  24.307  0.00  0.00    +0.106 A 
ATOM      8  C   UNL     1       6.232  -2.036  23.079  0.00  0.00    +0.037 A 
ATOM      9  C   UNL     1       6.523  -3.360  22.728  0.00  0.00    -0.016 A 
ATOM     10  C   UNL     1       7.262  -4.173  23.623  0.00  0.00    -0.018 A 
ATOM     11  C   UNL     1       7.534  -5.505  23.273  0.00  0.00    +0.008 A 
ATOM     12  C   UNL     1       7.081  -6.032  22.063  0.00  0.00    +0.001 A 
ATOM     13  C   UNL     1       6.358  -5.234  21.182  0.00  0.00    +0.001 A 
ATOM     14  C   UNL     1       7.696  -3.635  24.846  0.00  0.00    +0.010 A 
ATOM     15  C   UNL     1       6.082  -3.905  21.511  0.00  0.00    +0.008 A 
ATOM     16  C   UNL     1       7.396  -2.318  25.193  0.00  0.00    +0.029 A 
ENDBRANCH   4   7
ENDBRANCH   2   4
ENDBRANCH   1   2
BRANCH   1  17
ATOM     17  C   UNL     1       7.347   3.014  22.479  0.00  0.00    +0.147 C 
BRANCH  17  18
ATOM     18  O   UNL     1       6.856   4.204  21.839  0.00  0.00    -0.389 OA
ATOM     19  H   UNL     1       6.880   4.031  20.880  0.00  0.00    +0.210 HD
ENDBRANCH  17  18
BRANCH  17  20
ATOM     20  C   UNL     1       8.675   3.347  23.209  0.00  0.00    +0.085 C 
BRANCH  20  21
ATOM     21  N   UNL     1       8.608   2.996  24.640  0.00  0.00    -0.325 NA
ATOM     22  H   UNL     1       8.084   2.127  24.755  0.00  0.00    +0.119 HD
ATOM     23  H   UNL     1       9.553   2.765  24.958  0.00  0.00    +0.119 HD
ENDBRANCH  20  21
BRANCH  20  24
ATOM     24  C   UNL     1       9.829   2.601  22.487  0.00  0.00    +0.056 C 
BRANCH  24  25
ATOM     25  C   UNL     1       9.809   1.095  22.564  0.00  0.00    -0.046 A 
ATOM     26  C   UNL     1      10.328   0.426  23.679  0.00  0.00    +0.004 A 
ATOM     27  C   UNL     1      10.394  -0.969  23.694  0.00  0.00    +0.000 A 
ATOM     28  C   UNL     1       9.944  -1.705  22.601  0.00  0.00    +0.000 A 
ATOM     29  C   UNL     1       9.416  -1.049  21.491  0.00  0.00    +0.000 A 
ATOM     30  C   UNL     1       9.347   0.344  21.473  0.00  0.00    +0.004 A 
ENDBRANCH  24  25
ENDBRANCH  20  24
ENDBRANCH  17  20
ENDBRANCH   1  17
TORSDOF 9
ENDMDL
MODEL 7
REMARK VINA RESULT:      -6.0      2.473      3.720
REMARK  Name = 
REMARK  9 active torsions:
REMARK  status: ('A' for Active; 'I' for Inactive)
REMARK    1  A    between atoms: C_2  and  N_3
REMARK    2  A    between atoms: C_2  and  C_4
REMARK    3  A    between atoms: C_2  and  C_11
REMARK    4  A    between atoms: C_4  and  C_5
REMARK    5  A    between atoms: C_11  and  O_13
REMARK    6  A    between atoms: C_11  and  C_14
REMARK    7  A    between atoms: C_14  and  N_15
REMARK    8  A    between atoms: N_15  and  S_16
REMARK    9  A    between atoms: S_16  and  C_19
REMARK                            x       y       z     vdW  Elec       q    Type
REMARK                         _______ _______ _______ _____ _____    ______ ____
ROOT
ATOM      1  C   UNL     1       6.315  -2.296  23.894  0.00  0.00    +0.138 C 
ENDROOT
BRANCH   1   2
ATOM      2  N   UNL     1       6.369  -0.858  23.518  0.00  0.00    -0.187 NA
ATOM      3  H   UNL     1       5.739  -0.558  22.769  0.00  0.00    +0.148 HD
BRANCH   2   4
ATOM      4  S   UNL     1       6.307   0.262  24.773  0.00  0.00    +0.059 S 
ATOM      5  O   UNL     1       7.343  -0.072  25.727  0.00  0.00    -0.153 OA
ATOM      6  O   UNL     1       4.921   0.336  25.160  0.00  0.00    -0.153 OA
BRANCH   4   7
ATOM      7  C   UNL     1       6.718   1.785  23.973  0.00  0.00    +0.106 A 
ATOM      8  C   UNL     1       7.399   2.781  24.678  0.00  0.00    +0.037 A 
ATOM      9  C   UNL     1       7.668   4.012  24.068  0.00  0.00    -0.016 A 
ATOM     10  C   UNL     1       7.251   4.235  22.732  0.00  0.00    -0.018 A 
ATOM     11  C   UNL     1       7.507   5.478  22.132  0.00  0.00    +0.008 A 
ATOM     12  C   UNL     1       8.160   6.491  22.837  0.00  0.00    +0.001 A 
ATOM     13  C   UNL     1       8.572   6.272  24.148  0.00  0.00    +0.001 A 
ATOM     14  C   UNL     1       6.579   3.214  22.040  0.00  0.00    +0.010 A 
ATOM     15  C   UNL     1       8.331   5.040  24.759  0.00  0.00    +0.008 A 
ATOM     16  C   UNL     1       6.307   1.992  22.656  0.00  0.00    +0.029 A 
ENDBRANCH   4   7
ENDBRANCH   2   4
ENDBRANCH   1   2
BRANCH   1  17
ATOM     17  C   UNL     1       7.510  -3.028  23.260  0.00  0.00    +0.147 C 
BRANCH  17  18
ATOM     18  O   UNL     1       7.512  -2.801  21.841  0.00  0.00    -0.389 OA
ATOM     19  H   UNL     1       6.604  -2.538  21.603  0.00  0.00    +0.210 HD
ENDBRANCH  17  18
BRANCH  17  20
ATOM     20  C   UNL     1       8.881  -2.591  23.841  0.00  0.00    +0.085 C 
BRANCH  20  21
ATOM     21  N   UNL     1       9.617  -3.736  24.409  0.00  0.00    -0.325 NA
ATOM     22  H   UNL     1      10.211  -3.416  25.176  0.00  0.00    +0.119 HD
ATOM     23  H   UNL     1       8.941  -4.360  24.859  0.00  0.00    +0.119 HD
ENDBRANCH  20  21
BRANCH  20  24
ATOM     24  C   UNL     1       9.687  -1.891  22.715  0.00  0.00    +0.056 C 
BRANCH  24  25
ATOM     25  C   UNL     1       9.926  -0.411  22.879  0.00  0.00    -0.046 A 
ATOM     26  C   UNL     1       9.676   0.478  21.826  0.00  0.00    +0.004 A 
ATOM     27  C   UNL     1       9.995   1.831  21.957  0.00  0.00    +0.000 A 
ATOM     28  C   UNL     1      10.565   2.307  23.136  0.00  0.00    +0.000 A 
ATOM     29  C   UNL     1      10.807   1.432  24.193  0.00  0.00    +0.000 A 
ATOM     30  C   UNL     1      10.488   0.080  24.066  0.00  0.00    +0.004 A 
ENDBRANCH  24  25
ENDBRANCH  20  24
ENDBRANCH  17  20
ENDBRANCH   1  17
TORSDOF 9
ENDMDL
MODEL 8
REMARK VINA RESULT:      -5.7      2.858      5.580
REMARK  Name = 
REMARK  9 active torsions:
REMARK  status: ('A' for Active; 'I' for Inactive)
REMARK    1  A    between atoms: C_2  and  N_3
REMARK    2  A    between atoms: C_2  and  C_4
REMARK    3  A    between atoms: C_2  and  C_11
REMARK    4  A    between atoms: C_4  and  C_5
REMARK    5  A    between atoms: C_11  and  O_13
REMARK    6  A    between atoms: C_11  and  C_14
REMARK    7  A    between atoms: C_14  and  N_15
REMARK    8  A    between atoms: N_15  and  S_16
REMARK    9  A    between atoms: S_16  and  C_19
REMARK                            x       y       z     vdW  Elec       q    Type
REMARK                         _______ _______ _______ _____ _____    ______ ____
ROOT
ATOM      1  C   UNL     1       8.307  -0.713  25.114  0.00  0.00    +0.138 C 
ENDROOT
BRANCH   1   2
ATOM      2  N   UNL     1       6.892  -0.309  24.897  0.00  0.00    -0.187 NA
ATOM      3  H   UNL     1       6.497  -0.510  23.974  0.00  0.00    +0.148 HD
BRANCH   2   4
ATOM      4  S   UNL     1       5.782  -0.753  26.082  0.00  0.00    +0.059 S 
ATOM      5  O   UNL     1       4.543  -0.049  25.825  0.00  0.00    -0.153 OA
ATOM      6  O   UNL     1       6.478  -0.622  27.336  0.00  0.00    -0.153 OA
BRANCH   4   7
ATOM      7  C   UNL     1       5.545  -2.480  25.783  0.00  0.00    +0.106 A 
ATOM      8  C   UNL     1       4.559  -2.903  24.888  0.00  0.00    +0.037 A 
ATOM      9  C   UNL     1       4.325  -4.271  24.699  0.00  0.00    -0.016 A 
ATOM     10  C   UNL     1       5.099  -5.217  25.415  0.00  0.00    -0.018 A 
ATOM     11  C   UNL     1       4.847  -6.587  25.235  0.00  0.00    +0.008 A 
ATOM     12  C   UNL     1       3.843  -7.020  24.366  0.00  0.00    +0.001 A 
ATOM     13  C   UNL     1       3.085  -6.091  23.661  0.00  0.00    +0.001 A 
ATOM     14  C   UNL     1       6.093  -4.767  26.299  0.00  0.00    +0.010 A 
ATOM     15  C   UNL     1       3.325  -4.726  23.823  0.00  0.00    +0.008 A 
ATOM     16  C   UNL     1       6.316  -3.403  26.490  0.00  0.00    +0.029 A 
ENDBRANCH   4   7
ENDBRANCH   2   4
ENDBRANCH   1   2
BRANCH   1  17
ATOM     17  C   UNL     1       9.112  -0.438  23.832  0.00  0.00    +0.147 C 
BRANCH  17  18
ATOM     18  O   UNL     1      10.475  -0.141  24.178  0.00  0.00    -0.389 OA
ATOM     19  H   UNL     1      10.444   0.382  25.000  0.00  0.00    +0.210 HD
ENDBRANCH  17  18
BRANCH  17  20
ATOM     20  C   UNL     1       9.095  -1.619  22.826  0.00  0.00    +0.085 C 
BRANCH  20  21
ATOM     21  N   UNL     1      10.391  -1.762  22.138  0.00  0.00    -0.325 NA
ATOM     22  H   UNL     1      11.148  -1.521  22.780  0.00  0.00    +0.119 HD
ATOM     23  H   UNL     1      10.539  -2.755  21.936  0.00  0.00    +0.119 HD
ENDBRANCH  20  21
BRANCH  20  24
ATOM     24  C   UNL     1       8.705  -2.909  23.596  0.00  0.00    +0.056 C 
BRANCH  24  25
ATOM     25  C   UNL     1       7.738  -3.838  22.907  0.00  0.00    -0.046 A 
ATOM     26  C   UNL     1       7.852  -5.227  23.047  0.00  0.00    +0.004 A 
ATOM     27  C   UNL     1       7.013  -6.078  22.326  0.00  0.00    +0.000 A 
ATOM     28  C   UNL     1       6.056  -5.553  21.460  0.00  0.00    +0.000 A 
ATOM     29  C   UNL     1       5.927  -4.172  21.321  0.00  0.00    +0.000 A 
ATOM     30  C   UNL     1       6.764  -3.319  22.042  0.00  0.00    +0.004 A 
ENDBRANCH  24  25
ENDBRANCH  20  24
ENDBRANCH  17  20
ENDBRANCH   1  17
TORSDOF 9
ENDMDL
MODEL 9
REMARK VINA RESULT:      -5.6      1.797      2.723
REMARK  Name = 
REMARK  9 active torsions:
REMARK  status: ('A' for Active; 'I' for Inactive)
REMARK    1  A    between atoms: C_2  and  N_3
REMARK    2  A    between atoms: C_2  and  C_4
REMARK    3  A    between atoms: C_2  and  C_11
REMARK    4  A    between atoms: C_4  and  C_5
REMARK    5  A    between atoms: C_11  and  O_13
REMARK    6  A    between atoms: C_11  and  C_14
REMARK    7  A    between atoms: C_14  and  N_15
REMARK    8  A    between atoms: N_15  and  S_16
REMARK    9  A    between atoms: S_16  and  C_19
REMARK                            x       y       z     vdW  Elec       q    Type
REMARK                         _______ _______ _______ _____ _____    ______ ____
ROOT
ATOM      1  C   UNL     1       6.513  -3.712  24.561  0.00  0.00    +0.138 C 
ENDROOT
BRANCH   1   2
ATOM      2  N   UNL     1       6.791  -2.722  25.637  0.00  0.00    -0.187 NA
ATOM      3  H   UNL     1       7.638  -2.158  25.530  0.00  0.00    +0.148 HD
BRANCH   2   4
ATOM      4  S   UNL     1       5.517  -1.723  26.100  0.00  0.00    +0.059 S 
ATOM      5  O   UNL     1       5.407  -1.775  27.543  0.00  0.00    -0.153 OA
ATOM      6  O   UNL     1       4.413  -2.079  25.247  0.00  0.00    -0.153 OA
BRANCH   4   7
ATOM      7  C   UNL     1       6.071  -0.115  25.613  0.00  0.00    +0.106 A 
ATOM      8  C   UNL     1       5.983   0.276  24.275  0.00  0.00    +0.037 A 
ATOM      9  C   UNL     1       6.481   1.522  23.876  0.00  0.00    -0.016 A 
ATOM     10  C   UNL     1       7.066   2.382  24.838  0.00  0.00    -0.018 A 
ATOM     11  C   UNL     1       7.581   3.622  24.428  0.00  0.00    +0.008 A 
ATOM     12  C   UNL     1       7.525   4.010  23.088  0.00  0.00    +0.001 A 
ATOM     13  C   UNL     1       6.948   3.169  22.143  0.00  0.00    +0.001 A 
ATOM     14  C   UNL     1       7.132   1.971  26.180  0.00  0.00    +0.010 A 
ATOM     15  C   UNL     1       6.426   1.934  22.533  0.00  0.00    +0.008 A 
ATOM     16  C   UNL     1       6.642   0.724  26.570  0.00  0.00    +0.029 A 
ENDBRANCH   4   7
ENDBRANCH   2   4
ENDBRANCH   1   2
BRANCH   1  17
ATOM     17  C   UNL     1       7.437  -3.427  23.364  0.00  0.00    +0.147 C 
BRANCH  17  18
ATOM     18  O   UNL     1       6.699  -2.730  22.346  0.00  0.00    -0.389 OA
ATOM     19  H   UNL     1       6.234  -2.000  22.794  0.00  0.00    +0.210 HD
ENDBRANCH  17  18
BRANCH  17  20
ATOM     20  C   UNL     1       8.691  -2.593  23.737  0.00  0.00    +0.085 C 
BRANCH  20  21
ATOM     21  N   UNL     1       9.817  -3.458  24.134  0.00  0.00    -0.325 NA
ATOM     22  H   UNL     1       9.617  -4.424  23.869  0.00  0.00    +0.119 HD
ATOM     23  H   UNL     1      10.632  -3.205  23.567  0.00  0.00    +0.119 HD
ENDBRANCH  20  21
BRANCH  20  24
ATOM     24  C   UNL     1       9.055  -1.693  22.526  0.00  0.00    +0.056 C 
BRANCH  24  25
ATOM     25  C   UNL     1       9.674  -0.355  22.843  0.00  0.00    -0.046 A 
ATOM     26  C   UNL     1      10.036  -0.024  24.156  0.00  0.00    +0.004 A 
ATOM     27  C   UNL     1      10.515   1.253  24.451  0.00  0.00    +0.000 A 
ATOM     28  C   UNL     1      10.636   2.209  23.445  0.00  0.00    +0.000 A 
ATOM     29  C   UNL     1      10.289   1.886  22.135  0.00  0.00    +0.000 A 
ATOM     30  C   UNL     1       9.811   0.610  21.835  0.00  0.00    +0.004 A 
ENDBRANCH  24  25
ENDBRANCH  20  24
ENDBRANCH  17  20
ENDBRANCH   1  17
TORSDOF 9
ENDMDL
