MODEL 1
REMARK VINA RESULT:      -7.7      0.000      0.000
REMARK  Name = 
REMARK  3 active torsions:
REMARK  status: ('A' for Active; 'I' for Inactive)
REMARK    1  A    between atoms: N_10  and  C_11
REMARK    2  A    between atoms: C_11  and  C_12
REMARK    3  A    between atoms: C_12  and  N_13
REMARK                            x       y       z     vdW  Elec       q    Type
REMARK                         _______ _______ _______ _____ _____    ______ ____
ROOT
ATOM      1  N   UNL     1       6.283  -6.821  29.028  0.00  0.00    -0.329 N 
ATOM      2  H   UNL     1       5.334  -6.795  29.376  0.00  0.00    +0.145 HD
ATOM      3  H   UNL     1       6.953  -6.452  29.699  0.00  0.00    +0.145 HD
ATOM      4  C   UNL     1       6.487  -6.303  27.793  0.00  0.00    +0.194 A 
ATOM      5  N   UNL     1       5.495  -6.478  26.876  0.00  0.00    -0.295 N 
ATOM      6  H   UNL     1       4.687  -7.031  27.106  0.00  0.00    +0.172 HD
ATOM      7  C   UNL     1       5.560  -6.015  25.586  0.00  0.00    +0.260 A 
ATOM      8  O   UNL     1       4.671  -6.237  24.769  0.00  0.00    -0.267 OA
ATOM      9  C   UNL     1       6.761  -5.230  25.246  0.00  0.00    +0.067 A 
ATOM     10  C   UNL     1       6.882  -4.608  23.992  0.00  0.00    +0.045 A 
ATOM     11  C   UNL     1       8.005  -3.795  23.774  0.00  0.00    +0.092 A 
ATOM     12  C   UNL     1       8.982  -3.709  24.759  0.00  0.00    +0.069 A 
ATOM     13  C   UNL     1       8.888  -4.352  25.996  0.00  0.00    +0.056 A 
ATOM     14  N   UNL     1       9.925  -2.871  24.223  0.00  0.00    -0.326 N 
ATOM     15  H   UNL     1      10.756  -2.531  24.680  0.00  0.00    +0.169 HD
ATOM     16  C   UNL     1       9.447  -2.393  23.032  0.00  0.00    +0.194 A 
ATOM     17  N   UNL     1      10.108  -1.382  22.425  0.00  0.00    -0.314 N 
ATOM     18  H   UNL     1      11.004  -1.618  21.996  0.00  0.00    +0.149 HD
ATOM     19  N   UNL     1       8.312  -2.971  22.715  0.00  0.00    -0.215 NA
ATOM     20  C   UNL     1       7.733  -5.102  26.246  0.00  0.00    +0.082 A 
ATOM     21  N   UNL     1       7.581  -5.664  27.528  0.00  0.00    -0.216 NA
ENDROOT
BRANCH  17  22
ATOM     22  C   UNL     1       9.320  -0.545  21.515  0.00  0.00    +0.119 C 
BRANCH  22  23
ATOM     23  C   UNL     1       9.498   0.960  21.844  0.00  0.00    +0.103 C 
BRANCH  23  24
ATOM     24  N   UNL     1       8.275   1.663  22.293  0.00  0.00    -0.297 NA
ATOM     25  C   UNL     1       8.609   2.970  22.918  0.00  0.00    +0.112 C 
ATOM     26  C   UNL     1       9.161   2.880  24.354  0.00  0.00    +0.175 C 
ATOM     27  O   UNL     1       8.280   2.142  25.209  0.00  0.00    -0.377 OA
ATOM     28  C   UNL     1       8.056   0.829  24.686  0.00  0.00    +0.175 C 
ATOM     29  C   UNL     1       7.470   0.888  23.264  0.00  0.00    +0.112 C 
ENDBRANCH  23  24
ENDBRANCH  22  23
ENDBRANCH  17  22
TORSDOF 3
ENDMDL
MODEL 2
REMARK VINA RESULT:      -7.6      0.829      1.300
REMARK  Name = 
REMARK  3 active torsions:
REMARK  status: ('A' for Active; 'I' for Inactive)
REMARK    1  A    between atoms: N_10  and  C_11
REMARK    2  A    between atoms: C_11  and  C_12
REMARK    3  A    between atoms: C_12  and  N_13
REMARK                            x       y       z     vdW  Elec       q    Type
REMARK                         _______ _______ _______ _____ _____    ______ ____
ROOT
ATOM      1  N   UNL     1       6.366  -6.763  28.904  0.00  0.00    -0.329 N 
ATOM      2  H   UNL     1       5.428  -6.715  29.280  0.00  0.00    +0.145 HD
ATOM      3  H   UNL     1       7.066  -6.437  29.566  0.00  0.00    +0.145 HD
ATOM      4  C   UNL     1       6.553  -6.215  27.679  0.00  0.00    +0.194 A 
ATOM      5  N   UNL     1       5.530  -6.329  26.786  0.00  0.00    -0.295 N 
ATOM      6  H   UNL     1       4.711  -6.862  27.023  0.00  0.00    +0.172 HD
ATOM      7  C   UNL     1       5.575  -5.831  25.509  0.00  0.00    +0.260 A 
ATOM      8  O   UNL     1       4.657  -5.998  24.712  0.00  0.00    -0.267 OA
ATOM      9  C   UNL     1       6.793  -5.077  25.158  0.00  0.00    +0.067 A 
ATOM     10  C   UNL     1       6.901  -4.422  23.919  0.00  0.00    +0.045 A 
ATOM     11  C   UNL     1       8.045  -3.641  23.693  0.00  0.00    +0.092 A 
ATOM     12  C   UNL     1       9.052  -3.618  24.651  0.00  0.00    +0.069 A 
ATOM     13  C   UNL     1       8.969  -4.295  25.871  0.00  0.00    +0.056 A 
ATOM     14  N   UNL     1      10.008  -2.796  24.112  0.00  0.00    -0.326 N 
ATOM     15  H   UNL     1      10.862  -2.499  24.556  0.00  0.00    +0.169 HD
ATOM     16  C   UNL     1       9.514  -2.267  22.950  0.00  0.00    +0.194 A 
ATOM     17  N   UNL     1      10.192  -1.262  22.354  0.00  0.00    -0.314 N 
ATOM     18  H   UNL     1      11.067  -1.515  21.892  0.00  0.00    +0.149 HD
ATOM     19  N   UNL     1       8.351  -2.796  22.649  0.00  0.00    -0.215 NA
ATOM     20  C   UNL     1       7.797  -5.012  26.132  0.00  0.00    +0.082 A 
ATOM     21  N   UNL     1       7.660  -5.606  27.401  0.00  0.00    -0.216 NA
ENDROOT
BRANCH  17  22
ATOM     22  C   UNL     1       9.409  -0.371  21.492  0.00  0.00    +0.119 C 
BRANCH  22  23
ATOM     23  C   UNL     1       9.408   1.079  22.039  0.00  0.00    +0.103 C 
BRANCH  23  24
ATOM     24  N   UNL     1      10.036   1.260  23.368  0.00  0.00    -0.297 NA
ATOM     25  C   UNL     1       9.034   1.115  24.456  0.00  0.00    +0.112 C 
ATOM     26  C   UNL     1       8.111   2.333  24.655  0.00  0.00    +0.175 C 
ATOM     27  O   UNL     1       8.863   3.536  24.844  0.00  0.00    -0.377 OA
ATOM     28  C   UNL     1       9.739   3.760  23.735  0.00  0.00    +0.175 C 
ATOM     29  C   UNL     1      10.699   2.574  23.534  0.00  0.00    +0.112 C 
ENDBRANCH  23  24
ENDBRANCH  22  23
ENDBRANCH  17  22
TORSDOF 3
ENDMDL
MODEL 3
REMARK VINA RESULT:      -7.4      2.321      3.951
REMARK  Name = 
REMARK  3 active torsions:
REMARK  status: ('A' for Active; 'I' for Inactive)
REMARK    1  A    between atoms: N_10  and  C_11
REMARK    2  A    between atoms: C_11  and  C_12
REMARK    3  A    between atoms: C_12  and  N_13
REMARK                            x       y       z     vdW  Elec       q    Type
REMARK                         _______ _______ _______ _____ _____    ______ ____
ROOT
ATOM      1  N   UNL     1      10.170  -5.641  25.619  0.00  0.00    -0.329 N 
ATOM      2  H   UNL     1       9.879  -5.959  26.534  0.00  0.00    +0.145 HD
ATOM      3  H   UNL     1      11.161  -5.418  25.583  0.00  0.00    +0.145 HD
ATOM      4  C   UNL     1       9.422  -4.661  25.056  0.00  0.00    +0.194 A 
ATOM      5  N   UNL     1       8.082  -4.687  25.296  0.00  0.00    -0.295 N 
ATOM      6  H   UNL     1       7.677  -5.450  25.812  0.00  0.00    +0.172 HD
ATOM      7  C   UNL     1       7.199  -3.767  24.791  0.00  0.00    +0.260 A 
ATOM      8  O   UNL     1       5.990  -3.850  24.983  0.00  0.00    -0.267 OA
ATOM      9  C   UNL     1       7.797  -2.668  24.009  0.00  0.00    +0.067 A 
ATOM     10  C   UNL     1       7.005  -1.604  23.542  0.00  0.00    +0.045 A 
ATOM     11  C   UNL     1       7.656  -0.545  22.893  0.00  0.00    +0.092 A 
ATOM     12  C   UNL     1       9.025  -0.628  22.662  0.00  0.00    +0.069 A 
ATOM     13  C   UNL     1       9.815  -1.697  23.092  0.00  0.00    +0.056 A 
ATOM     14  N   UNL     1       9.324   0.537  22.004  0.00  0.00    -0.326 N 
ATOM     15  H   UNL     1      10.240   0.851  21.726  0.00  0.00    +0.169 HD
ATOM     16  C   UNL     1       8.198   1.315  21.972  0.00  0.00    +0.194 A 
ATOM     17  N   UNL     1       8.305   2.599  21.565  0.00  0.00    -0.314 N 
ATOM     18  H   UNL     1       8.462   2.747  20.567  0.00  0.00    +0.149 HD
ATOM     19  N   UNL     1       7.165   0.667  22.460  0.00  0.00    -0.215 NA
ATOM     20  C   UNL     1       9.182  -2.720  23.807  0.00  0.00    +0.082 A 
ATOM     21  N   UNL     1       9.987  -3.746  24.336  0.00  0.00    -0.216 NA
ENDROOT
BRANCH  17  22
ATOM     22  C   UNL     1       7.279   3.524  22.055  0.00  0.00    +0.119 C 
BRANCH  22  23
ATOM     23  C   UNL     1       7.906   4.645  22.924  0.00  0.00    +0.103 C 
BRANCH  23  24
ATOM     24  N   UNL     1       8.965   4.209  23.861  0.00  0.00    -0.297 NA
ATOM     25  C   UNL     1       8.391   3.835  25.180  0.00  0.00    +0.112 C 
ATOM     26  C   UNL     1       7.997   5.025  26.077  0.00  0.00    +0.175 C 
ATOM     27  O   UNL     1       9.093   5.927  26.263  0.00  0.00    -0.377 OA
ATOM     28  C   UNL     1       9.571   6.402  25.000  0.00  0.00    +0.175 C 
ATOM     29  C   UNL     1      10.007   5.236  24.094  0.00  0.00    +0.112 C 
ENDBRANCH  23  24
ENDBRANCH  22  23
ENDBRANCH  17  22
TORSDOF 3
ENDMDL
MODEL 4
REMARK VINA RESULT:      -7.2      1.698      7.400
REMARK  Name = 
REMARK  3 active torsions:
REMARK  status: ('A' for Active; 'I' for Inactive)
REMARK    1  A    between atoms: N_10  and  C_11
REMARK    2  A    between atoms: C_11  and  C_12
REMARK    3  A    between atoms: C_12  and  N_13
REMARK                            x       y       z     vdW  Elec       q    Type
REMARK                         _______ _______ _______ _____ _____    ______ ____
ROOT
ATOM      1  N   UNL     1      10.218   2.227  21.509  0.00  0.00    -0.329 N 
ATOM      2  H   UNL     1       9.594   2.968  21.222  0.00  0.00    +0.145 HD
ATOM      3  H   UNL     1      10.517   1.648  20.728  0.00  0.00    +0.145 HD
ATOM      4  C   UNL     1       9.814   1.470  22.558  0.00  0.00    +0.194 A 
ATOM      5  N   UNL     1       9.119   2.100  23.546  0.00  0.00    -0.295 N 
ATOM      6  H   UNL     1       8.985   3.097  23.511  0.00  0.00    +0.172 HD
ATOM      7  C   UNL     1       8.649   1.469  24.669  0.00  0.00    +0.260 A 
ATOM      8  O   UNL     1       8.073   2.077  25.566  0.00  0.00    -0.267 OA
ATOM      9  C   UNL     1       8.876   0.013  24.727  0.00  0.00    +0.067 A 
ATOM     10  C   UNL     1       8.338  -0.758  25.773  0.00  0.00    +0.045 A 
ATOM     11  C   UNL     1       8.508  -2.149  25.710  0.00  0.00    +0.092 A 
ATOM     12  C   UNL     1       9.266  -2.695  24.681  0.00  0.00    +0.069 A 
ATOM     13  C   UNL     1       9.835  -1.934  23.656  0.00  0.00    +0.056 A 
ATOM     14  N   UNL     1       9.247  -4.043  24.930  0.00  0.00    -0.326 N 
ATOM     15  H   UNL     1       9.648  -4.765  24.353  0.00  0.00    +0.169 HD
ATOM     16  C   UNL     1       8.406  -4.273  25.986  0.00  0.00    +0.194 A 
ATOM     17  N   UNL     1       8.060  -5.547  26.276  0.00  0.00    -0.314 N 
ATOM     18  H   UNL     1       8.785  -6.129  26.698  0.00  0.00    +0.149 HD
ATOM     19  N   UNL     1       7.984  -3.144  26.505  0.00  0.00    -0.215 NA
ATOM     20  C   UNL     1       9.603  -0.554  23.673  0.00  0.00    +0.082 A 
ATOM     21  N   UNL     1      10.080   0.205  22.588  0.00  0.00    -0.216 NA
ENDROOT
BRANCH  17  22
ATOM     22  C   UNL     1       6.792  -5.729  26.987  0.00  0.00    +0.119 C 
BRANCH  22  23
ATOM     23  C   UNL     1       5.584  -5.453  26.055  0.00  0.00    +0.103 C 
BRANCH  23  24
ATOM     24  N   UNL     1       5.659  -6.073  24.713  0.00  0.00    -0.297 NA
ATOM     25  C   UNL     1       5.809  -5.040  23.655  0.00  0.00    +0.112 C 
ATOM     26  C   UNL     1       4.516  -4.279  23.302  0.00  0.00    +0.175 C 
ATOM     27  O   UNL     1       3.457  -5.178  22.956  0.00  0.00    -0.377 OA
ATOM     28  C   UNL     1       3.210  -6.097  24.025  0.00  0.00    +0.175 C 
ATOM     29  C   UNL     1       4.476  -6.899  24.376  0.00  0.00    +0.112 C 
ENDBRANCH  23  24
ENDBRANCH  22  23
ENDBRANCH  17  22
TORSDOF 3
ENDMDL
MODEL 5
REMARK VINA RESULT:      -7.1      2.281      7.695
REMARK  Name = 
REMARK  3 active torsions:
REMARK  status: ('A' for Active; 'I' for Inactive)
REMARK    1  A    between atoms: N_10  and  C_11
REMARK    2  A    between atoms: C_11  and  C_12
REMARK    3  A    between atoms: C_12  and  N_13
REMARK                            x       y       z     vdW  Elec       q    Type
REMARK                         _______ _______ _______ _____ _____    ______ ____
ROOT
ATOM      1  N   UNL     1      11.426   3.740  22.989  0.00  0.00    -0.329 N 
ATOM      2  H   UNL     1      12.011   3.808  22.168  0.00  0.00    +0.145 HD
ATOM      3  H   UNL     1      11.954   3.846  23.852  0.00  0.00    +0.145 HD
ATOM      4  C   UNL     1      10.592   2.674  23.049  0.00  0.00    +0.194 A 
ATOM      5  N   UNL     1      10.051   2.243  21.875  0.00  0.00    -0.295 N 
ATOM      6  H   UNL     1      10.220   2.753  21.025  0.00  0.00    +0.172 HD
ATOM      7  C   UNL     1       9.188   1.181  21.779  0.00  0.00    +0.260 A 
ATOM      8  O   UNL     1       8.676   0.852  20.713  0.00  0.00    -0.267 OA
ATOM      9  C   UNL     1       8.920   0.457  23.035  0.00  0.00    +0.067 A 
ATOM     10  C   UNL     1       8.145  -0.716  23.038  0.00  0.00    +0.045 A 
ATOM     11  C   UNL     1       8.016  -1.407  24.252  0.00  0.00    +0.092 A 
ATOM     12  C   UNL     1       8.574  -0.867  25.405  0.00  0.00    +0.069 A 
ATOM     13  C   UNL     1       9.316   0.317  25.419  0.00  0.00    +0.056 A 
ATOM     14  N   UNL     1       8.248  -1.765  26.388  0.00  0.00    -0.326 N 
ATOM     15  H   UNL     1       8.537  -1.730  27.352  0.00  0.00    +0.169 HD
ATOM     16  C   UNL     1       7.637  -2.841  25.801  0.00  0.00    +0.194 A 
ATOM     17  N   UNL     1       7.419  -3.949  26.544  0.00  0.00    -0.314 N 
ATOM     18  H   UNL     1       6.682  -3.887  27.247  0.00  0.00    +0.149 HD
ATOM     19  N   UNL     1       7.442  -2.630  24.520  0.00  0.00    -0.215 NA
ATOM     20  C   UNL     1       9.513   0.969  24.196  0.00  0.00    +0.082 A 
ATOM     21  N   UNL     1      10.348   2.102  24.184  0.00  0.00    -0.216 NA
ENDROOT
BRANCH  17  22
ATOM     22  C   UNL     1       7.307  -5.212  25.808  0.00  0.00    +0.119 C 
BRANCH  22  23
ATOM     23  C   UNL     1       5.833  -5.686  25.731  0.00  0.00    +0.103 C 
BRANCH  23  24
ATOM     24  N   UNL     1       5.453  -6.392  24.486  0.00  0.00    -0.297 NA
ATOM     25  C   UNL     1       5.740  -5.558  23.291  0.00  0.00    +0.112 C 
ATOM     26  C   UNL     1       4.728  -4.424  23.032  0.00  0.00    +0.175 C 
ATOM     27  O   UNL     1       3.388  -4.922  22.967  0.00  0.00    -0.377 OA
ATOM     28  C   UNL     1       3.051  -5.615  24.173  0.00  0.00    +0.175 C 
ATOM     29  C   UNL     1       4.024  -6.778  24.439  0.00  0.00    +0.112 C 
ENDBRANCH  23  24
ENDBRANCH  22  23
ENDBRANCH  17  22
TORSDOF 3
ENDMDL
MODEL 6
REMARK VINA RESULT:      -7.1      2.788      7.996
REMARK  Name = 
REMARK  3 active torsions:
REMARK  status: ('A' for Active; 'I' for Inactive)
REMARK    1  A    between atoms: N_10  and  C_11
REMARK    2  A    between atoms: C_11  and  C_12
REMARK    3  A    between atoms: C_12  and  N_13
REMARK                            x       y       z     vdW  Elec       q    Type
REMARK                         _______ _______ _______ _____ _____    ______ ____
ROOT
ATOM      1  N   UNL     1      12.064   4.913  22.614  0.00  0.00    -0.329 N 
ATOM      2  H   UNL     1      11.716   5.544  21.906  0.00  0.00    +0.145 HD
ATOM      3  H   UNL     1      12.865   4.374  22.294  0.00  0.00    +0.145 HD
ATOM      4  C   UNL     1      11.145   4.120  23.218  0.00  0.00    +0.194 A 
ATOM      5  N   UNL     1       9.909   4.651  23.427  0.00  0.00    -0.295 N 
ATOM      6  H   UNL     1       9.729   5.614  23.200  0.00  0.00    +0.172 HD
ATOM      7  C   UNL     1       8.880   3.973  24.030  0.00  0.00    +0.260 A 
ATOM      8  O   UNL     1       7.794   4.499  24.251  0.00  0.00    -0.267 OA
ATOM      9  C   UNL     1       9.161   2.570  24.388  0.00  0.00    +0.067 A 
ATOM     10  C   UNL     1       8.147   1.743  24.903  0.00  0.00    +0.045 A 
ATOM     11  C   UNL     1       8.460   0.394  25.127  0.00  0.00    +0.092 A 
ATOM     12  C   UNL     1       9.762  -0.046  24.919  0.00  0.00    +0.069 A 
ATOM     13  C   UNL     1      10.786   0.777  24.440  0.00  0.00    +0.056 A 
ATOM     14  N   UNL     1       9.723  -1.376  25.247  0.00  0.00    -0.326 N 
ATOM     15  H   UNL     1      10.478  -2.037  25.162  0.00  0.00    +0.169 HD
ATOM     16  C   UNL     1       8.423  -1.716  25.509  0.00  0.00    +0.194 A 
ATOM     17  N   UNL     1       8.107  -3.023  25.645  0.00  0.00    -0.314 N 
ATOM     18  H   UNL     1       8.423  -3.480  26.502  0.00  0.00    +0.149 HD
ATOM     19  N   UNL     1       7.647  -0.657  25.491  0.00  0.00    -0.215 NA
ATOM     20  C   UNL     1      10.459   2.105  24.143  0.00  0.00    +0.082 A 
ATOM     21  N   UNL     1      11.455   2.911  23.560  0.00  0.00    -0.216 NA
ENDROOT
BRANCH  17  22
ATOM     22  C   UNL     1       6.716  -3.387  25.364  0.00  0.00    +0.119 C 
BRANCH  22  23
ATOM     23  C   UNL     1       6.638  -4.617  24.422  0.00  0.00    +0.103 C 
BRANCH  23  24
ATOM     24  N   UNL     1       7.472  -4.538  23.201  0.00  0.00    -0.297 NA
ATOM     25  C   UNL     1       7.122  -3.342  22.391  0.00  0.00    +0.112 C 
ATOM     26  C   UNL     1       5.822  -3.470  21.573  0.00  0.00    +0.175 C 
ATOM     27  O   UNL     1       5.839  -4.634  20.739  0.00  0.00    -0.377 OA
ATOM     28  C   UNL     1       6.042  -5.812  21.526  0.00  0.00    +0.175 C 
ATOM     29  C   UNL     1       7.353  -5.729  22.327  0.00  0.00    +0.112 C 
ENDBRANCH  23  24
ENDBRANCH  22  23
ENDBRANCH  17  22
TORSDOF 3
ENDMDL
MODEL 7
REMARK VINA RESULT:      -7.1      2.258      2.853
REMARK  Name = 
REMARK  3 active torsions:
REMARK  status: ('A' for Active; 'I' for Inactive)
REMARK    1  A    between atoms: N_10  and  C_11
REMARK    2  A    between atoms: C_11  and  C_12
REMARK    3  A    between atoms: C_12  and  N_13
REMARK                            x       y       z     vdW  Elec       q    Type
REMARK                         _______ _______ _______ _____ _____    ______ ____
ROOT
ATOM      1  N   UNL     1       3.638  -7.187  24.178  0.00  0.00    -0.329 N 
ATOM      2  H   UNL     1       2.836  -7.217  23.564  0.00  0.00    +0.145 HD
ATOM      3  H   UNL     1       3.381  -6.990  25.142  0.00  0.00    +0.145 HD
ATOM      4  C   UNL     1       4.676  -6.413  23.777  0.00  0.00    +0.194 A 
ATOM      5  N   UNL     1       4.928  -6.359  22.439  0.00  0.00    -0.295 N 
ATOM      6  H   UNL     1       4.400  -6.932  21.803  0.00  0.00    +0.172 HD
ATOM      7  C   UNL     1       5.945  -5.625  21.885  0.00  0.00    +0.260 A 
ATOM      8  O   UNL     1       6.178  -5.641  20.680  0.00  0.00    -0.267 OA
ATOM      9  C   UNL     1       6.735  -4.811  22.827  0.00  0.00    +0.067 A 
ATOM     10  C   UNL     1       7.726  -3.930  22.361  0.00  0.00    +0.045 A 
ATOM     11  C   UNL     1       8.368  -3.114  23.304  0.00  0.00    +0.092 A 
ATOM     12  C   UNL     1       8.068  -3.270  24.653  0.00  0.00    +0.069 A 
ATOM     13  C   UNL     1       7.110  -4.168  25.130  0.00  0.00    +0.056 A 
ATOM     14  N   UNL     1       8.871  -2.354  25.283  0.00  0.00    -0.326 N 
ATOM     15  H   UNL     1       8.882  -2.143  26.267  0.00  0.00    +0.169 HD
ATOM     16  C   UNL     1       9.512  -1.615  24.325  0.00  0.00    +0.194 A 
ATOM     17  N   UNL     1      10.193  -0.510  24.704  0.00  0.00    -0.314 N 
ATOM     18  H   UNL     1      11.070  -0.666  25.202  0.00  0.00    +0.149 HD
ATOM     19  N   UNL     1       9.263  -2.083  23.124  0.00  0.00    -0.215 NA
ATOM     20  C   UNL     1       6.412  -4.929  24.185  0.00  0.00    +0.082 A 
ATOM     21  N   UNL     1       5.372  -5.756  24.647  0.00  0.00    -0.216 NA
ENDROOT
BRANCH  17  22
ATOM     22  C   UNL     1      10.372   0.525  23.681  0.00  0.00    +0.119 C 
BRANCH  22  23
ATOM     23  C   UNL     1       9.683   1.850  24.099  0.00  0.00    +0.103 C 
BRANCH  23  24
ATOM     24  N   UNL     1       9.222   2.708  22.984  0.00  0.00    -0.297 NA
ATOM     25  C   UNL     1       8.282   3.752  23.467  0.00  0.00    +0.112 C 
ATOM     26  C   UNL     1       6.853   3.254  23.760  0.00  0.00    +0.175 C 
ATOM     27  O   UNL     1       6.290   2.579  22.630  0.00  0.00    -0.377 OA
ATOM     28  C   UNL     1       7.121   1.483  22.235  0.00  0.00    +0.175 C 
ATOM     29  C   UNL     1       8.547   1.956  21.900  0.00  0.00    +0.112 C 
ENDBRANCH  23  24
ENDBRANCH  22  23
ENDBRANCH  17  22
TORSDOF 3
ENDMDL
MODEL 8
REMARK VINA RESULT:      -7.0      2.424      7.844
REMARK  Name = 
REMARK  3 active torsions:
REMARK  status: ('A' for Active; 'I' for Inactive)
REMARK    1  A    between atoms: N_10  and  C_11
REMARK    2  A    between atoms: C_11  and  C_12
REMARK    3  A    between atoms: C_12  and  N_13
REMARK                            x       y       z     vdW  Elec       q    Type
REMARK                         _______ _______ _______ _____ _____    ______ ____
ROOT
ATOM      1  N   UNL     1      11.430   4.014  23.349  0.00  0.00    -0.329 N 
ATOM      2  H   UNL     1      11.512   4.635  22.555  0.00  0.00    +0.145 HD
ATOM      3  H   UNL     1      12.330   3.649  23.650  0.00  0.00    +0.145 HD
ATOM      4  C   UNL     1      10.505   3.028  23.251  0.00  0.00    +0.194 A 
ATOM      5  N   UNL     1       9.355   3.322  22.583  0.00  0.00    -0.295 N 
ATOM      6  H   UNL     1       9.190   4.256  22.248  0.00  0.00    +0.172 HD
ATOM      7  C   UNL     1       8.328   2.430  22.407  0.00  0.00    +0.260 A 
ATOM      8  O   UNL     1       7.282   2.743  21.847  0.00  0.00    -0.267 OA
ATOM      9  C   UNL     1       8.564   1.070  22.928  0.00  0.00    +0.067 A 
ATOM     10  C   UNL     1       7.632   0.042  22.702  0.00  0.00    +0.045 A 
ATOM     11  C   UNL     1       7.968  -1.248  23.139  0.00  0.00    +0.092 A 
ATOM     12  C   UNL     1       9.150  -1.440  23.845  0.00  0.00    +0.069 A 
ATOM     13  C   UNL     1      10.066  -0.417  24.105  0.00  0.00    +0.056 A 
ATOM     14  N   UNL     1       9.155  -2.781  24.132  0.00  0.00    -0.326 N 
ATOM     15  H   UNL     1       9.892  -3.294  24.588  0.00  0.00    +0.169 HD
ATOM     16  C   UNL     1       8.083  -3.358  23.505  0.00  0.00    +0.194 A 
ATOM     17  N   UNL     1       8.002  -4.707  23.465  0.00  0.00    -0.314 N 
ATOM     18  H   UNL     1       7.769  -5.174  24.343  0.00  0.00    +0.149 HD
ATOM     19  N   UNL     1       7.325  -2.449  22.938  0.00  0.00    -0.215 NA
ATOM     20  C   UNL     1       9.771   0.855  23.604  0.00  0.00    +0.082 A 
ATOM     21  N   UNL     1      10.737   1.865  23.768  0.00  0.00    -0.216 NA
ENDROOT
BRANCH  17  22
ATOM     22  C   UNL     1       7.218  -5.278  22.367  0.00  0.00    +0.119 C 
BRANCH  22  23
ATOM     23  C   UNL     1       5.960  -6.011  22.900  0.00  0.00    +0.103 C 
BRANCH  23  24
ATOM     24  N   UNL     1       5.246  -5.332  24.006  0.00  0.00    -0.297 NA
ATOM     25  C   UNL     1       4.899  -6.292  25.086  0.00  0.00    +0.112 C 
ATOM     26  C   UNL     1       3.694  -7.204  24.783  0.00  0.00    +0.175 C 
ATOM     27  O   UNL     1       2.538  -6.441  24.420  0.00  0.00    -0.377 OA
ATOM     28  C   UNL     1       2.820  -5.608  23.291  0.00  0.00    +0.175 C 
ATOM     29  C   UNL     1       3.998  -4.660  23.578  0.00  0.00    +0.112 C 
ENDBRANCH  23  24
ENDBRANCH  22  23
ENDBRANCH  17  22
TORSDOF 3
ENDMDL
MODEL 9
REMARK VINA RESULT:      -7.0      1.897      2.792
REMARK  Name = 
REMARK  3 active torsions:
REMARK  status: ('A' for Active; 'I' for Inactive)
REMARK    1  A    between atoms: N_10  and  C_11
REMARK    2  A    between atoms: C_11  and  C_12
REMARK    3  A    between atoms: C_12  and  N_13
REMARK                            x       y       z     vdW  Elec       q    Type
REMARK                         _______ _______ _______ _____ _____    ______ ____
ROOT
ATOM      1  N   UNL     1       3.629  -7.521  26.153  0.00  0.00    -0.329 N 
ATOM      2  H   UNL     1       4.019  -8.438  26.322  0.00  0.00    +0.145 HD
ATOM      3  H   UNL     1       2.965  -7.518  25.383  0.00  0.00    +0.145 HD
ATOM      4  C   UNL     1       4.514  -6.500  26.045  0.00  0.00    +0.194 A 
ATOM      5  N   UNL     1       5.625  -6.557  26.831  0.00  0.00    -0.295 N 
ATOM      6  H   UNL     1       5.728  -7.296  27.506  0.00  0.00    +0.172 HD
ATOM      7  C   UNL     1       6.604  -5.597  26.836  0.00  0.00    +0.260 A 
ATOM      8  O   UNL     1       7.567  -5.651  27.595  0.00  0.00    -0.267 OA
ATOM      9  C   UNL     1       6.431  -4.499  25.866  0.00  0.00    +0.067 A 
ATOM     10  C   UNL     1       7.428  -3.523  25.698  0.00  0.00    +0.045 A 
ATOM     11  C   UNL     1       7.240  -2.568  24.688  0.00  0.00    +0.092 A 
ATOM     12  C   UNL     1       6.054  -2.570  23.963  0.00  0.00    +0.069 A 
ATOM     13  C   UNL     1       5.042  -3.516  24.145  0.00  0.00    +0.056 A 
ATOM     14  N   UNL     1       6.190  -1.517  23.095  0.00  0.00    -0.326 N 
ATOM     15  H   UNL     1       5.544  -1.249  22.371  0.00  0.00    +0.169 HD
ATOM     16  C   UNL     1       7.455  -1.011  23.229  0.00  0.00    +0.194 A 
ATOM     17  N   UNL     1       7.893  -0.105  22.326  0.00  0.00    -0.314 N 
ATOM     18  H   UNL     1       7.488   0.830  22.388  0.00  0.00    +0.149 HD
ATOM     19  N   UNL     1       8.094  -1.595  24.216  0.00  0.00    -0.215 NA
ATOM     20  C   UNL     1       5.259  -4.516  25.099  0.00  0.00    +0.082 A 
ATOM     21  N   UNL     1       4.293  -5.533  25.214  0.00  0.00    -0.216 NA
ENDROOT
BRANCH  17  22
ATOM     22  C   UNL     1       9.345  -0.014  22.148  0.00  0.00    +0.119 C 
BRANCH  22  23
ATOM     23  C   UNL     1       9.817   1.462  22.148  0.00  0.00    +0.103 C 
BRANCH  23  24
ATOM     24  N   UNL     1      10.520   1.908  23.373  0.00  0.00    -0.297 NA
ATOM     25  C   UNL     1       9.753   1.539  24.592  0.00  0.00    +0.112 C 
ATOM     26  C   UNL     1       8.534   2.435  24.888  0.00  0.00    +0.175 C 
ATOM     27  O   UNL     1       8.901   3.818  24.943  0.00  0.00    -0.377 OA
ATOM     28  C   UNL     1       9.522   4.222  23.719  0.00  0.00    +0.175 C 
ATOM     29  C   UNL     1      10.766   3.367  23.415  0.00  0.00    +0.112 C 
ENDBRANCH  23  24
ENDBRANCH  22  23
ENDBRANCH  17  22
TORSDOF 3
ENDMDL
