MODEL 1
REMARK VINA RESULT:      -6.8      0.000      0.000
REMARK  Name = 
REMARK  10 active torsions:
REMARK  status: ('A' for Active; 'I' for Inactive)
REMARK    1  A    between atoms: C_2  and  N_3
REMARK    2  A    between atoms: C_2  and  C_12
REMARK    3  A    between atoms: C_2  and  C_15
REMARK    4  A    between atoms: N_6  and  C_7
REMARK    5  A    between atoms: C_12  and  C_13
REMARK    6  A    between atoms: C_12  and  C_14
REMARK    7  A    between atoms: C_20  and  N_22
REMARK    8  A    between atoms: C_23  and  C_25
REMARK    9  A    between atoms: C_28  and  C_30
REMARK   10  A    between atoms: C_30  and  C_34
REMARK                            x       y       z     vdW  Elec       q    Type
REMARK                         _______ _______ _______ _____ _____    ______ ____
ROOT
ATOM      1  C   UNL     1       7.404  -1.228  24.280  0.00  0.00    +0.237 C 
ATOM      2  N   UNL     1       7.044  -2.441  23.695  0.00  0.00    -0.294 N 
ATOM      3  C   UNL     1       6.265  -3.484  24.391  0.00  0.00    +0.109 C 
ATOM      4  C   UNL     1       5.596  -4.315  23.260  0.00  0.00    +0.096 C 
ATOM      5  C   UNL     1       6.108  -3.738  21.941  0.00  0.00    +0.043 C 
ATOM      6  C   UNL     1       7.208  -2.761  22.294  0.00  0.00    +0.110 C 
ATOM      7  O   UNL     1       6.984  -0.889  25.390  0.00  0.00    -0.274 OA
ENDROOT
BRANCH   3   8
ATOM      8  C   UNL     1       7.227  -4.363  25.239  0.00  0.00    +0.046 C 
ATOM      9  C   UNL     1       6.542  -5.624  25.908  0.00  0.00    +0.016 C 
ATOM     10  C   UNL     1       7.429  -5.355  27.144  0.00  0.00    +0.002 C 
ATOM     11  C   UNL     1       7.424  -3.878  26.723  0.00  0.00    +0.016 C 
BRANCH   8  12
ATOM     12  C   UNL     1       8.571  -4.765  24.472  0.00  0.00    +0.232 C 
ATOM     13  O   UNL     1       9.690  -4.262  24.545  0.00  0.00    -0.300 OA
ENDBRANCH   8  12
ENDBRANCH   3   8
BRANCH   4  14
ATOM     14  N   UNL     1       4.137  -4.268  23.288  0.00  0.00    -0.310 N 
ATOM     15  H   UNL     1       3.667  -3.384  23.130  0.00  0.00    +0.149 HD
ATOM     16  C   UNL     1       3.386  -5.382  23.557  0.00  0.00    +0.216 C 
ATOM     17  O   UNL     1       3.866  -6.475  23.836  0.00  0.00    -0.276 OA
BRANCH  16  18
ATOM     18  C   UNL     1       1.916  -5.180  23.432  0.00  0.00    +0.075 C 
ATOM     19  C   UNL     1       0.947  -6.148  24.067  0.00  0.00    +0.013 C 
ATOM     20  C   UNL     1       1.107  -6.129  22.576  0.00  0.00    +0.013 C 
ENDBRANCH  16  18
ENDBRANCH   4  14
BRANCH   1  21
ATOM     21  C   UNL     1       8.361  -0.280  23.485  0.00  0.00    +0.163 C 
BRANCH  21  22
ATOM     22  N   UNL     1       8.069   1.108  23.870  0.00  0.00    -0.288 N 
ATOM     23  H   UNL     1       7.972   1.285  24.862  0.00  0.00    +0.151 HD
ATOM     24  C   UNL     1       7.412   1.935  22.997  0.00  0.00    +0.300 C 
ATOM     25  N   UNL     1       7.131   3.158  23.544  0.00  0.00    -0.297 N 
ATOM     26  H   UNL     1       7.726   3.437  24.310  0.00  0.00    +0.151 HD
ATOM     27  O   UNL     1       7.109   1.615  21.855  0.00  0.00    -0.253 OA
BRANCH  25  28
ATOM     28  C   UNL     1       6.559   4.207  22.721  0.00  0.00    +0.074 C 
ATOM     29  C   UNL     1       7.606   5.197  22.197  0.00  0.00    +0.022 C 
ATOM     30  C   UNL     1       6.900   6.553  22.116  0.00  0.00    +0.002 C 
ATOM     31  C   UNL     1       5.473   6.319  22.600  0.00  0.00    +0.002 C 
ATOM     32  C   UNL     1       5.573   5.085  23.482  0.00  0.00    +0.022 C 
ENDBRANCH  25  28
ENDBRANCH  21  22
BRANCH  21  33
ATOM     33  C   UNL     1       9.875  -0.582  23.592  0.00  0.00    +0.012 C 
ATOM     34  C   UNL     1      10.664   0.578  24.189  0.00  0.00    +0.009 C 
ATOM     35  C   UNL     1      10.534  -1.021  22.284  0.00  0.00    +0.009 C 
ENDBRANCH  21  33
ENDBRANCH   1  21
TORSDOF 8
ENDMDL
MODEL 2
REMARK VINA RESULT:      -6.8      1.922      8.173
REMARK  Name = 
REMARK  10 active torsions:
REMARK  status: ('A' for Active; 'I' for Inactive)
REMARK    1  A    between atoms: C_2  and  N_3
REMARK    2  A    between atoms: C_2  and  C_12
REMARK    3  A    between atoms: C_2  and  C_15
REMARK    4  A    between atoms: N_6  and  C_7
REMARK    5  A    between atoms: C_12  and  C_13
REMARK    6  A    between atoms: C_12  and  C_14
REMARK    7  A    between atoms: C_20  and  N_22
REMARK    8  A    between atoms: C_23  and  C_25
REMARK    9  A    between atoms: C_28  and  C_30
REMARK   10  A    between atoms: C_30  and  C_34
REMARK                            x       y       z     vdW  Elec       q    Type
REMARK                         _______ _______ _______ _____ _____    ______ ____
ROOT
ATOM      1  C   UNL     1       7.202  -2.892  23.507  0.00  0.00    +0.237 C 
ATOM      2  N   UNL     1       7.146  -1.614  24.061  0.00  0.00    -0.294 N 
ATOM      3  C   UNL     1       7.554  -0.393  23.338  0.00  0.00    +0.109 C 
ATOM      4  C   UNL     1       6.787   0.767  24.033  0.00  0.00    +0.096 C 
ATOM      5  C   UNL     1       6.024   0.140  25.200  0.00  0.00    +0.043 C 
ATOM      6  C   UNL     1       6.511  -1.288  25.319  0.00  0.00    +0.110 C 
ATOM      7  O   UNL     1       7.483  -3.077  22.319  0.00  0.00    -0.274 OA
ENDROOT
BRANCH   3   8
ATOM      8  C   UNL     1       9.092  -0.207  23.472  0.00  0.00    +0.046 C 
ATOM      9  C   UNL     1       9.683  -0.639  24.876  0.00  0.00    +0.016 C 
ATOM     10  C   UNL     1      10.628   0.579  24.767  0.00  0.00    +0.002 C 
ATOM     11  C   UNL     1       9.544   1.238  23.901  0.00  0.00    +0.016 C 
BRANCH   8  12
ATOM     12  C   UNL     1       9.923  -0.849  22.265  0.00  0.00    +0.232 C 
ATOM     13  O   UNL     1      10.573  -1.892  22.235  0.00  0.00    -0.300 OA
ENDBRANCH   8  12
ENDBRANCH   3   8
BRANCH   4  14
ATOM     14  N   UNL     1       5.856   1.462  23.150  0.00  0.00    -0.310 N 
ATOM     15  H   UNL     1       5.313   0.927  22.483  0.00  0.00    +0.149 HD
ATOM     16  C   UNL     1       5.724   2.826  23.173  0.00  0.00    +0.216 C 
ATOM     17  O   UNL     1       6.394   3.562  23.889  0.00  0.00    -0.276 OA
BRANCH  16  18
ATOM     18  C   UNL     1       4.651   3.356  22.288  0.00  0.00    +0.075 C 
ATOM     19  C   UNL     1       3.955   4.657  22.613  0.00  0.00    +0.013 C 
ATOM     20  C   UNL     1       3.220   3.361  22.780  0.00  0.00    +0.013 C 
ENDBRANCH  16  18
ENDBRANCH   4  14
BRANCH   1  21
ATOM     21  C   UNL     1       6.887  -4.113  24.433  0.00  0.00    +0.163 C 
BRANCH  21  22
ATOM     22  N   UNL     1       5.992  -5.027  23.711  0.00  0.00    -0.288 N 
ATOM     23  H   UNL     1       6.141  -5.102  22.713  0.00  0.00    +0.151 HD
ATOM     24  C   UNL     1       4.738  -5.284  24.201  0.00  0.00    +0.300 C 
ATOM     25  N   UNL     1       4.000  -6.075  23.362  0.00  0.00    -0.297 N 
ATOM     26  H   UNL     1       4.533  -6.655  22.733  0.00  0.00    +0.151 HD
ATOM     27  O   UNL     1       4.324  -4.852  25.269  0.00  0.00    -0.253 OA
BRANCH  25  28
ATOM     28  C   UNL     1       2.697  -6.558  23.781  0.00  0.00    +0.074 C 
ATOM     29  C   UNL     1       2.759  -7.919  24.484  0.00  0.00    +0.022 C 
ATOM     30  C   UNL     1       1.457  -8.639  24.123  0.00  0.00    +0.002 C 
ATOM     31  C   UNL     1       0.681  -7.688  23.219  0.00  0.00    +0.002 C 
ATOM     32  C   UNL     1       1.749  -6.792  22.611  0.00  0.00    +0.022 C 
ENDBRANCH  25  28
ENDBRANCH  21  22
BRANCH  21  33
ATOM     33  C   UNL     1       8.106  -4.868  25.016  0.00  0.00    +0.012 C 
ATOM     34  C   UNL     1       7.911  -5.257  26.477  0.00  0.00    +0.009 C 
ATOM     35  C   UNL     1       9.443  -4.142  24.860  0.00  0.00    +0.009 C 
ENDBRANCH  21  33
ENDBRANCH   1  21
TORSDOF 8
ENDMDL
MODEL 3
REMARK VINA RESULT:      -6.7      2.661      8.176
REMARK  Name = 
REMARK  10 active torsions:
REMARK  status: ('A' for Active; 'I' for Inactive)
REMARK    1  A    between atoms: C_2  and  N_3
REMARK    2  A    between atoms: C_2  and  C_12
REMARK    3  A    between atoms: C_2  and  C_15
REMARK    4  A    between atoms: N_6  and  C_7
REMARK    5  A    between atoms: C_12  and  C_13
REMARK    6  A    between atoms: C_12  and  C_14
REMARK    7  A    between atoms: C_20  and  N_22
REMARK    8  A    between atoms: C_23  and  C_25
REMARK    9  A    between atoms: C_28  and  C_30
REMARK   10  A    between atoms: C_30  and  C_34
REMARK                            x       y       z     vdW  Elec       q    Type
REMARK                         _______ _______ _______ _____ _____    ______ ____
ROOT
ATOM      1  C   UNL     1       7.810   1.812  22.624  0.00  0.00    +0.237 C 
ATOM      2  N   UNL     1       6.713   2.358  23.288  0.00  0.00    -0.294 N 
ATOM      3  C   UNL     1       5.932   3.501  22.773  0.00  0.00    +0.109 C 
ATOM      4  C   UNL     1       4.536   3.376  23.445  0.00  0.00    +0.096 C 
ATOM      5  C   UNL     1       4.622   2.183  24.397  0.00  0.00    +0.043 C 
ATOM      6  C   UNL     1       6.077   1.773  24.449  0.00  0.00    +0.110 C 
ATOM      7  O   UNL     1       8.130   2.173  21.488  0.00  0.00    -0.274 OA
ENDROOT
BRANCH   3   8
ATOM      8  C   UNL     1       6.634   4.827  23.182  0.00  0.00    +0.046 C 
ATOM      9  C   UNL     1       7.642   4.687  24.395  0.00  0.00    +0.016 C 
ATOM     10  C   UNL     1       7.133   6.063  24.878  0.00  0.00    +0.002 C 
ATOM     11  C   UNL     1       5.809   5.728  24.174  0.00  0.00    +0.016 C 
BRANCH   8  12
ATOM     12  C   UNL     1       7.301   5.604  21.953  0.00  0.00    +0.232 C 
ATOM     13  O   UNL     1       7.015   6.702  21.478  0.00  0.00    -0.300 OA
ENDBRANCH   8  12
ENDBRANCH   3   8
BRANCH   4  14
ATOM     14  N   UNL     1       3.447   3.173  22.495  0.00  0.00    -0.310 N 
ATOM     15  H   UNL     1       3.165   2.228  22.260  0.00  0.00    +0.149 HD
ATOM     16  C   UNL     1       2.821   4.226  21.881  0.00  0.00    +0.216 C 
ATOM     17  O   UNL     1       3.145   5.398  22.042  0.00  0.00    -0.276 OA
BRANCH  16  18
ATOM     18  C   UNL     1       1.661   3.843  21.031  0.00  0.00    +0.075 C 
ATOM     19  C   UNL     1       1.551   2.450  20.456  0.00  0.00    +0.013 C 
ATOM     20  C   UNL     1       1.874   3.602  19.552  0.00  0.00    +0.013 C 
ENDBRANCH  16  18
ENDBRANCH   4  14
BRANCH   1  21
ATOM     21  C   UNL     1       8.640   0.706  23.354  0.00  0.00    +0.163 C 
BRANCH  21  22
ATOM     22  N   UNL     1       8.445  -0.567  22.647  0.00  0.00    -0.288 N 
ATOM     23  H   UNL     1       8.502  -0.530  21.637  0.00  0.00    +0.151 HD
ATOM     24  C   UNL     1       7.688  -1.556  23.218  0.00  0.00    +0.300 C 
ATOM     25  N   UNL     1       7.524  -2.635  22.390  0.00  0.00    -0.297 N 
ATOM     26  H   UNL     1       8.234  -2.749  21.682  0.00  0.00    +0.151 HD
ATOM     27  O   UNL     1       7.210  -1.483  24.342  0.00  0.00    -0.253 OA
BRANCH  25  28
ATOM     28  C   UNL     1       6.863  -3.830  22.879  0.00  0.00    +0.074 C 
ATOM     29  C   UNL     1       7.372  -5.113  22.212  0.00  0.00    +0.022 C 
ATOM     30  C   UNL     1       6.171  -6.059  22.144  0.00  0.00    +0.002 C 
ATOM     31  C   UNL     1       5.000  -5.304  22.763  0.00  0.00    +0.002 C 
ATOM     32  C   UNL     1       5.366  -3.837  22.592  0.00  0.00    +0.022 C 
ENDBRANCH  25  28
ENDBRANCH  21  22
BRANCH  21  33
ATOM     33  C   UNL     1      10.145   1.001  23.567  0.00  0.00    +0.012 C 
ATOM     34  C   UNL     1      10.709   0.309  24.803  0.00  0.00    +0.009 C 
ATOM     35  C   UNL     1      10.504   2.487  23.612  0.00  0.00    +0.009 C 
ENDBRANCH  21  33
ENDBRANCH   1  21
TORSDOF 8
ENDMDL
MODEL 4
REMARK VINA RESULT:      -6.1      3.237      4.406
REMARK  Name = 
REMARK  10 active torsions:
REMARK  status: ('A' for Active; 'I' for Inactive)
REMARK    1  A    between atoms: C_2  and  N_3
REMARK    2  A    between atoms: C_2  and  C_12
REMARK    3  A    between atoms: C_2  and  C_15
REMARK    4  A    between atoms: N_6  and  C_7
REMARK    5  A    between atoms: C_12  and  C_13
REMARK    6  A    between atoms: C_12  and  C_14
REMARK    7  A    between atoms: C_20  and  N_22
REMARK    8  A    between atoms: C_23  and  C_25
REMARK    9  A    between atoms: C_28  and  C_30
REMARK   10  A    between atoms: C_30  and  C_34
REMARK                            x       y       z     vdW  Elec       q    Type
REMARK                         _______ _______ _______ _____ _____    ______ ____
ROOT
ATOM      1  C   UNL     1       8.092  -1.436  25.381  0.00  0.00    +0.237 C 
ATOM      2  N   UNL     1       6.997  -2.265  25.144  0.00  0.00    -0.294 N 
ATOM      3  C   UNL     1       6.967  -3.699  25.496  0.00  0.00    +0.109 C 
ATOM      4  C   UNL     1       5.460  -4.052  25.638  0.00  0.00    +0.096 C 
ATOM      5  C   UNL     1       4.685  -2.787  25.271  0.00  0.00    +0.043 C 
ATOM      6  C   UNL     1       5.694  -1.807  24.714  0.00  0.00    +0.110 C 
ATOM      7  O   UNL     1       9.076  -1.821  26.020  0.00  0.00    -0.274 OA
ENDROOT
BRANCH   3   8
ATOM      8  C   UNL     1       7.630  -4.521  24.355  0.00  0.00    +0.046 C 
ATOM      9  C   UNL     1       7.842  -3.716  23.008  0.00  0.00    +0.016 C 
ATOM     10  C   UNL     1       7.459  -5.014  22.262  0.00  0.00    +0.002 C 
ATOM     11  C   UNL     1       6.629  -5.383  23.500  0.00  0.00    +0.016 C 
BRANCH   8  12
ATOM     12  C   UNL     1       8.966  -5.277  24.802  0.00  0.00    +0.232 C 
ATOM     13  O   UNL     1      10.118  -4.851  24.864  0.00  0.00    -0.300 OA
ENDBRANCH   8  12
ENDBRANCH   3   8
BRANCH   4  14
ATOM     14  N   UNL     1       5.087  -4.487  26.981  0.00  0.00    -0.310 N 
ATOM     15  H   UNL     1       4.755  -3.802  27.650  0.00  0.00    +0.149 HD
ATOM     16  C   UNL     1       5.209  -5.794  27.374  0.00  0.00    +0.216 C 
ATOM     17  O   UNL     1       5.673  -6.678  26.662  0.00  0.00    -0.276 OA
BRANCH  16  18
ATOM     18  C   UNL     1       4.678  -6.081  28.735  0.00  0.00    +0.075 C 
ATOM     19  C   UNL     1       4.622  -4.998  29.786  0.00  0.00    +0.013 C 
ATOM     20  C   UNL     1       5.629  -6.103  29.912  0.00  0.00    +0.013 C 
ENDBRANCH  16  18
ENDBRANCH   4  14
BRANCH   1  21
ATOM     21  C   UNL     1       8.049   0.023  24.819  0.00  0.00    +0.163 C 
BRANCH  21  22
ATOM     22  N   UNL     1       8.178   0.960  25.943  0.00  0.00    -0.288 N 
ATOM     23  H   UNL     1       9.008   0.861  26.514  0.00  0.00    +0.151 HD
ATOM     24  C   UNL     1       7.055   1.494  26.519  0.00  0.00    +0.300 C 
ATOM     25  N   UNL     1       7.345   2.267  27.612  0.00  0.00    -0.297 N 
ATOM     26  H   UNL     1       8.278   2.650  27.638  0.00  0.00    +0.151 HD
ATOM     27  O   UNL     1       5.921   1.301  26.104  0.00  0.00    -0.253 OA
BRANCH  25  28
ATOM     28  C   UNL     1       6.291   3.020  28.267  0.00  0.00    +0.074 C 
ATOM     29  C   UNL     1       6.796   4.308  28.928  0.00  0.00    +0.022 C 
ATOM     30  C   UNL     1       5.919   4.519  30.165  0.00  0.00    +0.002 C 
ATOM     31  C   UNL     1       4.939   3.351  30.196  0.00  0.00    +0.002 C 
ATOM     32  C   UNL     1       5.640   2.252  29.411  0.00  0.00    +0.022 C 
ENDBRANCH  25  28
ENDBRANCH  21  22
BRANCH  21  33
ATOM     33  C   UNL     1       9.058   0.358  23.694  0.00  0.00    +0.012 C 
ATOM     34  C   UNL     1      10.313   1.046  24.218  0.00  0.00    +0.009 C 
ATOM     35  C   UNL     1       8.479   1.175  22.538  0.00  0.00    +0.009 C 
ENDBRANCH  21  33
ENDBRANCH   1  21
TORSDOF 8
ENDMDL
MODEL 5
REMARK VINA RESULT:      -6.1      2.786      8.984
REMARK  Name = 
REMARK  10 active torsions:
REMARK  status: ('A' for Active; 'I' for Inactive)
REMARK    1  A    between atoms: C_2  and  N_3
REMARK    2  A    between atoms: C_2  and  C_12
REMARK    3  A    between atoms: C_2  and  C_15
REMARK    4  A    between atoms: N_6  and  C_7
REMARK    5  A    between atoms: C_12  and  C_13
REMARK    6  A    between atoms: C_12  and  C_14
REMARK    7  A    between atoms: C_20  and  N_22
REMARK    8  A    between atoms: C_23  and  C_25
REMARK    9  A    between atoms: C_28  and  C_30
REMARK   10  A    between atoms: C_30  and  C_34
REMARK                            x       y       z     vdW  Elec       q    Type
REMARK                         _______ _______ _______ _____ _____    ______ ____
ROOT
ATOM      1  C   UNL     1       7.380   2.036  23.304  0.00  0.00    +0.237 C 
ATOM      2  N   UNL     1       7.387   2.956  24.352  0.00  0.00    -0.294 N 
ATOM      3  C   UNL     1       6.802   4.308  24.255  0.00  0.00    +0.109 C 
ATOM      4  C   UNL     1       6.483   4.718  25.720  0.00  0.00    +0.096 C 
ATOM      5  C   UNL     1       6.992   3.582  26.607  0.00  0.00    +0.043 C 
ATOM      6  C   UNL     1       7.783   2.655  25.710  0.00  0.00    +0.110 C 
ATOM      7  O   UNL     1       6.766   2.248  22.254  0.00  0.00    -0.274 OA
ENDROOT
BRANCH   3   8
ATOM      8  C   UNL     1       7.840   5.272  23.616  0.00  0.00    +0.046 C 
ATOM      9  C   UNL     1       9.348   4.829  23.806  0.00  0.00    +0.016 C 
ATOM     10  C   UNL     1       9.684   6.324  24.003  0.00  0.00    +0.002 C 
ATOM     11  C   UNL     1       8.248   6.492  24.523  0.00  0.00    +0.016 C 
BRANCH   8  12
ATOM     12  C   UNL     1       7.524   5.635  22.091  0.00  0.00    +0.232 C 
ATOM     13  O   UNL     1       7.031   6.658  21.620  0.00  0.00    -0.300 OA
ENDBRANCH   8  12
ENDBRANCH   3   8
BRANCH   4  14
ATOM     14  N   UNL     1       5.061   4.939  25.968  0.00  0.00    -0.310 N 
ATOM     15  H   UNL     1       4.397   4.216  25.719  0.00  0.00    +0.149 HD
ATOM     16  C   UNL     1       4.596   6.116  26.494  0.00  0.00    +0.216 C 
ATOM     17  O   UNL     1       5.314   7.075  26.754  0.00  0.00    -0.276 OA
BRANCH  16  18
ATOM     18  C   UNL     1       3.136   6.127  26.785  0.00  0.00    +0.075 C 
ATOM     19  C   UNL     1       2.185   5.258  25.996  0.00  0.00    +0.013 C 
ATOM     20  C   UNL     1       2.185   6.743  25.782  0.00  0.00    +0.013 C 
ENDBRANCH  16  18
ENDBRANCH   4  14
BRANCH   1  21
ATOM     21  C   UNL     1       8.170   0.699  23.489  0.00  0.00    +0.163 C 
BRANCH  21  22
ATOM     22  N   UNL     1       7.460  -0.367  22.769  0.00  0.00    -0.288 N 
ATOM     23  H   UNL     1       6.769  -0.066  22.094  0.00  0.00    +0.151 HD
ATOM     24  C   UNL     1       7.303  -1.597  23.353  0.00  0.00    +0.300 C 
ATOM     25  N   UNL     1       6.536  -2.442  22.595  0.00  0.00    -0.297 N 
ATOM     26  H   UNL     1       6.505  -2.232  21.609  0.00  0.00    +0.151 HD
ATOM     27  O   UNL     1       7.793  -1.905  24.431  0.00  0.00    -0.253 OA
BRANCH  25  28
ATOM     28  C   UNL     1       6.376  -3.828  22.993  0.00  0.00    +0.074 C 
ATOM     29  C   UNL     1       7.120  -4.806  22.076  0.00  0.00    +0.022 C 
ATOM     30  C   UNL     1       6.275  -6.082  22.046  0.00  0.00    +0.002 C 
ATOM     31  C   UNL     1       5.066  -5.812  22.934  0.00  0.00    +0.002 C 
ATOM     32  C   UNL     1       4.928  -4.297  22.931  0.00  0.00    +0.022 C 
ENDBRANCH  25  28
ENDBRANCH  21  22
BRANCH  21  33
ATOM     33  C   UNL     1       9.670   0.727  23.107  0.00  0.00    +0.012 C 
ATOM     34  C   UNL     1      10.578   0.943  24.312  0.00  0.00    +0.009 C 
ATOM     35  C   UNL     1      10.033   1.734  22.014  0.00  0.00    +0.009 C 
ENDBRANCH  21  33
ENDBRANCH   1  21
TORSDOF 8
ENDMDL
MODEL 6
REMARK VINA RESULT:      -6.0      2.742      3.802
REMARK  Name = 
REMARK  10 active torsions:
REMARK  status: ('A' for Active; 'I' for Inactive)
REMARK    1  A    between atoms: C_2  and  N_3
REMARK    2  A    between atoms: C_2  and  C_12
REMARK    3  A    between atoms: C_2  and  C_15
REMARK    4  A    between atoms: N_6  and  C_7
REMARK    5  A    between atoms: C_12  and  C_13
REMARK    6  A    between atoms: C_12  and  C_14
REMARK    7  A    between atoms: C_20  and  N_22
REMARK    8  A    between atoms: C_23  and  C_25
REMARK    9  A    between atoms: C_28  and  C_30
REMARK   10  A    between atoms: C_30  and  C_34
REMARK                            x       y       z     vdW  Elec       q    Type
REMARK                         _______ _______ _______ _____ _____    ______ ____
ROOT
ATOM      1  C   UNL     1       8.337  -1.776  24.051  0.00  0.00    +0.237 C 
ATOM      2  N   UNL     1       7.053  -2.285  24.241  0.00  0.00    -0.294 N 
ATOM      3  C   UNL     1       6.768  -3.714  24.476  0.00  0.00    +0.109 C 
ATOM      4  C   UNL     1       5.399  -3.740  25.213  0.00  0.00    +0.096 C 
ATOM      5  C   UNL     1       4.923  -2.289  25.288  0.00  0.00    +0.043 C 
ATOM      6  C   UNL     1       5.866  -1.479  24.426  0.00  0.00    +0.110 C 
ATOM      7  O   UNL     1       9.344  -2.476  24.192  0.00  0.00    -0.274 OA
ENDROOT
BRANCH   3   8
ATOM      8  C   UNL     1       6.683  -4.453  23.111  0.00  0.00    +0.046 C 
ATOM      9  C   UNL     1       5.671  -5.670  23.087  0.00  0.00    +0.016 C 
ATOM     10  C   UNL     1       6.701  -6.410  22.205  0.00  0.00    +0.002 C 
ATOM     11  C   UNL     1       7.779  -5.561  22.895  0.00  0.00    +0.016 C 
BRANCH   8  12
ATOM     12  C   UNL     1       6.453  -3.475  21.867  0.00  0.00    +0.232 C 
ATOM     13  O   UNL     1       5.407  -3.181  21.290  0.00  0.00    -0.300 OA
ENDBRANCH   8  12
ENDBRANCH   3   8
BRANCH   4  14
ATOM     14  N   UNL     1       5.470  -4.307  26.556  0.00  0.00    -0.310 N 
ATOM     15  H   UNL     1       6.337  -4.240  27.077  0.00  0.00    +0.149 HD
ATOM     16  C   UNL     1       4.407  -4.962  27.119  0.00  0.00    +0.216 C 
ATOM     17  O   UNL     1       3.345  -5.161  26.538  0.00  0.00    -0.276 OA
BRANCH  16  18
ATOM     18  C   UNL     1       4.615  -5.376  28.534  0.00  0.00    +0.075 C 
ATOM     19  C   UNL     1       5.829  -6.183  28.931  0.00  0.00    +0.013 C 
ATOM     20  C   UNL     1       4.479  -6.837  28.906  0.00  0.00    +0.013 C 
ENDBRANCH  16  18
ENDBRANCH   4  14
BRANCH   1  21
ATOM     21  C   UNL     1       8.484  -0.270  23.657  0.00  0.00    +0.163 C 
BRANCH  21  22
ATOM     22  N   UNL     1       8.571   0.529  24.887  0.00  0.00    -0.288 N 
ATOM     23  H   UNL     1       9.001   0.076  25.683  0.00  0.00    +0.151 HD
ATOM     24  C   UNL     1       7.658   1.524  25.122  0.00  0.00    +0.300 C 
ATOM     25  N   UNL     1       7.819   2.103  26.352  0.00  0.00    -0.297 N 
ATOM     26  H   UNL     1       8.742   2.022  26.751  0.00  0.00    +0.151 HD
ATOM     27  O   UNL     1       6.794   1.856  24.321  0.00  0.00    -0.253 OA
BRANCH  25  28
ATOM     28  C   UNL     1       7.027   3.262  26.716  0.00  0.00    +0.074 C 
ATOM     29  C   UNL     1       7.668   4.587  26.287  0.00  0.00    +0.022 C 
ATOM     30  C   UNL     1       7.271   5.612  27.352  0.00  0.00    +0.002 C 
ATOM     31  C   UNL     1       6.421   4.861  28.370  0.00  0.00    +0.002 C 
ATOM     32  C   UNL     1       6.854   3.411  28.223  0.00  0.00    +0.022 C 
ENDBRANCH  25  28
ENDBRANCH  21  22
BRANCH  21  33
ATOM     33  C   UNL     1       9.635   0.078  22.683  0.00  0.00    +0.012 C 
ATOM     34  C   UNL     1      10.062   1.539  22.777  0.00  0.00    +0.009 C 
ATOM     35  C   UNL     1       9.364  -0.276  21.220  0.00  0.00    +0.009 C 
ENDBRANCH  21  33
ENDBRANCH   1  21
TORSDOF 8
ENDMDL
MODEL 7
REMARK VINA RESULT:      -5.9      2.895      8.261
REMARK  Name = 
REMARK  10 active torsions:
REMARK  status: ('A' for Active; 'I' for Inactive)
REMARK    1  A    between atoms: C_2  and  N_3
REMARK    2  A    between atoms: C_2  and  C_12
REMARK    3  A    between atoms: C_2  and  C_15
REMARK    4  A    between atoms: N_6  and  C_7
REMARK    5  A    between atoms: C_12  and  C_13
REMARK    6  A    between atoms: C_12  and  C_14
REMARK    7  A    between atoms: C_20  and  N_22
REMARK    8  A    between atoms: C_23  and  C_25
REMARK    9  A    between atoms: C_28  and  C_30
REMARK   10  A    between atoms: C_30  and  C_34
REMARK                            x       y       z     vdW  Elec       q    Type
REMARK                         _______ _______ _______ _____ _____    ______ ____
ROOT
ATOM      1  C   UNL     1       6.914  -2.284  23.461  0.00  0.00    +0.237 C 
ATOM      2  N   UNL     1       7.832  -1.546  24.207  0.00  0.00    -0.294 N 
ATOM      3  C   UNL     1       8.030  -0.091  24.051  0.00  0.00    +0.109 C 
ATOM      4  C   UNL     1       8.626   0.385  25.406  0.00  0.00    +0.096 C 
ATOM      5  C   UNL     1       8.820  -0.870  26.257  0.00  0.00    +0.043 C 
ATOM      6  C   UNL     1       8.562  -2.053  25.349  0.00  0.00    +0.110 C 
ATOM      7  O   UNL     1       6.109  -1.743  22.697  0.00  0.00    -0.274 OA
ENDROOT
BRANCH   3   8
ATOM      8  C   UNL     1       9.018   0.170  22.880  0.00  0.00    +0.046 C 
ATOM      9  C   UNL     1      10.256   1.080  23.260  0.00  0.00    +0.016 C 
ATOM     10  C   UNL     1      10.114   1.724  21.863  0.00  0.00    +0.002 C 
ATOM     11  C   UNL     1       8.622   1.369  21.942  0.00  0.00    +0.016 C 
BRANCH   8  12
ATOM     12  C   UNL     1       9.480  -1.161  22.123  0.00  0.00    +0.232 C 
ATOM     13  O   UNL     1      10.536  -1.783  22.216  0.00  0.00    -0.300 OA
ENDBRANCH   8  12
ENDBRANCH   3   8
BRANCH   4  14
ATOM     14  N   UNL     1       7.777   1.337  26.115  0.00  0.00    -0.310 N 
ATOM     15  H   UNL     1       7.110   0.994  26.796  0.00  0.00    +0.149 HD
ATOM     16  C   UNL     1       7.831   2.682  25.856  0.00  0.00    +0.216 C 
ATOM     17  O   UNL     1       8.548   3.181  24.996  0.00  0.00    -0.276 OA
BRANCH  16  18
ATOM     18  C   UNL     1       6.980   3.516  26.748  0.00  0.00    +0.075 C 
ATOM     19  C   UNL     1       5.793   2.916  27.464  0.00  0.00    +0.013 C 
ATOM     20  C   UNL     1       5.569   3.858  26.319  0.00  0.00    +0.013 C 
ENDBRANCH  16  18
ENDBRANCH   4  14
BRANCH   1  21
ATOM     21  C   UNL     1       6.916  -3.840  23.616  0.00  0.00    +0.163 C 
BRANCH  21  22
ATOM     22  N   UNL     1       5.642  -4.250  24.222  0.00  0.00    -0.288 N 
ATOM     23  H   UNL     1       4.805  -3.862  23.807  0.00  0.00    +0.151 HD
ATOM     24  C   UNL     1       5.601  -4.619  25.541  0.00  0.00    +0.300 C 
ATOM     25  N   UNL     1       4.328  -4.877  25.974  0.00  0.00    -0.297 N 
ATOM     26  H   UNL     1       3.669  -5.132  25.254  0.00  0.00    +0.151 HD
ATOM     27  O   UNL     1       6.593  -4.708  26.253  0.00  0.00    -0.253 OA
BRANCH  25  28
ATOM     28  C   UNL     1       4.108  -5.409  27.305  0.00  0.00    +0.074 C 
ATOM     29  C   UNL     1       4.597  -4.471  28.415  0.00  0.00    +0.022 C 
ATOM     30  C   UNL     1       5.076  -5.376  29.553  0.00  0.00    +0.002 C 
ATOM     31  C   UNL     1       4.862  -6.808  29.075  0.00  0.00    +0.002 C 
ATOM     32  C   UNL     1       4.872  -6.704  27.558  0.00  0.00    +0.022 C 
ENDBRANCH  25  28
ENDBRANCH  21  22
BRANCH  21  33
ATOM     33  C   UNL     1       7.216  -4.660  22.337  0.00  0.00    +0.012 C 
ATOM     34  C   UNL     1       6.019  -4.736  21.396  0.00  0.00    +0.009 C 
ATOM     35  C   UNL     1       7.749  -6.070  22.592  0.00  0.00    +0.009 C 
ENDBRANCH  21  33
ENDBRANCH   1  21
TORSDOF 8
ENDMDL
MODEL 8
REMARK VINA RESULT:      -5.8      3.592      6.526
REMARK  Name = 
REMARK  10 active torsions:
REMARK  status: ('A' for Active; 'I' for Inactive)
REMARK    1  A    between atoms: C_2  and  N_3
REMARK    2  A    between atoms: C_2  and  C_12
REMARK    3  A    between atoms: C_2  and  C_15
REMARK    4  A    between atoms: N_6  and  C_7
REMARK    5  A    between atoms: C_12  and  C_13
REMARK    6  A    between atoms: C_12  and  C_14
REMARK    7  A    between atoms: C_20  and  N_22
REMARK    8  A    between atoms: C_23  and  C_25
REMARK    9  A    between atoms: C_28  and  C_30
REMARK   10  A    between atoms: C_30  and  C_34
REMARK                            x       y       z     vdW  Elec       q    Type
REMARK                         _______ _______ _______ _____ _____    ______ ____
ROOT
ATOM      1  C   UNL     1       5.260  -2.992  25.784  0.00  0.00    +0.237 C 
ATOM      2  N   UNL     1       6.585  -2.947  25.353  0.00  0.00    -0.294 N 
ATOM      3  C   UNL     1       6.989  -3.093  23.940  0.00  0.00    +0.109 C 
ATOM      4  C   UNL     1       8.374  -2.394  23.839  0.00  0.00    +0.096 C 
ATOM      5  C   UNL     1       8.735  -1.945  25.255  0.00  0.00    +0.043 C 
ATOM      6  C   UNL     1       7.708  -2.563  26.179  0.00  0.00    +0.110 C 
ATOM      7  O   UNL     1       4.316  -3.034  24.990  0.00  0.00    -0.274 OA
ENDROOT
BRANCH   3   8
ATOM      8  C   UNL     1       7.097  -4.605  23.591  0.00  0.00    +0.046 C 
ATOM      9  C   UNL     1       7.393  -4.904  22.065  0.00  0.00    +0.016 C 
ATOM     10  C   UNL     1       6.427  -6.103  22.192  0.00  0.00    +0.002 C 
ATOM     11  C   UNL     1       5.721  -5.311  23.302  0.00  0.00    +0.016 C 
BRANCH   8  12
ATOM     12  C   UNL     1       8.088  -5.414  24.550  0.00  0.00    +0.232 C 
ATOM     13  O   UNL     1       9.284  -5.660  24.405  0.00  0.00    -0.300 OA
ENDBRANCH   8  12
ENDBRANCH   3   8
BRANCH   4  14
ATOM     14  N   UNL     1       8.383  -1.245  22.939  0.00  0.00    -0.310 N 
ATOM     15  H   UNL     1       7.556  -0.663  22.870  0.00  0.00    +0.149 HD
ATOM     16  C   UNL     1       9.468  -0.954  22.154  0.00  0.00    +0.216 C 
ATOM     17  O   UNL     1      10.481  -1.643  22.110  0.00  0.00    -0.276 OA
BRANCH  16  18
ATOM     18  C   UNL     1       9.348   0.314  21.383  0.00  0.00    +0.075 C 
ATOM     19  C   UNL     1       9.929   1.601  21.919  0.00  0.00    +0.013 C 
ATOM     20  C   UNL     1       8.442   1.411  21.897  0.00  0.00    +0.013 C 
ENDBRANCH  16  18
ENDBRANCH   4  14
BRANCH   1  21
ATOM     21  C   UNL     1       4.983  -2.979  27.323  0.00  0.00    +0.163 C 
BRANCH  21  22
ATOM     22  N   UNL     1       4.034  -1.897  27.618  0.00  0.00    -0.288 N 
ATOM     23  H   UNL     1       3.106  -1.999  27.228  0.00  0.00    +0.151 HD
ATOM     24  C   UNL     1       4.498  -0.632  27.868  0.00  0.00    +0.300 C 
ATOM     25  N   UNL     1       3.484   0.276  28.026  0.00  0.00    -0.297 N 
ATOM     26  H   UNL     1       2.597  -0.111  28.311  0.00  0.00    +0.151 HD
ATOM     27  O   UNL     1       5.685  -0.345  27.941  0.00  0.00    -0.253 OA
BRANCH  25  28
ATOM     28  C   UNL     1       3.786   1.636  28.429  0.00  0.00    +0.074 C 
ATOM     29  C   UNL     1       3.556   1.885  29.924  0.00  0.00    +0.022 C 
ATOM     30  C   UNL     1       3.099   3.341  30.044  0.00  0.00    +0.002 C 
ATOM     31  C   UNL     1       3.067   3.895  28.625  0.00  0.00    +0.002 C 
ATOM     32  C   UNL     1       2.894   2.667  27.745  0.00  0.00    +0.022 C 
ENDBRANCH  25  28
ENDBRANCH  21  22
BRANCH  21  33
ATOM     33  C   UNL     1       4.519  -4.316  27.951  0.00  0.00    +0.012 C 
ATOM     34  C   UNL     1       4.563  -4.294  29.475  0.00  0.00    +0.009 C 
ATOM     35  C   UNL     1       5.259  -5.553  27.442  0.00  0.00    +0.009 C 
ENDBRANCH  21  33
ENDBRANCH   1  21
TORSDOF 8
ENDMDL
MODEL 9
REMARK VINA RESULT:      -5.7      2.002      2.482
REMARK  Name = 
REMARK  10 active torsions:
REMARK  status: ('A' for Active; 'I' for Inactive)
REMARK    1  A    between atoms: C_2  and  N_3
REMARK    2  A    between atoms: C_2  and  C_12
REMARK    3  A    between atoms: C_2  and  C_15
REMARK    4  A    between atoms: N_6  and  C_7
REMARK    5  A    between atoms: C_12  and  C_13
REMARK    6  A    between atoms: C_12  and  C_14
REMARK    7  A    between atoms: C_20  and  N_22
REMARK    8  A    between atoms: C_23  and  C_25
REMARK    9  A    between atoms: C_28  and  C_30
REMARK   10  A    between atoms: C_30  and  C_34
REMARK                            x       y       z     vdW  Elec       q    Type
REMARK                         _______ _______ _______ _____ _____    ______ ____
ROOT
ATOM      1  C   UNL     1       7.386  -0.515  25.097  0.00  0.00    +0.237 C 
ATOM      2  N   UNL     1       7.160  -1.606  24.260  0.00  0.00    -0.294 N 
ATOM      3  C   UNL     1       7.066  -2.999  24.741  0.00  0.00    +0.109 C 
ATOM      4  C   UNL     1       6.238  -3.748  23.659  0.00  0.00    +0.096 C 
ATOM      5  C   UNL     1       5.965  -2.735  22.548  0.00  0.00    +0.043 C 
ATOM      6  C   UNL     1       6.798  -1.512  22.862  0.00  0.00    +0.110 C 
ATOM      7  O   UNL     1       7.399  -0.627  26.326  0.00  0.00    -0.274 OA
ENDROOT
BRANCH   3   8
ATOM      8  C   UNL     1       8.497  -3.596  24.865  0.00  0.00    +0.046 C 
ATOM      9  C   UNL     1       8.615  -5.109  24.415  0.00  0.00    +0.016 C 
ATOM     10  C   UNL     1       9.595  -5.304  25.593  0.00  0.00    +0.002 C 
ATOM     11  C   UNL     1       8.852  -4.155  26.293  0.00  0.00    +0.016 C 
BRANCH   8  12
ATOM     12  C   UNL     1       9.629  -2.693  24.188  0.00  0.00    +0.232 C 
ATOM     13  O   UNL     1      10.095  -2.750  23.052  0.00  0.00    -0.300 OA
ENDBRANCH   8  12
ENDBRANCH   3   8
BRANCH   4  14
ATOM     14  N   UNL     1       4.977  -4.285  24.159  0.00  0.00    -0.310 N 
ATOM     15  H   UNL     1       4.730  -5.246  23.950  0.00  0.00    +0.149 HD
ATOM     16  C   UNL     1       4.098  -3.514  24.873  0.00  0.00    +0.216 C 
ATOM     17  O   UNL     1       4.273  -2.324  25.108  0.00  0.00    -0.276 OA
BRANCH  16  18
ATOM     18  C   UNL     1       2.917  -4.252  25.401  0.00  0.00    +0.075 C 
ATOM     19  C   UNL     1       2.581  -5.635  24.893  0.00  0.00    +0.013 C 
ATOM     20  C   UNL     1       1.719  -4.472  24.503  0.00  0.00    +0.013 C 
ENDBRANCH  16  18
ENDBRANCH   4  14
BRANCH   1  21
ATOM     21  C   UNL     1       7.617   0.886  24.440  0.00  0.00    +0.163 C 
BRANCH  21  22
ATOM     22  N   UNL     1       6.370   1.656  24.531  0.00  0.00    -0.288 N 
ATOM     23  H   UNL     1       5.782   1.462  25.331  0.00  0.00    +0.151 HD
ATOM     24  C   UNL     1       5.775   2.129  23.390  0.00  0.00    +0.300 C 
ATOM     25  N   UNL     1       4.574   2.739  23.639  0.00  0.00    -0.297 N 
ATOM     26  H   UNL     1       4.455   3.094  24.576  0.00  0.00    +0.151 HD
ATOM     27  O   UNL     1       6.263   2.019  22.273  0.00  0.00    -0.253 OA
BRANCH  25  28
ATOM     28  C   UNL     1       3.869   3.416  22.568  0.00  0.00    +0.074 C 
ATOM     29  C   UNL     1       4.061   4.936  22.589  0.00  0.00    +0.022 C 
ATOM     30  C   UNL     1       2.754   5.534  22.062  0.00  0.00    +0.002 C 
ATOM     31  C   UNL     1       1.839   4.354  21.757  0.00  0.00    +0.002 C 
ATOM     32  C   UNL     1       2.357   3.237  22.649  0.00  0.00    +0.022 C 
ENDBRANCH  25  28
ENDBRANCH  21  22
BRANCH  21  33
ATOM     33  C   UNL     1       8.819   1.705  24.970  0.00  0.00    +0.012 C 
ATOM     34  C   UNL     1       8.716   3.187  24.627  0.00  0.00    +0.009 C 
ATOM     35  C   UNL     1      10.190   1.181  24.538  0.00  0.00    +0.009 C 
ENDBRANCH  21  33
ENDBRANCH   1  21
TORSDOF 8
ENDMDL
