MODEL 1
REMARK VINA RESULT:      -7.7      0.000      0.000
REMARK  Name = 
REMARK  9 active torsions:
REMARK  status: ('A' for Active; 'I' for Inactive)
REMARK    1  A    between atoms: C_1  and  O_2
REMARK    2  A    between atoms: O_2  and  C_3
REMARK    3  A    between atoms: C_8  and  C_9
REMARK    4  A    between atoms: C_9  and  C_10
REMARK    5  A    between atoms: C_9  and  C_11
REMARK    6  A    between atoms: C_9  and  O_12
REMARK    7  A    between atoms: N_23  and  C_24
REMARK    8  A    between atoms: C_24  and  C_25
REMARK    9  A    between atoms: C_28  and  O_29
REMARK                            x       y       z     vdW  Elec       q    Type
REMARK                         _______ _______ _______ _____ _____    ______ ____
ROOT
ATOM      1  C   UNL     1       9.514  -0.488  23.544  0.00  0.00    +0.130 C 
ATOM      2  C   UNL     1       9.174  -1.281  25.151  0.00  0.00    +0.221 C 
ATOM      3  C   UNL     1       7.793  -2.088  25.184  0.00  0.00    +0.051 C 
ATOM      4  C   UNL     1       7.697  -3.479  25.921  0.00  0.00    +0.031 C 
ATOM      5  C   UNL     1       7.358  -4.621  24.972  0.00  0.00    +0.086 C 
ATOM      6  N   UNL     1       6.173  -4.267  24.197  0.00  0.00    -0.298 NA
ATOM      7  C   UNL     1       5.772  -2.847  23.940  0.00  0.00    +0.072 C 
ATOM      8  C   UNL     1       4.887  -2.267  25.107  0.00  0.00    +0.055 C 
ATOM      9  C   UNL     1       5.599  -1.326  26.103  0.00  0.00    -0.038 A 
ATOM     10  C   UNL     1       5.002  -0.506  27.046  0.00  0.00    +0.008 A 
ATOM     11  C   UNL     1       5.813   0.263  27.920  0.00  0.00    +0.049 A 
ATOM     12  C   UNL     1       7.221   0.270  27.824  0.00  0.00    +0.159 A 
ATOM     13  C   UNL     1       7.814  -0.418  26.798  0.00  0.00    +0.166 A 
ATOM     14  C   UNL     1       6.995  -1.232  26.056  0.00  0.00    +0.012 A 
ATOM     15  C   UNL     1       6.976  -1.930  23.792  0.00  0.00    +0.018 C 
ATOM     16  C   UNL     1       6.812  -0.228  23.266  0.00  0.00    +0.023 C 
ATOM     17  C   UNL     1       8.014  -2.315  22.656  0.00  0.00    -0.019 C 
ATOM     18  O   UNL     1       9.126  -0.392  26.360  0.00  0.00    -0.481 OA
ATOM     19  C   UNL     1       8.313   0.654  23.423  0.00  0.00    +0.061 C 
ATOM     20  C   UNL     1       9.156  -1.653  22.401  0.00  0.00    +0.008 C 
ENDROOT
BRANCH  19  21
ATOM     21  C   UNL     1       8.507   2.069  22.542  0.00  0.00    +0.066 C 
ATOM     22  C   UNL     1       8.939   3.377  23.289  0.00  0.00    +0.041 C 
ATOM     23  C   UNL     1       7.176   2.458  21.860  0.00  0.00    +0.041 C 
BRANCH  21  24
ATOM     24  O   UNL     1       9.457   1.863  21.485  0.00  0.00    -0.389 OA
ATOM     25  H   UNL     1      10.297   2.292  21.756  0.00  0.00    +0.210 HD
ENDBRANCH  21  24
ENDBRANCH  19  21
BRANCH   1  27
ATOM     26  C   UNL     1      11.333   0.889  24.301  0.00  0.00    +0.195 C 
ATOM     27  O   UNL     1      10.868  -0.118  23.367  0.00  0.00    -0.368 OA
ENDBRANCH   1  27
BRANCH  12  28
ATOM     28  O   UNL     1       7.943   0.922  28.777  0.00  0.00    -0.503 OA
ATOM     29  H   UNL     1       8.849   0.562  28.732  0.00  0.00    +0.292 HD
ENDBRANCH  12  28
BRANCH   6  30
ATOM     30  C   UNL     1       5.523  -5.335  23.456  0.00  0.00    +0.088 C 
BRANCH  30  31
ATOM     31  C   UNL     1       6.418  -6.017  22.460  0.00  0.00    +0.003 C 
ATOM     32  C   UNL     1       7.216  -5.189  21.485  0.00  0.00    +0.005 C 
ATOM     33  C   UNL     1       6.068  -6.017  20.987  0.00  0.00    +0.005 C 
ENDBRANCH  30  31
ENDBRANCH   6  30
TORSDOF 6
ENDMDL
MODEL 2
REMARK VINA RESULT:      -7.5      2.714      5.175
REMARK  Name = 
REMARK  9 active torsions:
REMARK  status: ('A' for Active; 'I' for Inactive)
REMARK    1  A    between atoms: C_1  and  O_2
REMARK    2  A    between atoms: O_2  and  C_3
REMARK    3  A    between atoms: C_8  and  C_9
REMARK    4  A    between atoms: C_9  and  C_10
REMARK    5  A    between atoms: C_9  and  C_11
REMARK    6  A    between atoms: C_9  and  O_12
REMARK    7  A    between atoms: N_23  and  C_24
REMARK    8  A    between atoms: C_24  and  C_25
REMARK    9  A    between atoms: C_28  and  O_29
REMARK                            x       y       z     vdW  Elec       q    Type
REMARK                         _______ _______ _______ _____ _____    ______ ____
ROOT
ATOM      1  C   UNL     1       7.157  -0.622  23.717  0.00  0.00    +0.130 C 
ATOM      2  C   UNL     1       5.833  -1.828  23.372  0.00  0.00    +0.221 C 
ATOM      3  C   UNL     1       5.859  -3.099  24.343  0.00  0.00    +0.051 C 
ATOM      4  C   UNL     1       4.515  -3.707  24.902  0.00  0.00    +0.031 C 
ATOM      5  C   UNL     1       4.420  -3.618  26.419  0.00  0.00    +0.086 C 
ATOM      6  N   UNL     1       5.629  -4.183  27.011  0.00  0.00    -0.298 NA
ATOM      7  C   UNL     1       6.934  -4.243  26.278  0.00  0.00    +0.072 C 
ATOM      8  C   UNL     1       7.050  -5.541  25.393  0.00  0.00    +0.055 C 
ATOM      9  C   UNL     1       6.816  -5.358  23.877  0.00  0.00    -0.038 A 
ATOM     10  C   UNL     1       7.101  -6.272  22.876  0.00  0.00    +0.008 A 
ATOM     11  C   UNL     1       6.775  -5.959  21.530  0.00  0.00    +0.049 A 
ATOM     12  C   UNL     1       6.220  -4.716  21.163  0.00  0.00    +0.159 A 
ATOM     13  C   UNL     1       6.076  -3.749  22.124  0.00  0.00    +0.166 A 
ATOM     14  C   UNL     1       6.298  -4.142  23.421  0.00  0.00    +0.012 A 
ATOM     15  C   UNL     1       7.127  -3.052  25.354  0.00  0.00    +0.018 C 
ATOM     16  C   UNL     1       8.677  -2.742  24.518  0.00  0.00    +0.023 C 
ATOM     17  C   UNL     1       7.061  -1.620  26.035  0.00  0.00    -0.019 C 
ATOM     18  O   UNL     1       5.772  -2.406  21.988  0.00  0.00    -0.481 OA
ATOM     19  C   UNL     1       8.540  -1.460  23.337  0.00  0.00    +0.061 C 
ATOM     20  C   UNL     1       7.166  -0.451  25.378  0.00  0.00    +0.008 C 
ENDROOT
BRANCH  19  21
ATOM     21  C   UNL     1       9.942  -0.691  22.823  0.00  0.00    +0.066 C 
ATOM     22  C   UNL     1      10.697   0.255  23.817  0.00  0.00    +0.041 C 
ATOM     23  C   UNL     1       9.635   0.217  21.611  0.00  0.00    +0.041 C 
BRANCH  21  24
ATOM     24  O   UNL     1      10.896  -1.663  22.369  0.00  0.00    -0.389 OA
ATOM     25  H   UNL     1      11.316  -1.306  21.556  0.00  0.00    +0.210 HD
ENDBRANCH  21  24
ENDBRANCH  19  21
BRANCH   1  27
ATOM     26  C   UNL     1       7.109   1.753  24.087  0.00  0.00    +0.195 C 
ATOM     27  O   UNL     1       6.923   0.656  23.157  0.00  0.00    -0.368 OA
ENDBRANCH   1  27
BRANCH  12  28
ATOM     28  O   UNL     1       5.807  -4.532  19.878  0.00  0.00    -0.503 OA
ATOM     29  H   UNL     1       5.053  -3.914  19.916  0.00  0.00    +0.292 HD
ENDBRANCH  12  28
BRANCH   6  30
ATOM     30  C   UNL     1       5.600  -4.458  28.438  0.00  0.00    +0.088 C 
BRANCH  30  31
ATOM     31  C   UNL     1       5.672  -5.920  28.778  0.00  0.00    +0.003 C 
ATOM     32  C   UNL     1       4.880  -6.915  27.969  0.00  0.00    +0.005 C 
ATOM     33  C   UNL     1       4.481  -6.628  29.387  0.00  0.00    +0.005 C 
ENDBRANCH  30  31
ENDBRANCH   6  30
TORSDOF 6
ENDMDL
MODEL 3
REMARK VINA RESULT:      -7.5      2.362      6.215
REMARK  Name = 
REMARK  9 active torsions:
REMARK  status: ('A' for Active; 'I' for Inactive)
REMARK    1  A    between atoms: C_1  and  O_2
REMARK    2  A    between atoms: O_2  and  C_3
REMARK    3  A    between atoms: C_8  and  C_9
REMARK    4  A    between atoms: C_9  and  C_10
REMARK    5  A    between atoms: C_9  and  C_11
REMARK    6  A    between atoms: C_9  and  O_12
REMARK    7  A    between atoms: N_23  and  C_24
REMARK    8  A    between atoms: C_24  and  C_25
REMARK    9  A    between atoms: C_28  and  O_29
REMARK                            x       y       z     vdW  Elec       q    Type
REMARK                         _______ _______ _______ _____ _____    ______ ____
ROOT
ATOM      1  C   UNL     1       7.321  -4.013  25.121  0.00  0.00    +0.130 C 
ATOM      2  C   UNL     1       8.547  -2.665  25.196  0.00  0.00    +0.221 C 
ATOM      3  C   UNL     1       7.891  -1.205  25.161  0.00  0.00    +0.051 C 
ATOM      4  C   UNL     1       8.458  -0.051  26.074  0.00  0.00    +0.031 C 
ATOM      5  C   UNL     1       7.438   0.445  27.089  0.00  0.00    +0.086 C 
ATOM      6  N   UNL     1       6.195   0.779  26.399  0.00  0.00    -0.298 NA
ATOM      7  C   UNL     1       5.809   0.162  25.090  0.00  0.00    +0.072 C 
ATOM      8  C   UNL     1       6.418   0.950  23.869  0.00  0.00    +0.055 C 
ATOM      9  C   UNL     1       7.655   0.317  23.195  0.00  0.00    -0.038 A 
ATOM     10  C   UNL     1       8.212   0.672  21.977  0.00  0.00    +0.008 A 
ATOM     11  C   UNL     1       9.386   0.015  21.527  0.00  0.00    +0.049 A 
ATOM     12  C   UNL     1       9.981  -1.039  22.252  0.00  0.00    +0.159 A 
ATOM     13  C   UNL     1       9.353  -1.499  23.380  0.00  0.00    +0.166 A 
ATOM     14  C   UNL     1       8.289  -0.756  23.830  0.00  0.00    +0.012 A 
ATOM     15  C   UNL     1       6.282  -1.278  24.974  0.00  0.00    +0.018 C 
ATOM     16  C   UNL     1       5.781  -2.334  23.621  0.00  0.00    +0.023 C 
ATOM     17  C   UNL     1       5.778  -2.272  26.104  0.00  0.00    -0.019 C 
ATOM     18  O   UNL     1       9.602  -2.635  24.129  0.00  0.00    -0.481 OA
ATOM     19  C   UNL     1       6.663  -3.843  23.605  0.00  0.00    +0.061 C 
ATOM     20  C   UNL     1       6.121  -3.569  26.195  0.00  0.00    +0.008 C 
ENDROOT
BRANCH  19  21
ATOM     21  C   UNL     1       6.017  -5.141  22.758  0.00  0.00    +0.066 C 
ATOM     22  C   UNL     1       5.107  -6.166  23.516  0.00  0.00    +0.041 C 
ATOM     23  C   UNL     1       7.151  -6.014  22.177  0.00  0.00    +0.041 C 
BRANCH  21  24
ATOM     24  O   UNL     1       5.258  -4.665  21.636  0.00  0.00    -0.389 OA
ATOM     25  H   UNL     1       4.323  -4.587  21.924  0.00  0.00    +0.210 HD
ENDBRANCH  21  24
ENDBRANCH  19  21
BRANCH   1  27
ATOM     26  C   UNL     1       7.447  -5.637  26.889  0.00  0.00    +0.195 C 
ATOM     27  O   UNL     1       7.828  -5.267  25.540  0.00  0.00    -0.368 OA
ENDBRANCH   1  27
BRANCH  12  28
ATOM     28  O   UNL     1      11.179  -1.533  21.833  0.00  0.00    -0.503 OA
ATOM     29  H   UNL     1      11.644  -0.796  21.394  0.00  0.00    +0.292 HD
ENDBRANCH  12  28
BRANCH   6  30
ATOM     30  C   UNL     1       5.209   1.543  27.145  0.00  0.00    +0.088 C 
BRANCH  30  31
ATOM     31  C   UNL     1       4.938   1.008  28.523  0.00  0.00    +0.003 C 
ATOM     32  C   UNL     1       4.135  -0.257  28.687  0.00  0.00    +0.005 C 
ATOM     33  C   UNL     1       3.542   1.057  29.106  0.00  0.00    +0.005 C 
ENDBRANCH  30  31
ENDBRANCH   6  30
TORSDOF 6
ENDMDL
MODEL 4
REMARK VINA RESULT:      -7.4      1.707      4.956
REMARK  Name = 
REMARK  9 active torsions:
REMARK  status: ('A' for Active; 'I' for Inactive)
REMARK    1  A    between atoms: C_1  and  O_2
REMARK    2  A    between atoms: O_2  and  C_3
REMARK    3  A    between atoms: C_8  and  C_9
REMARK    4  A    between atoms: C_9  and  C_10
REMARK    5  A    between atoms: C_9  and  C_11
REMARK    6  A    between atoms: C_9  and  O_12
REMARK    7  A    between atoms: N_23  and  C_24
REMARK    8  A    between atoms: C_24  and  C_25
REMARK    9  A    between atoms: C_28  and  O_29
REMARK                            x       y       z     vdW  Elec       q    Type
REMARK                         _______ _______ _______ _____ _____    ______ ____
ROOT
ATOM      1  C   UNL     1       5.642   0.817  26.400  0.00  0.00    +0.130 C 
ATOM      2  C   UNL     1       6.304   1.030  24.713  0.00  0.00    +0.221 C 
ATOM      3  C   UNL     1       7.266  -0.162  24.251  0.00  0.00    +0.051 C 
ATOM      4  C   UNL     1       7.197  -0.722  22.778  0.00  0.00    +0.031 C 
ATOM      5  C   UNL     1       6.773  -2.183  22.728  0.00  0.00    +0.086 C 
ATOM      6  N   UNL     1       7.619  -2.961  23.628  0.00  0.00    -0.298 NA
ATOM      7  C   UNL     1       8.313  -2.354  24.808  0.00  0.00    +0.072 C 
ATOM      8  C   UNL     1       9.710  -1.739  24.415  0.00  0.00    +0.055 C 
ATOM      9  C   UNL     1       9.763  -0.203  24.267  0.00  0.00    -0.038 A 
ATOM     10  C   UNL     1      10.899   0.585  24.177  0.00  0.00    +0.008 A 
ATOM     11  C   UNL     1      10.766   1.986  23.993  0.00  0.00    +0.049 A 
ATOM     12  C   UNL     1       9.508   2.621  23.958  0.00  0.00    +0.159 A 
ATOM     13  C   UNL     1       8.385   1.872  24.198  0.00  0.00    +0.166 A 
ATOM     14  C   UNL     1       8.561   0.512  24.255  0.00  0.00    +0.012 A 
ATOM     15  C   UNL     1       7.496  -1.239  25.442  0.00  0.00    +0.018 C 
ATOM     16  C   UNL     1       7.968  -0.481  26.991  0.00  0.00    +0.023 C 
ATOM     17  C   UNL     1       6.039  -1.633  25.932  0.00  0.00    -0.019 C 
ATOM     18  O   UNL     1       7.084   2.281  24.433  0.00  0.00    -0.481 OA
ATOM     19  C   UNL     1       6.998   0.927  27.355  0.00  0.00    +0.061 C 
ATOM     20  C   UNL     1       5.155  -0.778  26.477  0.00  0.00    +0.008 C 
ENDROOT
BRANCH  19  21
ATOM     21  C   UNL     1       6.934   1.468  28.943  0.00  0.00    +0.066 C 
ATOM     22  C   UNL     1       5.786   0.953  29.876  0.00  0.00    +0.041 C 
ATOM     23  C   UNL     1       6.772   3.005  28.974  0.00  0.00    +0.041 C 
BRANCH  21  24
ATOM     24  O   UNL     1       8.172   1.179  29.610  0.00  0.00    -0.389 OA
ATOM     25  H   UNL     1       8.850   1.023  28.919  0.00  0.00    +0.210 HD
ENDBRANCH  21  24
ENDBRANCH  19  21
BRANCH   1  27
ATOM     26  C   UNL     1       3.354   0.883  27.134  0.00  0.00    +0.195 C 
ATOM     27  O   UNL     1       4.512   1.624  26.674  0.00  0.00    -0.368 OA
ENDBRANCH   1  27
BRANCH  12  28
ATOM     28  O   UNL     1       9.446   3.945  23.644  0.00  0.00    -0.503 OA
ATOM     29  H   UNL     1       9.810   4.033  22.743  0.00  0.00    +0.292 HD
ENDBRANCH  12  28
BRANCH   6  30
ATOM     30  C   UNL     1       7.568  -4.408  23.499  0.00  0.00    +0.088 C 
BRANCH  30  31
ATOM     31  C   UNL     1       6.866  -4.884  22.259  0.00  0.00    +0.003 C 
ATOM     32  C   UNL     1       5.556  -5.621  22.379  0.00  0.00    +0.005 C 
ATOM     33  C   UNL     1       6.785  -6.362  21.941  0.00  0.00    +0.005 C 
ENDBRANCH  30  31
ENDBRANCH   6  30
TORSDOF 6
ENDMDL
MODEL 5
REMARK VINA RESULT:      -7.0      2.596      6.051
REMARK  Name = 
REMARK  9 active torsions:
REMARK  status: ('A' for Active; 'I' for Inactive)
REMARK    1  A    between atoms: C_1  and  O_2
REMARK    2  A    between atoms: O_2  and  C_3
REMARK    3  A    between atoms: C_8  and  C_9
REMARK    4  A    between atoms: C_9  and  C_10
REMARK    5  A    between atoms: C_9  and  C_11
REMARK    6  A    between atoms: C_9  and  O_12
REMARK    7  A    between atoms: N_23  and  C_24
REMARK    8  A    between atoms: C_24  and  C_25
REMARK    9  A    between atoms: C_28  and  O_29
REMARK                            x       y       z     vdW  Elec       q    Type
REMARK                         _______ _______ _______ _____ _____    ______ ____
ROOT
ATOM      1  C   UNL     1       7.119  -3.222  23.734  0.00  0.00    +0.130 C 
ATOM      2  C   UNL     1       6.049  -1.747  23.822  0.00  0.00    +0.221 C 
ATOM      3  C   UNL     1       6.856  -0.388  24.071  0.00  0.00    +0.051 C 
ATOM      4  C   UNL     1       6.449   0.935  23.314  0.00  0.00    +0.031 C 
ATOM      5  C   UNL     1       7.551   1.446  22.398  0.00  0.00    +0.086 C 
ATOM      6  N   UNL     1       8.798   1.544  23.152  0.00  0.00    -0.298 NA
ATOM      7  C   UNL     1       9.070   0.716  24.370  0.00  0.00    +0.072 C 
ATOM      8  C   UNL     1       8.507   1.395  25.677  0.00  0.00    +0.055 C 
ATOM      9  C   UNL     1       7.187   0.819  26.232  0.00  0.00    -0.038 A 
ATOM     10  C   UNL     1       6.629   1.066  27.476  0.00  0.00    +0.008 A 
ATOM     11  C   UNL     1       5.376   0.489  27.809  0.00  0.00    +0.049 A 
ATOM     12  C   UNL     1       4.697  -0.384  26.933  0.00  0.00    +0.159 A 
ATOM     13  C   UNL     1       5.311  -0.754  25.765  0.00  0.00    +0.166 A 
ATOM     14  C   UNL     1       6.463  -0.081  25.443  0.00  0.00    +0.012 A 
ATOM     15  C   UNL     1       8.441  -0.665  24.277  0.00  0.00    +0.018 C 
ATOM     16  C   UNL     1       8.778  -1.943  25.482  0.00  0.00    +0.023 C 
ATOM     17  C   UNL     1       8.873  -1.547  23.031  0.00  0.00    -0.019 C 
ATOM     18  O   UNL     1       4.966  -1.744  24.862  0.00  0.00    -0.481 OA
ATOM     19  C   UNL     1       7.738  -3.332  25.272  0.00  0.00    +0.061 C 
ATOM     20  C   UNL     1       8.396  -2.774  22.756  0.00  0.00    +0.008 C 
ENDROOT
BRANCH  19  21
ATOM     21  C   UNL     1       8.211  -4.796  25.945  0.00  0.00    +0.066 C 
ATOM     22  C   UNL     1       9.054  -5.793  25.079  0.00  0.00    +0.041 C 
ATOM     23  C   UNL     1       6.968  -5.621  26.350  0.00  0.00    +0.041 C 
BRANCH  21  24
ATOM     24  O   UNL     1       8.954  -4.565  27.151  0.00  0.00    -0.389 OA
ATOM     25  H   UNL     1       9.295  -5.433  27.458  0.00  0.00    +0.210 HD
ENDBRANCH  21  24
ENDBRANCH  19  21
BRANCH   1  27
ATOM     26  C   UNL     1       7.190  -4.856  21.972  0.00  0.00    +0.195 C 
ATOM     27  O   UNL     1       6.495  -4.343  23.136  0.00  0.00    -0.368 OA
ENDBRANCH   1  27
BRANCH  12  28
ATOM     28  O   UNL     1       3.438  -0.794  27.257  0.00  0.00    -0.503 OA
ATOM     29  H   UNL     1       3.236  -0.402  28.127  0.00  0.00    +0.292 HD
ENDBRANCH  12  28
BRANCH   6  30
ATOM     30  C   UNL     1       9.886   2.286  22.538  0.00  0.00    +0.088 C 
BRANCH  30  31
ATOM     31  C   UNL     1      10.729   3.053  23.518  0.00  0.00    +0.003 C 
ATOM     32  C   UNL     1      10.391   4.488  23.830  0.00  0.00    +0.005 C 
ATOM     33  C   UNL     1      11.631   4.173  23.045  0.00  0.00    +0.005 C 
ENDBRANCH  30  31
ENDBRANCH   6  30
TORSDOF 6
ENDMDL
MODEL 6
REMARK VINA RESULT:      -6.9      2.287      5.350
REMARK  Name = 
REMARK  9 active torsions:
REMARK  status: ('A' for Active; 'I' for Inactive)
REMARK    1  A    between atoms: C_1  and  O_2
REMARK    2  A    between atoms: O_2  and  C_3
REMARK    3  A    between atoms: C_8  and  C_9
REMARK    4  A    between atoms: C_9  and  C_10
REMARK    5  A    between atoms: C_9  and  C_11
REMARK    6  A    between atoms: C_9  and  O_12
REMARK    7  A    between atoms: N_23  and  C_24
REMARK    8  A    between atoms: C_24  and  C_25
REMARK    9  A    between atoms: C_28  and  O_29
REMARK                            x       y       z     vdW  Elec       q    Type
REMARK                         _______ _______ _______ _____ _____    ______ ____
ROOT
ATOM      1  C   UNL     1       5.296   1.210  25.928  0.00  0.00    +0.130 C 
ATOM      2  C   UNL     1       6.001   1.338  24.251  0.00  0.00    +0.221 C 
ATOM      3  C   UNL     1       7.235   0.350  24.001  0.00  0.00    +0.051 C 
ATOM      4  C   UNL     1       7.390  -0.406  22.626  0.00  0.00    +0.031 C 
ATOM      5  C   UNL     1       7.310  -1.918  22.778  0.00  0.00    +0.086 C 
ATOM      6  N   UNL     1       8.249  -2.349  23.810  0.00  0.00    -0.298 NA
ATOM      7  C   UNL     1       8.710  -1.441  24.910  0.00  0.00    +0.072 C 
ATOM      8  C   UNL     1       9.955  -0.579  24.475  0.00  0.00    +0.055 C 
ATOM      9  C   UNL     1       9.671   0.892  24.102  0.00  0.00    -0.038 A 
ATOM     10  C   UNL     1      10.604   1.903  23.934  0.00  0.00    +0.008 A 
ATOM     11  C   UNL     1      10.172   3.196  23.541  0.00  0.00    +0.049 A 
ATOM     12  C   UNL     1       8.807   3.511  23.371  0.00  0.00    +0.159 A 
ATOM     13  C   UNL     1       7.869   2.562  23.683  0.00  0.00    +0.166 A 
ATOM     14  C   UNL     1       8.342   1.300  23.946  0.00  0.00    +0.012 A 
ATOM     15  C   UNL     1       7.623  -0.471  25.345  0.00  0.00    +0.018 C 
ATOM     16  C   UNL     1       7.811   0.581  26.779  0.00  0.00    +0.023 C 
ATOM     17  C   UNL     1       6.263  -1.121  25.841  0.00  0.00    -0.019 C 
ATOM     18  O   UNL     1       6.497   2.686  23.814  0.00  0.00    -0.481 OA
ATOM     19  C   UNL     1       6.527   1.761  26.899  0.00  0.00    +0.061 C 
ATOM     20  C   UNL     1       5.176  -0.429  26.225  0.00  0.00    +0.008 C 
ENDROOT
BRANCH  19  21
ATOM     21  C   UNL     1       6.240   2.485  28.387  0.00  0.00    +0.066 C 
ATOM     22  C   UNL     1       5.461   1.682  29.484  0.00  0.00    +0.041 C 
ATOM     23  C   UNL     1       5.398   3.767  28.200  0.00  0.00    +0.041 C 
BRANCH  21  24
ATOM     24  O   UNL     1       7.481   2.898  28.979  0.00  0.00    -0.389 OA
ATOM     25  H   UNL     1       7.662   3.813  28.675  0.00  0.00    +0.210 HD
ENDBRANCH  21  24
ENDBRANCH  19  21
BRANCH   1  27
ATOM     26  C   UNL     1       3.101   0.992  26.883  0.00  0.00    +0.195 C 
ATOM     27  O   UNL     1       3.998   1.762  26.043  0.00  0.00    -0.368 OA
ENDBRANCH   1  27
BRANCH  12  28
ATOM     28  O   UNL     1       8.470   4.729  22.863  0.00  0.00    -0.503 OA
ATOM     29  H   UNL     1       8.590   4.668  21.897  0.00  0.00    +0.292 HD
ENDBRANCH  12  28
BRANCH   6  30
ATOM     30  C   UNL     1       8.533  -3.771  23.895  0.00  0.00    +0.088 C 
BRANCH  30  31
ATOM     31  C   UNL     1       9.165  -4.190  25.192  0.00  0.00    +0.003 C 
ATOM     32  C   UNL     1       9.378  -5.654  25.480  0.00  0.00    +0.005 C 
ATOM     33  C   UNL     1       8.346  -4.891  26.255  0.00  0.00    +0.005 C 
ENDBRANCH  30  31
ENDBRANCH   6  30
TORSDOF 6
ENDMDL
MODEL 7
REMARK VINA RESULT:      -6.8      1.980      5.123
REMARK  Name = 
REMARK  9 active torsions:
REMARK  status: ('A' for Active; 'I' for Inactive)
REMARK    1  A    between atoms: C_1  and  O_2
REMARK    2  A    between atoms: O_2  and  C_3
REMARK    3  A    between atoms: C_8  and  C_9
REMARK    4  A    between atoms: C_9  and  C_10
REMARK    5  A    between atoms: C_9  and  C_11
REMARK    6  A    between atoms: C_9  and  O_12
REMARK    7  A    between atoms: N_23  and  C_24
REMARK    8  A    between atoms: C_24  and  C_25
REMARK    9  A    between atoms: C_28  and  O_29
REMARK                            x       y       z     vdW  Elec       q    Type
REMARK                         _______ _______ _______ _____ _____    ______ ____
ROOT
ATOM      1  C   UNL     1       5.554   1.671  26.099  0.00  0.00    +0.130 C 
ATOM      2  C   UNL     1       6.350   1.523  24.464  0.00  0.00    +0.221 C 
ATOM      3  C   UNL     1       7.143   0.148  24.264  0.00  0.00    +0.051 C 
ATOM      4  C   UNL     1       7.084  -0.617  22.886  0.00  0.00    +0.031 C 
ATOM      5  C   UNL     1       6.443  -1.992  23.008  0.00  0.00    +0.086 C 
ATOM      6  N   UNL     1       7.097  -2.735  24.081  0.00  0.00    -0.298 NA
ATOM      7  C   UNL     1       7.798  -2.059  25.219  0.00  0.00    +0.072 C 
ATOM      8  C   UNL     1       9.296  -1.720  24.866  0.00  0.00    +0.055 C 
ATOM      9  C   UNL     1       9.597  -0.249  24.504  0.00  0.00    -0.038 A 
ATOM     10  C   UNL     1      10.845   0.344  24.403  0.00  0.00    +0.008 A 
ATOM     11  C   UNL     1      10.944   1.704  24.009  0.00  0.00    +0.049 A 
ATOM     12  C   UNL     1       9.804   2.500  23.773  0.00  0.00    +0.159 A 
ATOM     13  C   UNL     1       8.565   1.967  24.018  0.00  0.00    +0.166 A 
ATOM     14  C   UNL     1       8.524   0.621  24.284  0.00  0.00    +0.012 A 
ATOM     15  C   UNL     1       7.124  -0.754  25.612  0.00  0.00    +0.018 C 
ATOM     16  C   UNL     1       7.607   0.159  27.072  0.00  0.00    +0.023 C 
ATOM     17  C   UNL     1       5.595  -0.853  26.023  0.00  0.00    -0.019 C 
ATOM     18  O   UNL     1       7.332   2.590  24.077  0.00  0.00    -0.481 OA
ATOM     19  C   UNL     1       6.846   1.731  27.144  0.00  0.00    +0.061 C 
ATOM     20  C   UNL     1       4.821   0.194  26.361  0.00  0.00    +0.008 C 
ENDROOT
BRANCH  19  21
ATOM     21  C   UNL     1       6.763   2.515  28.626  0.00  0.00    +0.066 C 
ATOM     22  C   UNL     1       5.537   2.244  29.562  0.00  0.00    +0.041 C 
ATOM     23  C   UNL     1       6.735   4.046  28.417  0.00  0.00    +0.041 C 
BRANCH  21  24
ATOM     24  O   UNL     1       7.942   2.234  29.396  0.00  0.00    -0.389 OA
ATOM     25  H   UNL     1       8.038   1.258  29.442  0.00  0.00    +0.210 HD
ENDBRANCH  21  24
ENDBRANCH  19  21
BRANCH   1  27
ATOM     26  C   UNL     1       3.256   2.173  26.593  0.00  0.00    +0.195 C 
ATOM     27  O   UNL     1       4.548   2.664  26.154  0.00  0.00    -0.368 OA
ENDBRANCH   1  27
BRANCH  12  28
ATOM     28  O   UNL     1       9.970   3.755  23.269  0.00  0.00    -0.503 OA
ATOM     29  H   UNL     1      10.871   3.786  22.897  0.00  0.00    +0.292 HD
ENDBRANCH  12  28
BRANCH   6  30
ATOM     30  C   UNL     1       6.830  -4.162  24.156  0.00  0.00    +0.088 C 
BRANCH  30  31
ATOM     31  C   UNL     1       6.533  -4.654  25.544  0.00  0.00    +0.003 C 
ATOM     32  C   UNL     1       5.803  -5.959  25.733  0.00  0.00    +0.005 C 
ATOM     33  C   UNL     1       5.113  -4.669  26.067  0.00  0.00    +0.005 C 
ENDBRANCH  30  31
ENDBRANCH   6  30
TORSDOF 6
ENDMDL
MODEL 8
REMARK VINA RESULT:      -6.8      3.346      6.930
REMARK  Name = 
REMARK  9 active torsions:
REMARK  status: ('A' for Active; 'I' for Inactive)
REMARK    1  A    between atoms: C_1  and  O_2
REMARK    2  A    between atoms: O_2  and  C_3
REMARK    3  A    between atoms: C_8  and  C_9
REMARK    4  A    between atoms: C_9  and  C_10
REMARK    5  A    between atoms: C_9  and  C_11
REMARK    6  A    between atoms: C_9  and  O_12
REMARK    7  A    between atoms: N_23  and  C_24
REMARK    8  A    between atoms: C_24  and  C_25
REMARK    9  A    between atoms: C_28  and  O_29
REMARK                            x       y       z     vdW  Elec       q    Type
REMARK                         _______ _______ _______ _____ _____    ______ ____
ROOT
ATOM      1  C   UNL     1       5.598  -4.484  26.834  0.00  0.00    +0.130 C 
ATOM      2  C   UNL     1       6.934  -4.775  25.627  0.00  0.00    +0.221 C 
ATOM      3  C   UNL     1       7.286  -3.489  24.743  0.00  0.00    +0.051 C 
ATOM      4  C   UNL     1       8.785  -3.141  24.397  0.00  0.00    +0.031 C 
ATOM      5  C   UNL     1       9.225  -1.806  24.980  0.00  0.00    +0.086 C 
ATOM      6  N   UNL     1       8.264  -0.774  24.599  0.00  0.00    -0.298 NA
ATOM      7  C   UNL     1       6.839  -1.085  24.260  0.00  0.00    +0.072 C 
ATOM      8  C   UNL     1       6.669  -1.466  22.740  0.00  0.00    +0.055 C 
ATOM      9  C   UNL     1       6.514  -2.970  22.425  0.00  0.00    -0.038 A 
ATOM     10  C   UNL     1       6.109  -3.531  21.226  0.00  0.00    +0.008 A 
ATOM     11  C   UNL     1       6.069  -4.944  21.092  0.00  0.00    +0.049 A 
ATOM     12  C   UNL     1       6.373  -5.807  22.165  0.00  0.00    +0.159 A 
ATOM     13  C   UNL     1       6.628  -5.262  23.397  0.00  0.00    +0.166 A 
ATOM     14  C   UNL     1       6.765  -3.897  23.442  0.00  0.00    +0.012 A 
ATOM     15  C   UNL     1       6.296  -2.247  25.076  0.00  0.00    +0.018 C 
ATOM     16  C   UNL     1       4.567  -2.702  25.044  0.00  0.00    +0.023 C 
ATOM     17  C   UNL     1       6.355  -2.082  26.653  0.00  0.00    -0.019 C 
ATOM     18  O   UNL     1       6.732  -5.879  24.630  0.00  0.00    -0.481 OA
ATOM     19  C   UNL     1       4.271  -4.213  25.872  0.00  0.00    +0.061 C 
ATOM     20  C   UNL     1       5.963  -3.014  27.539  0.00  0.00    +0.008 C 
ENDROOT
BRANCH  19  21
ATOM     21  C   UNL     1       2.708  -4.554  26.383  0.00  0.00    +0.066 C 
ATOM     22  C   UNL     1       1.541  -4.510  25.340  0.00  0.00    +0.041 C 
ATOM     23  C   UNL     1       2.271  -3.543  27.468  0.00  0.00    +0.041 C 
BRANCH  21  24
ATOM     24  O   UNL     1       2.665  -5.850  26.999  0.00  0.00    -0.389 OA
ATOM     25  H   UNL     1       3.590  -6.168  27.081  0.00  0.00    +0.210 HD
ENDBRANCH  21  24
ENDBRANCH  19  21
BRANCH   1  27
ATOM     26  C   UNL     1       5.320  -4.895  29.187  0.00  0.00    +0.195 C 
ATOM     27  O   UNL     1       5.543  -5.451  27.866  0.00  0.00    -0.368 OA
ENDBRANCH   1  27
BRANCH  12  28
ATOM     28  O   UNL     1       6.447  -7.147  21.932  0.00  0.00    -0.503 OA
ATOM     29  H   UNL     1       5.582  -7.412  21.567  0.00  0.00    +0.292 HD
ENDBRANCH  12  28
BRANCH   6  30
ATOM     30  C   UNL     1       8.661   0.609  24.807  0.00  0.00    +0.088 C 
BRANCH  30  31
ATOM     31  C   UNL     1       8.846   1.387  23.535  0.00  0.00    +0.003 C 
ATOM     32  C   UNL     1       9.812   0.890  22.490  0.00  0.00    +0.005 C 
ATOM     33  C   UNL     1      10.137   2.130  23.270  0.00  0.00    +0.005 C 
ENDBRANCH  30  31
ENDBRANCH   6  30
TORSDOF 6
ENDMDL
MODEL 9
REMARK VINA RESULT:      -6.6      1.420      1.969
REMARK  Name = 
REMARK  9 active torsions:
REMARK  status: ('A' for Active; 'I' for Inactive)
REMARK    1  A    between atoms: C_1  and  O_2
REMARK    2  A    between atoms: O_2  and  C_3
REMARK    3  A    between atoms: C_8  and  C_9
REMARK    4  A    between atoms: C_9  and  C_10
REMARK    5  A    between atoms: C_9  and  C_11
REMARK    6  A    between atoms: C_9  and  O_12
REMARK    7  A    between atoms: N_23  and  C_24
REMARK    8  A    between atoms: C_24  and  C_25
REMARK    9  A    between atoms: C_28  and  O_29
REMARK                            x       y       z     vdW  Elec       q    Type
REMARK                         _______ _______ _______ _____ _____    ______ ____
ROOT
ATOM      1  C   UNL     1       9.018  -0.880  23.860  0.00  0.00    +0.130 C 
ATOM      2  C   UNL     1       8.758  -1.496  25.557  0.00  0.00    +0.221 C 
ATOM      3  C   UNL     1       7.333  -2.192  25.771  0.00  0.00    +0.051 C 
ATOM      4  C   UNL     1       7.204  -3.500  26.643  0.00  0.00    +0.031 C 
ATOM      5  C   UNL     1       6.712  -4.693  25.836  0.00  0.00    +0.086 C 
ATOM      6  N   UNL     1       5.494  -4.323  25.122  0.00  0.00    -0.298 NA
ATOM      7  C   UNL     1       5.171  -2.906  24.761  0.00  0.00    +0.072 C 
ATOM      8  C   UNL     1       4.425  -2.158  25.931  0.00  0.00    +0.055 C 
ATOM      9  C   UNL     1       5.279  -1.187  26.775  0.00  0.00    -0.038 A 
ATOM     10  C   UNL     1       4.817  -0.244  27.678  0.00  0.00    +0.008 A 
ATOM     11  C   UNL     1       5.748   0.538  28.411  0.00  0.00    +0.049 A 
ATOM     12  C   UNL     1       7.139   0.430  28.209  0.00  0.00    +0.159 A 
ATOM     13  C   UNL     1       7.599  -0.390  27.211  0.00  0.00    +0.166 A 
ATOM     14  C   UNL     1       6.668  -1.203  26.615  0.00  0.00    +0.012 A 
ATOM     15  C   UNL     1       6.417  -2.098  24.436  0.00  0.00    +0.018 C 
ATOM     16  C   UNL     1       6.326  -0.444  23.763  0.00  0.00    +0.023 C 
ATOM     17  C   UNL     1       7.330  -2.662  23.267  0.00  0.00    -0.019 C 
ATOM     18  O   UNL     1       8.869  -0.501  26.675  0.00  0.00    -0.481 OA
ATOM     19  C   UNL     1       7.891   0.334  23.722  0.00  0.00    +0.061 C 
ATOM     20  C   UNL     1       8.490  -2.112  22.865  0.00  0.00    +0.008 C 
ENDROOT
BRANCH  19  21
ATOM     21  C   UNL     1       8.108   1.646  22.697  0.00  0.00    +0.066 C 
ATOM     22  C   UNL     1       6.969   2.716  22.582  0.00  0.00    +0.041 C 
ATOM     23  C   UNL     1       8.303   1.158  21.243  0.00  0.00    +0.041 C 
BRANCH  21  24
ATOM     24  O   UNL     1       9.306   2.352  23.050  0.00  0.00    -0.389 OA
ATOM     25  H   UNL     1       9.045   3.260  23.317  0.00  0.00    +0.210 HD
ENDBRANCH  21  24
ENDBRANCH  19  21
BRANCH   1  27
ATOM     26  C   UNL     1      10.831  -1.275  22.332  0.00  0.00    +0.195 C 
ATOM     27  O   UNL     1      10.375  -0.629  23.547  0.00  0.00    -0.368 OA
ENDBRANCH   1  27
BRANCH  12  28
ATOM     28  O   UNL     1       7.980   1.110  29.039  0.00  0.00    -0.503 OA
ATOM     29  H   UNL     1       7.415   1.655  29.617  0.00  0.00    +0.292 HD
ENDBRANCH  12  28
BRANCH   6  30
ATOM     30  C   UNL     1       4.715  -5.402  24.538  0.00  0.00    +0.088 C 
BRANCH  30  31
ATOM     31  C   UNL     1       4.499  -6.567  25.462  0.00  0.00    +0.003 C 
ATOM     32  C   UNL     1       3.317  -7.478  25.251  0.00  0.00    +0.005 C 
ATOM     33  C   UNL     1       3.347  -6.567  26.443  0.00  0.00    +0.005 C 
ENDBRANCH  30  31
ENDBRANCH   6  30
TORSDOF 6
ENDMDL
