MODEL 1
REMARK VINA RESULT:      -6.7      0.000      0.000
REMARK  Name = 
REMARK  8 active torsions:
REMARK  status: ('A' for Active; 'I' for Inactive)
REMARK    1  A    between atoms: C_5  and  O_6
REMARK    2  A    between atoms: C_5  and  C_10
REMARK    3  A    between atoms: O_6  and  C_7
REMARK    4  A    between atoms: C_7  and  C_8
REMARK    5  A    between atoms: C_10  and  C_11
REMARK    6  A    between atoms: C_13  and  C_14
REMARK    7  A    between atoms: C_22  and  C_24
REMARK    8  A    between atoms: C_31  and  C_32
REMARK                            x       y       z     vdW  Elec       q    Type
REMARK                         _______ _______ _______ _____ _____    ______ ____
ROOT
ATOM      1  C   UNL     1       9.824   0.662  24.834  0.00  0.00    +0.003 C 
ATOM      2  C   UNL     1       8.572  -0.649  24.711  0.00  0.00    -0.003 C 
ATOM      3  C   UNL     1       8.889  -1.739  25.729  0.00  0.00    +0.011 C 
ATOM      4  C   UNL     1       7.743  -2.749  25.865  0.00  0.00    +0.013 C 
ATOM      5  C   UNL     1       7.385  -3.393  24.522  0.00  0.00    -0.057 C 
ATOM      6  C   UNL     1       7.222  -2.461  23.276  0.00  0.00    -0.007 C 
ATOM      7  C   UNL     1       5.796  -1.876  23.371  0.00  0.00    +0.016 C 
ATOM      8  C   UNL     1       7.320  -3.258  21.909  0.00  0.00    +0.019 C 
ATOM      9  C   UNL     1       7.507  -4.765  22.006  0.00  0.00    +0.080 C 
ATOM     10  C   UNL     1       6.717  -5.292  23.155  0.00  0.00    +0.156 C 
ATOM     11  O   UNL     1       5.881  -6.182  23.068  0.00  0.00    -0.293 OA
ATOM     12  C   UNL     1       7.075  -4.704  24.456  0.00  0.00    +0.046 C 
ATOM     13  C   UNL     1       8.140  -3.727  26.989  0.00  0.00    +0.012 C 
ATOM     14  C   UNL     1       8.315  -1.302  23.244  0.00  0.00    +0.002 C 
ATOM     15  C   UNL     1       8.160  -0.229  21.970  0.00  0.00    +0.005 C 
ATOM     16  C   UNL     1       9.189   1.125  21.704  0.00  0.00    +0.011 C 
ATOM     17  C   UNL     1       9.793   1.866  23.287  0.00  0.00    +0.018 C 
ATOM     18  C   UNL     1      10.651   3.128  23.372  0.00  0.00    +0.016 C 
ATOM     19  C   UNL     1       8.600   1.537  23.865  0.00  0.00    +0.176 C 
ATOM     20  C   UNL     1      10.292   0.433  23.434  0.00  0.00    +0.057 C 
ATOM     21  C   UNL     1      11.120   0.121  24.616  0.00  0.00    +0.009 C 
ENDROOT
BRANCH  19  22
ATOM     22  C   UNL     1       7.619   2.548  23.075  0.00  0.00    +0.174 C 
ATOM     23  O   UNL     1       7.960   3.653  22.617  0.00  0.00    -0.293 OA
ATOM     24  C   UNL     1       6.151   2.217  22.942  0.00  0.00    +0.090 C 
ENDBRANCH  19  22
BRANCH  19  25
ATOM     25  O   UNL     1       8.651   2.610  25.023  0.00  0.00    -0.450 OA
BRANCH  25  26
ATOM     26  C   UNL     1       7.652   2.813  25.914  0.00  0.00    +0.305 C 
ATOM     27  O   UNL     1       6.983   1.938  26.439  0.00  0.00    -0.251 OA
ATOM     28  C   UNL     1       7.553   4.285  26.223  0.00  0.00    +0.136 C 
ENDBRANCH  25  26
ENDBRANCH  19  25
TORSDOF 3
ENDMDL
MODEL 2
REMARK VINA RESULT:      -6.7      1.738      2.530
REMARK  Name = 
REMARK  8 active torsions:
REMARK  status: ('A' for Active; 'I' for Inactive)
REMARK    1  A    between atoms: C_5  and  O_6
REMARK    2  A    between atoms: C_5  and  C_10
REMARK    3  A    between atoms: O_6  and  C_7
REMARK    4  A    between atoms: C_7  and  C_8
REMARK    5  A    between atoms: C_10  and  C_11
REMARK    6  A    between atoms: C_13  and  C_14
REMARK    7  A    between atoms: C_22  and  C_24
REMARK    8  A    between atoms: C_31  and  C_32
REMARK                            x       y       z     vdW  Elec       q    Type
REMARK                         _______ _______ _______ _____ _____    ______ ____
ROOT
ATOM      1  C   UNL     1       8.441  -0.357  25.419  0.00  0.00    +0.003 C 
ATOM      2  C   UNL     1       7.113  -1.282  24.594  0.00  0.00    -0.003 C 
ATOM      3  C   UNL     1       6.072  -1.692  25.631  0.00  0.00    +0.011 C 
ATOM      4  C   UNL     1       4.801  -2.247  24.979  0.00  0.00    +0.013 C 
ATOM      5  C   UNL     1       5.101  -3.436  24.059  0.00  0.00    -0.057 C 
ATOM      6  C   UNL     1       6.289  -3.307  23.050  0.00  0.00    -0.007 C 
ATOM      7  C   UNL     1       5.732  -2.519  21.844  0.00  0.00    +0.016 C 
ATOM      8  C   UNL     1       6.781  -4.715  22.513  0.00  0.00    +0.019 C 
ATOM      9  C   UNL     1       6.025  -5.940  23.007  0.00  0.00    +0.080 C 
ATOM     10  C   UNL     1       4.573  -5.617  23.119  0.00  0.00    +0.156 C 
ATOM     11  O   UNL     1       3.682  -6.249  22.568  0.00  0.00    -0.293 OA
ATOM     12  C   UNL     1       4.269  -4.498  24.025  0.00  0.00    +0.046 C 
ATOM     13  C   UNL     1       3.798  -2.523  26.117  0.00  0.00    +0.012 C 
ATOM     14  C   UNL     1       7.544  -2.563  23.689  0.00  0.00    +0.002 C 
ATOM     15  C   UNL     1       8.829  -2.333  22.642  0.00  0.00    +0.005 C 
ATOM     16  C   UNL     1      10.299  -1.542  23.060  0.00  0.00    +0.011 C 
ATOM     17  C   UNL     1      10.038  -0.189  24.294  0.00  0.00    +0.018 C 
ATOM     18  C   UNL     1      11.142   0.746  24.790  0.00  0.00    +0.016 C 
ATOM     19  C   UNL     1       8.824   0.062  23.722  0.00  0.00    +0.176 C 
ATOM     20  C   UNL     1       9.467  -1.381  25.052  0.00  0.00    +0.057 C 
ATOM     21  C   UNL     1       9.026  -1.151  26.443  0.00  0.00    +0.009 C 
ENDROOT
BRANCH  19  22
ATOM     22  C   UNL     1       9.303   0.647  22.295  0.00  0.00    +0.174 C 
ATOM     23  O   UNL     1      10.354   1.286  22.106  0.00  0.00    -0.293 OA
ATOM     24  C   UNL     1       8.399   0.520  21.091  0.00  0.00    +0.090 C 
ENDBRANCH  19  22
BRANCH  19  25
ATOM     25  O   UNL     1       8.694   1.560  24.207  0.00  0.00    -0.450 OA
BRANCH  25  26
ATOM     26  C   UNL     1       7.671   2.380  23.873  0.00  0.00    +0.305 C 
ATOM     27  O   UNL     1       6.500   2.047  23.773  0.00  0.00    -0.251 OA
ATOM     28  C   UNL     1       8.188   3.789  23.730  0.00  0.00    +0.136 C 
ENDBRANCH  25  26
ENDBRANCH  19  25
TORSDOF 3
ENDMDL
MODEL 3
REMARK VINA RESULT:      -6.6      1.994      6.760
REMARK  Name = 
REMARK  8 active torsions:
REMARK  status: ('A' for Active; 'I' for Inactive)
REMARK    1  A    between atoms: C_5  and  O_6
REMARK    2  A    between atoms: C_5  and  C_10
REMARK    3  A    between atoms: O_6  and  C_7
REMARK    4  A    between atoms: C_7  and  C_8
REMARK    5  A    between atoms: C_10  and  C_11
REMARK    6  A    between atoms: C_13  and  C_14
REMARK    7  A    between atoms: C_22  and  C_24
REMARK    8  A    between atoms: C_31  and  C_32
REMARK                            x       y       z     vdW  Elec       q    Type
REMARK                         _______ _______ _______ _____ _____    ______ ____
ROOT
ATOM      1  C   UNL     1       8.700  -2.770  23.435  0.00  0.00    +0.003 C 
ATOM      2  C   UNL     1       7.681  -1.286  23.675  0.00  0.00    -0.003 C 
ATOM      3  C   UNL     1       8.165  -0.190  22.731  0.00  0.00    +0.011 C 
ATOM      4  C   UNL     1       7.199   1.000  22.690  0.00  0.00    +0.013 C 
ATOM      5  C   UNL     1       6.961   1.593  24.082  0.00  0.00    -0.057 C 
ATOM      6  C   UNL     1       6.658   0.612  25.262  0.00  0.00    -0.007 C 
ATOM      7  C   UNL     1       5.154   0.275  25.152  0.00  0.00    +0.016 C 
ATOM      8  C   UNL     1       6.895   1.280  26.680  0.00  0.00    +0.019 C 
ATOM      9  C   UNL     1       7.326   2.739  26.687  0.00  0.00    +0.080 C 
ATOM     10  C   UNL     1       6.624   3.470  25.593  0.00  0.00    +0.156 C 
ATOM     11  O   UNL     1       5.946   4.476  25.760  0.00  0.00    -0.293 OA
ATOM     12  C   UNL     1       6.871   2.930  24.247  0.00  0.00    +0.046 C 
ATOM     13  C   UNL     1       7.743   1.980  21.631  0.00  0.00    +0.012 C 
ATOM     14  C   UNL     1       7.546  -0.709  25.190  0.00  0.00    +0.002 C 
ATOM     15  C   UNL     1       7.226  -1.833  26.387  0.00  0.00    +0.005 C 
ATOM     16  C   UNL     1       8.021  -3.352  26.536  0.00  0.00    +0.011 C 
ATOM     17  C   UNL     1       8.483  -4.064  24.892  0.00  0.00    +0.018 C 
ATOM     18  C   UNL     1       9.122  -5.439  24.702  0.00  0.00    +0.016 C 
ATOM     19  C   UNL     1       7.356  -3.503  24.363  0.00  0.00    +0.176 C 
ATOM     20  C   UNL     1       9.209  -2.724  24.839  0.00  0.00    +0.057 C 
ATOM     21  C   UNL     1      10.069  -2.466  23.666  0.00  0.00    +0.009 C 
ENDROOT
BRANCH  19  22
ATOM     22  C   UNL     1       6.229  -4.396  25.097  0.00  0.00    +0.174 C 
ATOM     23  O   UNL     1       6.376  -5.583  25.440  0.00  0.00    -0.293 OA
ATOM     24  C   UNL     1       4.848  -3.825  25.321  0.00  0.00    +0.090 C 
ENDBRANCH  19  22
BRANCH  19  25
ATOM     25  O   UNL     1       7.222  -4.482  23.131  0.00  0.00    -0.450 OA
BRANCH  25  26
ATOM     26  C   UNL     1       6.201  -4.449  22.243  0.00  0.00    +0.305 C 
ATOM     27  O   UNL     1       5.562  -3.455  21.935  0.00  0.00    -0.251 OA
ATOM     28  C   UNL     1       6.033  -5.814  21.625  0.00  0.00    +0.136 C 
ENDBRANCH  25  26
ENDBRANCH  19  25
TORSDOF 3
ENDMDL
MODEL 4
REMARK VINA RESULT:      -6.6      2.095      6.663
REMARK  Name = 
REMARK  8 active torsions:
REMARK  status: ('A' for Active; 'I' for Inactive)
REMARK    1  A    between atoms: C_5  and  O_6
REMARK    2  A    between atoms: C_5  and  C_10
REMARK    3  A    between atoms: O_6  and  C_7
REMARK    4  A    between atoms: C_7  and  C_8
REMARK    5  A    between atoms: C_10  and  C_11
REMARK    6  A    between atoms: C_13  and  C_14
REMARK    7  A    between atoms: C_22  and  C_24
REMARK    8  A    between atoms: C_31  and  C_32
REMARK                            x       y       z     vdW  Elec       q    Type
REMARK                         _______ _______ _______ _____ _____    ______ ____
ROOT
ATOM      1  C   UNL     1       5.383  -3.202  24.441  0.00  0.00    +0.003 C 
ATOM      2  C   UNL     1       6.534  -1.806  24.600  0.00  0.00    -0.003 C 
ATOM      3  C   UNL     1       5.795  -0.511  24.274  0.00  0.00    +0.011 C 
ATOM      4  C   UNL     1       6.624   0.728  24.634  0.00  0.00    +0.013 C 
ATOM      5  C   UNL     1       7.988   0.728  23.935  0.00  0.00    -0.057 C 
ATOM      6  C   UNL     1       8.831  -0.589  23.962  0.00  0.00    -0.007 C 
ATOM      7  C   UNL     1       9.539  -0.608  25.335  0.00  0.00    +0.016 C 
ATOM      8  C   UNL     1       9.957  -0.608  22.845  0.00  0.00    +0.019 C 
ATOM      9  C   UNL     1      10.076   0.631  21.971  0.00  0.00    +0.080 C 
ATOM     10  C   UNL     1       9.821   1.847  22.794  0.00  0.00    +0.156 C 
ATOM     11  O   UNL     1      10.597   2.790  22.890  0.00  0.00    -0.293 OA
ATOM     12  C   UNL     1       8.502   1.875  23.444  0.00  0.00    +0.046 C 
ATOM     13  C   UNL     1       5.734   1.956  24.358  0.00  0.00    +0.012 C 
ATOM     14  C   UNL     1       7.928  -1.887  23.766  0.00  0.00    +0.002 C 
ATOM     15  C   UNL     1       8.759  -3.337  23.848  0.00  0.00    +0.005 C 
ATOM     16  C   UNL     1       8.031  -4.889  23.692  0.00  0.00    +0.011 C 
ATOM     17  C   UNL     1       6.313  -4.927  24.376  0.00  0.00    +0.018 C 
ATOM     18  C   UNL     1       5.449  -6.186  24.457  0.00  0.00    +0.016 C 
ATOM     19  C   UNL     1       6.700  -4.028  25.328  0.00  0.00    +0.176 C 
ATOM     20  C   UNL     1       6.183  -3.817  23.339  0.00  0.00    +0.057 C 
ATOM     21  C   UNL     1       4.840  -3.241  23.128  0.00  0.00    +0.009 C 
ENDROOT
BRANCH  19  22
ATOM     22  C   UNL     1       7.702  -4.952  26.194  0.00  0.00    +0.174 C 
ATOM     23  O   UNL     1       7.458  -6.117  26.556  0.00  0.00    -0.293 OA
ATOM     24  C   UNL     1       9.000  -4.374  26.707  0.00  0.00    +0.090 C 
ENDBRANCH  19  22
BRANCH  19  25
ATOM     25  O   UNL     1       5.581  -4.381  26.385  0.00  0.00    -0.450 OA
BRANCH  25  26
ATOM     26  C   UNL     1       5.415  -3.730  27.560  0.00  0.00    +0.305 C 
ATOM     27  O   UNL     1       5.538  -2.527  27.727  0.00  0.00    -0.251 OA
ATOM     28  C   UNL     1       4.966  -4.710  28.614  0.00  0.00    +0.136 C 
ENDBRANCH  25  26
ENDBRANCH  19  25
TORSDOF 3
ENDMDL
MODEL 5
REMARK VINA RESULT:      -6.4      2.017      6.760
REMARK  Name = 
REMARK  8 active torsions:
REMARK  status: ('A' for Active; 'I' for Inactive)
REMARK    1  A    between atoms: C_5  and  O_6
REMARK    2  A    between atoms: C_5  and  C_10
REMARK    3  A    between atoms: O_6  and  C_7
REMARK    4  A    between atoms: C_7  and  C_8
REMARK    5  A    between atoms: C_10  and  C_11
REMARK    6  A    between atoms: C_13  and  C_14
REMARK    7  A    between atoms: C_22  and  C_24
REMARK    8  A    between atoms: C_31  and  C_32
REMARK                            x       y       z     vdW  Elec       q    Type
REMARK                         _______ _______ _______ _____ _____    ______ ____
ROOT
ATOM      1  C   UNL     1       5.274  -3.386  25.479  0.00  0.00    +0.003 C 
ATOM      2  C   UNL     1       6.873  -2.555  25.259  0.00  0.00    -0.003 C 
ATOM      3  C   UNL     1       7.087  -1.573  26.407  0.00  0.00    +0.011 C 
ATOM      4  C   UNL     1       8.518  -1.024  26.434  0.00  0.00    +0.013 C 
ATOM      5  C   UNL     1       8.899  -0.353  25.110  0.00  0.00    -0.057 C 
ATOM      6  C   UNL     1       8.567  -1.103  23.779  0.00  0.00    -0.007 C 
ATOM      7  C   UNL     1       9.703  -2.131  23.580  0.00  0.00    +0.016 C 
ATOM      8  C   UNL     1       8.573  -0.136  22.522  0.00  0.00    +0.019 C 
ATOM      9  C   UNL     1       8.932   1.320  22.780  0.00  0.00    +0.080 C 
ATOM     10  C   UNL     1       9.997   1.393  23.820  0.00  0.00    +0.156 C 
ATOM     11  O   UNL     1      11.070   1.964  23.670  0.00  0.00    -0.293 OA
ATOM     12  C   UNL     1       9.631   0.781  25.107  0.00  0.00    +0.046 C 
ATOM     13  C   UNL     1       8.633  -0.136  27.689  0.00  0.00    +0.012 C 
ATOM     14  C   UNL     1       7.146  -1.824  23.832  0.00  0.00    +0.002 C 
ATOM     15  C   UNL     1       6.755  -2.700  22.462  0.00  0.00    +0.005 C 
ATOM     16  C   UNL     1       5.297  -3.592  22.257  0.00  0.00    +0.011 C 
ATOM     17  C   UNL     1       4.686  -4.307  23.850  0.00  0.00    +0.018 C 
ATOM     18  C   UNL     1       3.463  -5.217  23.969  0.00  0.00    +0.016 C 
ATOM     19  C   UNL     1       5.983  -4.470  24.243  0.00  0.00    +0.176 C 
ATOM     20  C   UNL     1       4.736  -2.825  24.203  0.00  0.00    +0.057 C 
ATOM     21  C   UNL     1       4.227  -2.427  25.531  0.00  0.00    +0.009 C 
ENDROOT
BRANCH  19  22
ATOM     22  C   UNL     1       6.443  -5.627  23.214  0.00  0.00    +0.174 C 
ATOM     23  O   UNL     1       5.684  -6.478  22.718  0.00  0.00    -0.293 OA
ATOM     24  C   UNL     1       7.906  -5.788  22.874  0.00  0.00    +0.090 C 
ENDBRANCH  19  22
BRANCH  19  25
ATOM     25  O   UNL     1       5.716  -5.618  25.296  0.00  0.00    -0.450 OA
BRANCH  25  26
ATOM     26  C   UNL     1       6.493  -5.849  26.380  0.00  0.00    +0.305 C 
ATOM     27  O   UNL     1       7.709  -5.750  26.414  0.00  0.00    -0.251 OA
ATOM     28  C   UNL     1       5.615  -6.163  27.564  0.00  0.00    +0.136 C 
ENDBRANCH  25  26
ENDBRANCH  19  25
TORSDOF 3
ENDMDL
MODEL 6
REMARK VINA RESULT:      -6.2      3.356      7.538
REMARK  Name = 
REMARK  8 active torsions:
REMARK  status: ('A' for Active; 'I' for Inactive)
REMARK    1  A    between atoms: C_5  and  O_6
REMARK    2  A    between atoms: C_5  and  C_10
REMARK    3  A    between atoms: O_6  and  C_7
REMARK    4  A    between atoms: C_7  and  C_8
REMARK    5  A    between atoms: C_10  and  C_11
REMARK    6  A    between atoms: C_13  and  C_14
REMARK    7  A    between atoms: C_22  and  C_24
REMARK    8  A    between atoms: C_31  and  C_32
REMARK                            x       y       z     vdW  Elec       q    Type
REMARK                         _______ _______ _______ _____ _____    ______ ____
ROOT
ATOM      1  C   UNL     1       5.070  -5.289  27.168  0.00  0.00    +0.003 C 
ATOM      2  C   UNL     1       6.162  -4.710  25.838  0.00  0.00    -0.003 C 
ATOM      3  C   UNL     1       7.599  -5.107  26.164  0.00  0.00    +0.011 C 
ATOM      4  C   UNL     1       8.540  -4.883  24.975  0.00  0.00    +0.013 C 
ATOM      5  C   UNL     1       8.509  -3.431  24.485  0.00  0.00    -0.057 C 
ATOM      6  C   UNL     1       7.116  -2.747  24.288  0.00  0.00    -0.007 C 
ATOM      7  C   UNL     1       6.607  -3.219  22.908  0.00  0.00    +0.016 C 
ATOM      8  C   UNL     1       7.221  -1.166  24.242  0.00  0.00    +0.019 C 
ATOM      9  C   UNL     1       8.616  -0.567  24.349  0.00  0.00    +0.080 C 
ATOM     10  C   UNL     1       9.584  -1.430  23.614  0.00  0.00    +0.156 C 
ATOM     11  O   UNL     1      10.326  -1.032  22.724  0.00  0.00    -0.293 OA
ATOM     12  C   UNL     1       9.647  -2.819  24.097  0.00  0.00    +0.046 C 
ATOM     13  C   UNL     1       9.924  -5.416  25.394  0.00  0.00    +0.012 C 
ATOM     14  C   UNL     1       6.086  -3.135  25.441  0.00  0.00    +0.002 C 
ATOM     15  C   UNL     1       4.555  -2.487  25.257  0.00  0.00    +0.005 C 
ATOM     16  C   UNL     1       3.245  -2.759  26.340  0.00  0.00    +0.011 C 
ATOM     17  C   UNL     1       3.301  -4.446  27.097  0.00  0.00    +0.018 C 
ATOM     18  C   UNL     1       2.226  -5.004  28.030  0.00  0.00    +0.016 C 
ATOM     19  C   UNL     1       3.829  -4.922  25.931  0.00  0.00    +0.176 C 
ATOM     20  C   UNL     1       4.658  -3.897  27.522  0.00  0.00    +0.057 C 
ATOM     21  C   UNL     1       5.481  -4.739  28.413  0.00  0.00    +0.009 C 
ENDROOT
BRANCH  19  22
ATOM     22  C   UNL     1       2.553  -4.753  24.957  0.00  0.00    +0.174 C 
ATOM     23  O   UNL     1       1.370  -4.714  25.337  0.00  0.00    -0.293 OA
ATOM     24  C   UNL     1       2.751  -4.733  23.459  0.00  0.00    +0.090 C 
ENDBRANCH  19  22
BRANCH  19  25
ATOM     25  O   UNL     1       3.387  -6.426  26.126  0.00  0.00    -0.450 OA
BRANCH  25  26
ATOM     26  C   UNL     1       3.527  -7.385  25.182  0.00  0.00    +0.305 C 
ATOM     27  O   UNL     1       4.515  -7.556  24.485  0.00  0.00    -0.251 OA
ATOM     28  C   UNL     1       2.305  -8.268  25.185  0.00  0.00    +0.136 C 
ENDBRANCH  25  26
ENDBRANCH  19  25
TORSDOF 3
ENDMDL
MODEL 7
REMARK VINA RESULT:      -6.2      2.161      6.802
REMARK  Name = 
REMARK  8 active torsions:
REMARK  status: ('A' for Active; 'I' for Inactive)
REMARK    1  A    between atoms: C_5  and  O_6
REMARK    2  A    between atoms: C_5  and  C_10
REMARK    3  A    between atoms: O_6  and  C_7
REMARK    4  A    between atoms: C_7  and  C_8
REMARK    5  A    between atoms: C_10  and  C_11
REMARK    6  A    between atoms: C_13  and  C_14
REMARK    7  A    between atoms: C_22  and  C_24
REMARK    8  A    between atoms: C_31  and  C_32
REMARK                            x       y       z     vdW  Elec       q    Type
REMARK                         _______ _______ _______ _____ _____    ______ ____
ROOT
ATOM      1  C   UNL     1       5.411  -3.747  24.877  0.00  0.00    +0.003 C 
ATOM      2  C   UNL     1       6.309  -2.271  25.436  0.00  0.00    -0.003 C 
ATOM      3  C   UNL     1       5.372  -1.402  26.270  0.00  0.00    +0.011 C 
ATOM      4  C   UNL     1       6.122  -0.274  26.988  0.00  0.00    +0.013 C 
ATOM      5  C   UNL     1       6.901   0.610  26.008  0.00  0.00    -0.057 C 
ATOM      6  C   UNL     1       7.771  -0.090  24.913  0.00  0.00    -0.007 C 
ATOM      7  C   UNL     1       9.094  -0.477  25.610  0.00  0.00    +0.016 C 
ATOM      8  C   UNL     1       8.131   0.883  23.714  0.00  0.00    +0.019 C 
ATOM      9  C   UNL     1       7.632   2.316  23.821  0.00  0.00    +0.080 C 
ATOM     10  C   UNL     1       7.719   2.768  25.240  0.00  0.00    +0.156 C 
ATOM     11  O   UNL     1       8.318   3.770  25.609  0.00  0.00    -0.293 OA
ATOM     12  C   UNL     1       6.947   1.947  26.186  0.00  0.00    +0.046 C 
ATOM     13  C   UNL     1       5.091   0.457  27.870  0.00  0.00    +0.012 C 
ATOM     14  C   UNL     1       7.051  -1.373  24.300  0.00  0.00    +0.002 C 
ATOM     15  C   UNL     1       7.955  -2.208  23.167  0.00  0.00    +0.005 C 
ATOM     16  C   UNL     1       7.432  -3.637  22.363  0.00  0.00    +0.011 C 
ATOM     17  C   UNL     1       6.350  -4.687  23.436  0.00  0.00    +0.018 C 
ATOM     18  C   UNL     1       5.805  -6.056  23.027  0.00  0.00    +0.016 C 
ATOM     19  C   UNL     1       7.080  -4.285  24.518  0.00  0.00    +0.176 C 
ATOM     20  C   UNL     1       5.571  -3.377  23.438  0.00  0.00    +0.057 C 
ATOM     21  C   UNL     1       4.264  -3.368  24.128  0.00  0.00    +0.009 C 
ENDROOT
BRANCH  19  22
ATOM     22  C   UNL     1       8.483  -5.017  24.196  0.00  0.00    +0.174 C 
ATOM     23  O   UNL     1       8.614  -6.003  23.450  0.00  0.00    -0.293 OA
ATOM     24  C   UNL     1       9.741  -4.569  24.903  0.00  0.00    +0.090 C 
ENDBRANCH  19  22
BRANCH  19  25
ATOM     25  O   UNL     1       6.735  -5.518  25.444  0.00  0.00    -0.450 OA
BRANCH  25  26
ATOM     26  C   UNL     1       6.738  -5.475  26.796  0.00  0.00    +0.305 C 
ATOM     27  O   UNL     1       7.568  -4.902  27.485  0.00  0.00    -0.251 OA
ATOM     28  C   UNL     1       5.507  -6.170  27.320  0.00  0.00    +0.136 C 
ENDBRANCH  25  26
ENDBRANCH  19  25
TORSDOF 3
ENDMDL
MODEL 8
REMARK VINA RESULT:      -6.1      2.220      3.310
REMARK  Name = 
REMARK  8 active torsions:
REMARK  status: ('A' for Active; 'I' for Inactive)
REMARK    1  A    between atoms: C_5  and  O_6
REMARK    2  A    between atoms: C_5  and  C_10
REMARK    3  A    between atoms: O_6  and  C_7
REMARK    4  A    between atoms: C_7  and  C_8
REMARK    5  A    between atoms: C_10  and  C_11
REMARK    6  A    between atoms: C_13  and  C_14
REMARK    7  A    between atoms: C_22  and  C_24
REMARK    8  A    between atoms: C_31  and  C_32
REMARK                            x       y       z     vdW  Elec       q    Type
REMARK                         _______ _______ _______ _____ _____    ______ ____
ROOT
ATOM      1  C   UNL     1       8.076  -0.210  25.734  0.00  0.00    +0.003 C 
ATOM      2  C   UNL     1       6.716  -1.301  25.227  0.00  0.00    -0.003 C 
ATOM      3  C   UNL     1       5.618  -1.254  26.285  0.00  0.00    +0.011 C 
ATOM      4  C   UNL     1       4.333  -1.943  25.810  0.00  0.00    +0.013 C 
ATOM      5  C   UNL     1       4.583  -3.397  25.396  0.00  0.00    -0.057 C 
ATOM      6  C   UNL     1       5.807  -3.703  24.472  0.00  0.00    -0.007 C 
ATOM      7  C   UNL     1       5.342  -3.378  23.036  0.00  0.00    +0.016 C 
ATOM      8  C   UNL     1       6.221  -5.234  24.504  0.00  0.00    +0.019 C 
ATOM      9  C   UNL     1       5.370  -6.156  25.365  0.00  0.00    +0.080 C 
ATOM     10  C   UNL     1       3.941  -5.741  25.275  0.00  0.00    +0.156 C 
ATOM     11  O   UNL     1       3.026  -6.484  24.943  0.00  0.00    -0.293 OA
ATOM     12  C   UNL     1       3.684  -4.356  25.702  0.00  0.00    +0.046 C 
ATOM     13  C   UNL     1       3.280  -1.736  26.916  0.00  0.00    +0.012 C 
ATOM     14  C   UNL     1       7.089  -2.843  24.866  0.00  0.00    +0.002 C 
ATOM     15  C   UNL     1       8.418  -3.074  23.877  0.00  0.00    +0.005 C 
ATOM     16  C   UNL     1       9.924  -2.261  24.060  0.00  0.00    +0.011 C 
ATOM     17  C   UNL     1       9.715  -0.541  24.709  0.00  0.00    +0.018 C 
ATOM     18  C   UNL     1      10.863   0.452  24.894  0.00  0.00    +0.016 C 
ATOM     19  C   UNL     1       8.539  -0.453  24.021  0.00  0.00    +0.176 C 
ATOM     20  C   UNL     1       9.042  -1.347  25.814  0.00  0.00    +0.057 C 
ATOM     21  C   UNL     1       8.575  -0.607  27.004  0.00  0.00    +0.009 C 
ENDROOT
BRANCH  19  22
ATOM     22  C   UNL     1       9.100  -0.449  22.507  0.00  0.00    +0.174 C 
ATOM     23  O   UNL     1      10.109   0.170  22.126  0.00  0.00    -0.293 OA
ATOM     24  C   UNL     1       8.325  -1.155  21.419  0.00  0.00    +0.090 C 
ENDBRANCH  19  22
BRANCH  19  25
ATOM     25  O   UNL     1       8.494   1.124  23.929  0.00  0.00    -0.450 OA
BRANCH  25  26
ATOM     26  C   UNL     1       7.536   1.818  23.272  0.00  0.00    +0.305 C 
ATOM     27  O   UNL     1       6.360   1.500  23.191  0.00  0.00    -0.251 OA
ATOM     28  C   UNL     1       8.130   3.093  22.728  0.00  0.00    +0.136 C 
ENDBRANCH  25  26
ENDBRANCH  19  25
TORSDOF 3
ENDMDL
MODEL 9
REMARK VINA RESULT:      -6.0      2.278      6.758
REMARK  Name = 
REMARK  8 active torsions:
REMARK  status: ('A' for Active; 'I' for Inactive)
REMARK    1  A    between atoms: C_5  and  O_6
REMARK    2  A    between atoms: C_5  and  C_10
REMARK    3  A    between atoms: O_6  and  C_7
REMARK    4  A    between atoms: C_7  and  C_8
REMARK    5  A    between atoms: C_10  and  C_11
REMARK    6  A    between atoms: C_13  and  C_14
REMARK    7  A    between atoms: C_22  and  C_24
REMARK    8  A    between atoms: C_31  and  C_32
REMARK                            x       y       z     vdW  Elec       q    Type
REMARK                         _______ _______ _______ _____ _____    ______ ____
ROOT
ATOM      1  C   UNL     1       8.184   0.391  22.123  0.00  0.00    +0.003 C 
ATOM      2  C   UNL     1       7.313   1.551  23.217  0.00  0.00    -0.003 C 
ATOM      3  C   UNL     1       6.330   2.374  22.391  0.00  0.00    +0.011 C 
ATOM      4  C   UNL     1       5.379   3.189  23.275  0.00  0.00    +0.013 C 
ATOM      5  C   UNL     1       6.138   4.112  24.234  0.00  0.00    -0.057 C 
ATOM      6  C   UNL     1       7.342   3.515  25.035  0.00  0.00    -0.007 C 
ATOM      7  C   UNL     1       6.721   2.778  26.241  0.00  0.00    +0.016 C 
ATOM      8  C   UNL     1       8.304   4.639  25.606  0.00  0.00    +0.019 C 
ATOM      9  C   UNL     1       7.906   6.083  25.339  0.00  0.00    +0.080 C 
ATOM     10  C   UNL     1       6.423   6.214  25.425  0.00  0.00    +0.156 C 
ATOM     11  O   UNL     1       5.842   7.005  26.157  0.00  0.00    -0.293 OA
ATOM     12  C   UNL     1       5.683   5.357  24.485  0.00  0.00    +0.046 C 
ATOM     13  C   UNL     1       4.379   3.887  22.331  0.00  0.00    +0.012 C 
ATOM     14  C   UNL     1       8.222   2.524  24.150  0.00  0.00    +0.002 C 
ATOM     15  C   UNL     1       9.492   1.800  24.964  0.00  0.00    +0.005 C 
ATOM     16  C   UNL     1      10.586   0.674  24.260  0.00  0.00    +0.011 C 
ATOM     17  C   UNL     1       9.776  -0.377  22.971  0.00  0.00    +0.018 C 
ATOM     18  C   UNL     1      10.472  -1.522  22.235  0.00  0.00    +0.016 C 
ATOM     19  C   UNL     1       8.622  -0.333  23.700  0.00  0.00    +0.176 C 
ATOM     20  C   UNL     1       9.510   1.016  22.413  0.00  0.00    +0.057 C 
ATOM     21  C   UNL     1       8.855   1.103  21.091  0.00  0.00    +0.009 C 
ENDROOT
BRANCH  19  22
ATOM     22  C   UNL     1       9.068  -1.208  24.982  0.00  0.00    +0.174 C 
ATOM     23  O   UNL     1       9.820  -2.198  24.938  0.00  0.00    -0.293 OA
ATOM     24  C   UNL     1       8.480  -0.901  26.340  0.00  0.00    +0.090 C 
ENDBRANCH  19  22
BRANCH  19  25
ATOM     25  O   UNL     1       7.981  -1.654  23.116  0.00  0.00    -0.450 OA
BRANCH  25  26
ATOM     26  C   UNL     1       6.823  -2.196  23.559  0.00  0.00    +0.305 C 
ATOM     27  O   UNL     1       5.858  -1.569  23.967  0.00  0.00    -0.251 OA
ATOM     28  C   UNL     1       6.875  -3.692  23.386  0.00  0.00    +0.136 C 
ENDBRANCH  25  26
ENDBRANCH  19  25
TORSDOF 3
ENDMDL
