MODEL 1
REMARK VINA RESULT:      -7.9      0.000      0.000
REMARK  Name = 
REMARK  13 active torsions:
REMARK  status: ('A' for Active; 'I' for Inactive)
REMARK    1  A    between atoms: N_10  and  C_11
REMARK    2  A    between atoms: C_14  and  C_16
REMARK    3  A    between atoms: C_16  and  O_17
REMARK    4  A    between atoms: O_17  and  P_18
REMARK    5  A    between atoms: P_18  and  O_19
REMARK    6  A    between atoms: P_18  and  O_21
REMARK    7  A    between atoms: O_21  and  C_22
REMARK    8  A    between atoms: C_24  and  O_26
REMARK    9  A    between atoms: C_27  and  C_29
REMARK   10  A    between atoms: C_29  and  O_30
REMARK   11  A    between atoms: C_32  and  N_34
REMARK   12  A    between atoms: C_42  and  O_44
REMARK   13  A    between atoms: C_45  and  O_47
REMARK                            x       y       z     vdW  Elec       q    Type
REMARK                         _______ _______ _______ _____ _____    ______ ____
ROOT
ATOM      1  P   UNL     1       8.606  -3.491  24.184  0.00  0.00    +0.475 P 
ATOM      2  O   UNL     1       9.946  -4.157  24.474  0.00  0.00    -0.227 OA
ENDROOT
BRANCH   1   3
ATOM      3  O   UNL     1       8.844  -2.672  22.796  0.00  0.00    -0.302 OA
ATOM      4  H   UNL     1       8.242  -3.064  22.130  0.00  0.00    +0.222 HD
ENDBRANCH   1   3
BRANCH   1   5
ATOM      5  O   UNL     1       9.106  -2.083  25.057  0.00  0.00    -0.284 OA
BRANCH   5   6
ATOM      6  C   UNL     1       8.072  -1.118  25.241  0.00  0.00    +0.206 C 
BRANCH   6  10
ATOM      7  C   UNL     1       8.355   1.081  22.330  0.00  0.00    +0.253 C 
ATOM      8  C   UNL     1       9.830   0.751  22.607  0.00  0.00    +0.195 C 
ATOM      9  C   UNL     1       9.859   0.266  24.058  0.00  0.00    +0.178 C 
ATOM     10  C   UNL     1       8.384   0.149  24.447  0.00  0.00    +0.178 C 
ATOM     11  O   UNL     1       7.639   0.171  23.215  0.00  0.00    -0.346 OA
BRANCH   7  19
ATOM     12  N   UNL     1       7.415   6.957  23.525  0.00  0.00    -0.341 N 
ATOM     13  H   UNL     1       6.605   6.929  22.916  0.00  0.00    +0.144 HD
ATOM     14  H   UNL     1       7.978   7.797  23.524  0.00  0.00    +0.144 HD
ATOM     15  C   UNL     1       8.193   5.808  23.462  0.00  0.00    +0.147 A 
ATOM     16  C   UNL     1       7.709   4.571  23.002  0.00  0.00    +0.147 A 
ATOM     17  N   UNL     1       6.484   4.179  22.507  0.00  0.00    -0.231 NA
ATOM     18  C   UNL     1       6.629   2.901  22.231  0.00  0.00    +0.203 A 
ATOM     19  N   UNL     1       7.881   2.433  22.559  0.00  0.00    -0.286 N 
ATOM     20  C   UNL     1       8.603   3.510  23.001  0.00  0.00    +0.167 A 
ATOM     21  N   UNL     1       9.895   3.550  23.361  0.00  0.00    -0.216 NA
ATOM     22  C   UNL     1      10.247   4.781  23.781  0.00  0.00    +0.225 A 
ATOM     23  N   UNL     1       9.486   5.894  23.844  0.00  0.00    -0.219 NA
ENDBRANCH   7  19
BRANCH   8  24
ATOM     24  O   UNL     1      10.250  -0.340  21.754  0.00  0.00    -0.385 OA
ATOM     25  H   UNL     1      10.887   0.005  21.103  0.00  0.00    +0.210 HD
ENDBRANCH   8  24
BRANCH   9  26
ATOM     26  O   UNL     1      10.536   1.192  24.897  0.00  0.00    -0.386 OA
ATOM     27  H   UNL     1      11.441   0.856  25.037  0.00  0.00    +0.210 HD
ENDBRANCH   9  26
ENDBRANCH   6  10
ENDBRANCH   5   6
ENDBRANCH   1   5
BRANCH   1  28
ATOM     28  O   UNL     1       8.105  -4.898  23.311  0.00  0.00    -0.276 OA
BRANCH  28  29
ATOM     29  C   UNL     1       6.926  -5.496  23.900  0.00  0.00    +0.211 C 
ATOM     30  C   UNL     1       6.232  -4.563  24.910  0.00  0.00    +0.255 C 
ATOM     31  O   UNL     1       5.122  -3.928  24.240  0.00  0.00    -0.346 OA
ATOM     32  C   UNL     1       5.083  -4.382  22.873  0.00  0.00    +0.177 C 
ATOM     33  C   UNL     1       5.847  -5.704  22.841  0.00  0.00    +0.179 C 
BRANCH  30  34
ATOM     34  N   UNL     1       5.753  -5.276  26.108  0.00  0.00    -0.271 N 
ATOM     35  C   UNL     1       6.720  -5.717  27.009  0.00  0.00    +0.331 A 
ATOM     36  O   UNL     1       7.926  -5.567  26.844  0.00  0.00    -0.246 OA
ATOM     37  N   UNL     1       6.249  -6.382  28.111  0.00  0.00    -0.275 N 
ATOM     38  H   UNL     1       6.935  -6.699  28.778  0.00  0.00    +0.173 HD
ATOM     39  C   UNL     1       4.949  -6.719  28.355  0.00  0.00    +0.254 A 
ATOM     40  O   UNL     1       4.594  -7.357  29.339  0.00  0.00    -0.268 OA
ATOM     41  C   UNL     1       3.982  -6.286  27.338  0.00  0.00    +0.088 A 
ATOM     42  C   UNL     1       4.420  -5.592  26.283  0.00  0.00    +0.098 A 
ENDBRANCH  30  34
BRANCH  33  43
ATOM     43  O   UNL     1       4.985  -6.788  23.190  0.00  0.00    -0.386 OA
ATOM     44  H   UNL     1       4.954  -7.421  22.448  0.00  0.00    +0.210 HD
ENDBRANCH  33  43
BRANCH  32  45
ATOM     45  C   UNL     1       5.730  -3.327  21.957  0.00  0.00    +0.190 C 
BRANCH  45  46
ATOM     46  O   UNL     1       5.823  -2.049  22.578  0.00  0.00    -0.392 OA
ATOM     47  H   UNL     1       5.015  -1.545  22.387  0.00  0.00    +0.210 HD
ENDBRANCH  45  46
ENDBRANCH  32  45
ENDBRANCH  28  29
ENDBRANCH   1  28
TORSDOF 13
ENDMDL
MODEL 2
REMARK VINA RESULT:      -7.9      0.765      1.629
REMARK  Name = 
REMARK  13 active torsions:
REMARK  status: ('A' for Active; 'I' for Inactive)
REMARK    1  A    between atoms: N_10  and  C_11
REMARK    2  A    between atoms: C_14  and  C_16
REMARK    3  A    between atoms: C_16  and  O_17
REMARK    4  A    between atoms: O_17  and  P_18
REMARK    5  A    between atoms: P_18  and  O_19
REMARK    6  A    between atoms: P_18  and  O_21
REMARK    7  A    between atoms: O_21  and  C_22
REMARK    8  A    between atoms: C_24  and  O_26
REMARK    9  A    between atoms: C_27  and  C_29
REMARK   10  A    between atoms: C_29  and  O_30
REMARK   11  A    between atoms: C_32  and  N_34
REMARK   12  A    between atoms: C_42  and  O_44
REMARK   13  A    between atoms: C_45  and  O_47
REMARK                            x       y       z     vdW  Elec       q    Type
REMARK                         _______ _______ _______ _____ _____    ______ ____
ROOT
ATOM      1  P   UNL     1       8.700  -3.430  24.175  0.00  0.00    +0.475 P 
ATOM      2  O   UNL     1      10.028  -4.135  24.428  0.00  0.00    -0.227 OA
ENDROOT
BRANCH   1   3
ATOM      3  O   UNL     1       8.938  -2.578  22.806  0.00  0.00    -0.302 OA
ATOM      4  H   UNL     1       9.240  -1.687  23.077  0.00  0.00    +0.222 HD
ENDBRANCH   1   3
BRANCH   1   5
ATOM      5  O   UNL     1       9.244  -2.058  25.078  0.00  0.00    -0.284 OA
BRANCH   5   6
ATOM      6  C   UNL     1       8.238  -1.071  25.294  0.00  0.00    +0.206 C 
BRANCH   6  10
ATOM      7  C   UNL     1       8.441   1.241  22.465  0.00  0.00    +0.253 C 
ATOM      8  C   UNL     1       9.904   0.789  22.594  0.00  0.00    +0.195 C 
ATOM      9  C   UNL     1      10.019   0.232  24.014  0.00  0.00    +0.178 C 
ATOM     10  C   UNL     1       8.579   0.206  24.529  0.00  0.00    +0.178 C 
ATOM     11  O   UNL     1       7.734   0.345  23.370  0.00  0.00    -0.346 OA
BRANCH   7  19
ATOM     12  N   UNL     1       5.969   6.650  23.680  0.00  0.00    -0.341 N 
ATOM     13  H   UNL     1       6.782   6.870  24.245  0.00  0.00    +0.144 HD
ATOM     14  H   UNL     1       5.068   6.981  23.998  0.00  0.00    +0.144 HD
ATOM     15  C   UNL     1       5.923   5.322  23.274  0.00  0.00    +0.147 A 
ATOM     16  C   UNL     1       7.054   4.489  23.223  0.00  0.00    +0.147 A 
ATOM     17  N   UNL     1       8.377   4.698  23.548  0.00  0.00    -0.231 NA
ATOM     18  C   UNL     1       8.967   3.550  23.301  0.00  0.00    +0.203 A 
ATOM     19  N   UNL     1       8.097   2.612  22.792  0.00  0.00    -0.286 N 
ATOM     20  C   UNL     1       6.853   3.186  22.792  0.00  0.00    +0.167 A 
ATOM     21  N   UNL     1       5.682   2.626  22.451  0.00  0.00    -0.216 NA
ATOM     22  C   UNL     1       4.672   3.513  22.540  0.00  0.00    +0.225 A 
ATOM     23  N   UNL     1       4.723   4.804  22.931  0.00  0.00    -0.219 NA
ENDBRANCH   7  19
BRANCH   8  24
ATOM     24  O   UNL     1      10.161  -0.287  21.661  0.00  0.00    -0.385 OA
ATOM     25  H   UNL     1      10.444   0.099  20.814  0.00  0.00    +0.210 HD
ENDBRANCH   8  24
BRANCH   9  26
ATOM     26  O   UNL     1      10.838   1.063  24.827  0.00  0.00    -0.386 OA
ATOM     27  H   UNL     1      10.424   1.946  24.857  0.00  0.00    +0.210 HD
ENDBRANCH   9  26
ENDBRANCH   6  10
ENDBRANCH   5   6
ENDBRANCH   1   5
BRANCH   1  28
ATOM     28  O   UNL     1       8.155  -4.801  23.271  0.00  0.00    -0.276 OA
BRANCH  28  29
ATOM     29  C   UNL     1       7.009  -5.426  23.894  0.00  0.00    +0.211 C 
ATOM     30  C   UNL     1       6.339  -4.520  24.944  0.00  0.00    +0.255 C 
ATOM     31  O   UNL     1       5.195  -3.894  24.325  0.00  0.00    -0.346 OA
ATOM     32  C   UNL     1       5.111  -4.329  22.954  0.00  0.00    +0.177 C 
ATOM     33  C   UNL     1       5.894  -5.637  22.874  0.00  0.00    +0.179 C 
BRANCH  30  34
ATOM     34  N   UNL     1       5.917  -5.257  26.148  0.00  0.00    -0.271 N 
ATOM     35  C   UNL     1       6.869  -5.426  27.151  0.00  0.00    +0.331 A 
ATOM     36  O   UNL     1       8.024  -5.022  27.071  0.00  0.00    -0.246 OA
ATOM     37  N   UNL     1       6.453  -6.120  28.258  0.00  0.00    -0.275 N 
ATOM     38  H   UNL     1       7.128  -6.242  28.997  0.00  0.00    +0.173 HD
ATOM     39  C   UNL     1       5.239  -6.723  28.422  0.00  0.00    +0.254 A 
ATOM     40  O   UNL     1       4.941  -7.372  29.418  0.00  0.00    -0.268 OA
ATOM     41  C   UNL     1       4.300  -6.568  27.304  0.00  0.00    +0.088 A 
ATOM     42  C   UNL     1       4.674  -5.851  26.240  0.00  0.00    +0.098 A 
ENDBRANCH  30  34
BRANCH  33  43
ATOM     43  O   UNL     1       5.063  -6.740  23.239  0.00  0.00    -0.386 OA
ATOM     44  H   UNL     1       4.915  -6.722  24.203  0.00  0.00    +0.210 HD
ENDBRANCH  33  43
BRANCH  32  45
ATOM     45  C   UNL     1       5.707  -3.250  22.030  0.00  0.00    +0.190 C 
BRANCH  45  46
ATOM     46  O   UNL     1       5.856  -1.993  22.684  0.00  0.00    -0.392 OA
ATOM     47  H   UNL     1       6.798  -1.763  22.715  0.00  0.00    +0.210 HD
ENDBRANCH  45  46
ENDBRANCH  32  45
ENDBRANCH  28  29
ENDBRANCH   1  28
TORSDOF 13
ENDMDL
MODEL 3
REMARK VINA RESULT:      -7.8      2.489      9.427
REMARK  Name = 
REMARK  13 active torsions:
REMARK  status: ('A' for Active; 'I' for Inactive)
REMARK    1  A    between atoms: N_10  and  C_11
REMARK    2  A    between atoms: C_14  and  C_16
REMARK    3  A    between atoms: C_16  and  O_17
REMARK    4  A    between atoms: O_17  and  P_18
REMARK    5  A    between atoms: P_18  and  O_19
REMARK    6  A    between atoms: P_18  and  O_21
REMARK    7  A    between atoms: O_21  and  C_22
REMARK    8  A    between atoms: C_24  and  O_26
REMARK    9  A    between atoms: C_27  and  C_29
REMARK   10  A    between atoms: C_29  and  O_30
REMARK   11  A    between atoms: C_32  and  N_34
REMARK   12  A    between atoms: C_42  and  O_44
REMARK   13  A    between atoms: C_45  and  O_47
REMARK                            x       y       z     vdW  Elec       q    Type
REMARK                         _______ _______ _______ _____ _____    ______ ____
ROOT
ATOM      1  P   UNL     1       8.086   0.260  25.077  0.00  0.00    +0.475 P 
ATOM      2  O   UNL     1       8.574  -0.172  23.699  0.00  0.00    -0.227 OA
ENDROOT
BRANCH   1   3
ATOM      3  O   UNL     1       9.081   1.477  25.507  0.00  0.00    -0.302 OA
ATOM      4  H   UNL     1       9.862   1.066  25.931  0.00  0.00    +0.222 HD
ENDBRANCH   1   3
BRANCH   1   5
ATOM      5  O   UNL     1       9.182  -0.851  25.825  0.00  0.00    -0.284 OA
BRANCH   5   6
ATOM      6  C   UNL     1       8.559  -1.752  26.739  0.00  0.00    +0.206 C 
BRANCH   6  10
ATOM      7  C   UNL     1       7.938  -5.310  26.156  0.00  0.00    +0.253 C 
ATOM      8  C   UNL     1       9.105  -5.043  25.193  0.00  0.00    +0.195 C 
ATOM      9  C   UNL     1       9.109  -3.527  24.991  0.00  0.00    +0.178 C 
ATOM     10  C   UNL     1       8.090  -3.006  26.006  0.00  0.00    +0.178 C 
ATOM     11  O   UNL     1       7.864  -4.082  26.937  0.00  0.00    -0.346 OA
BRANCH   7  19
ATOM     12  N   UNL     1       2.940  -6.426  22.897  0.00  0.00    -0.341 N 
ATOM     13  H   UNL     1       2.573  -6.954  23.681  0.00  0.00    +0.144 HD
ATOM     14  H   UNL     1       2.743  -6.764  21.965  0.00  0.00    +0.144 HD
ATOM     15  C   UNL     1       4.274  -6.067  23.049  0.00  0.00    +0.147 A 
ATOM     16  C   UNL     1       4.921  -6.005  24.296  0.00  0.00    +0.147 A 
ATOM     17  N   UNL     1       4.494  -6.277  25.578  0.00  0.00    -0.231 NA
ATOM     18  C   UNL     1       5.545  -6.048  26.334  0.00  0.00    +0.203 A 
ATOM     19  N   UNL     1       6.626  -5.602  25.609  0.00  0.00    -0.286 N 
ATOM     20  C   UNL     1       6.255  -5.626  24.291  0.00  0.00    +0.167 A 
ATOM     21  N   UNL     1       7.005  -5.346  23.214  0.00  0.00    -0.216 NA
ATOM     22  C   UNL     1       6.283  -5.439  22.079  0.00  0.00    +0.225 A 
ATOM     23  N   UNL     1       4.986  -5.784  21.936  0.00  0.00    -0.219 NA
ENDBRANCH   7  19
BRANCH   8  24
ATOM     24  O   UNL     1      10.350  -5.422  25.826  0.00  0.00    -0.385 OA
ATOM     25  H   UNL     1      10.202  -5.486  26.785  0.00  0.00    +0.210 HD
ENDBRANCH   8  24
BRANCH   9  26
ATOM     26  O   UNL     1       8.729  -3.183  23.665  0.00  0.00    -0.386 OA
ATOM     27  H   UNL     1       7.757  -3.107  23.648  0.00  0.00    +0.210 HD
ENDBRANCH   9  26
ENDBRANCH   6  10
ENDBRANCH   5   6
ENDBRANCH   1   5
BRANCH   1  28
ATOM     28  O   UNL     1       6.989   1.371  24.331  0.00  0.00    -0.276 OA
BRANCH  28  29
ATOM     29  C   UNL     1       7.441   2.739  24.474  0.00  0.00    +0.211 C 
ATOM     30  C   UNL     1       7.933   3.340  23.144  0.00  0.00    +0.255 C 
ATOM     31  O   UNL     1       6.864   4.141  22.596  0.00  0.00    -0.346 OA
ATOM     32  C   UNL     1       5.728   4.068  23.479  0.00  0.00    +0.177 C 
ATOM     33  C   UNL     1       6.274   3.650  24.843  0.00  0.00    +0.179 C 
BRANCH  30  34
ATOM     34  N   UNL     1       9.144   4.163  23.306  0.00  0.00    -0.271 N 
ATOM     35  C   UNL     1      10.371   3.511  23.199  0.00  0.00    +0.331 A 
ATOM     36  O   UNL     1      10.487   2.305  23.006  0.00  0.00    -0.246 OA
ATOM     37  N   UNL     1      11.482   4.298  23.358  0.00  0.00    -0.275 N 
ATOM     38  H   UNL     1      12.377   3.842  23.273  0.00  0.00    +0.173 HD
ATOM     39  C   UNL     1      11.491   5.622  23.692  0.00  0.00    +0.254 A 
ATOM     40  O   UNL     1      12.520   6.263  23.868  0.00  0.00    -0.268 OA
ATOM     41  C   UNL     1      10.169   6.241  23.858  0.00  0.00    +0.088 A 
ATOM     42  C   UNL     1       9.077   5.498  23.655  0.00  0.00    +0.098 A 
ENDBRANCH  30  34
BRANCH  33  43
ATOM     43  O   UNL     1       6.724   4.793  25.572  0.00  0.00    -0.386 OA
ATOM     44  H   UNL     1       6.628   5.586  25.011  0.00  0.00    +0.210 HD
ENDBRANCH  33  43
BRANCH  32  45
ATOM     45  C   UNL     1       4.713   3.046  22.934  0.00  0.00    +0.190 C 
BRANCH  45  46
ATOM     46  O   UNL     1       4.138   2.246  23.961  0.00  0.00    -0.392 OA
ATOM     47  H   UNL     1       3.617   1.534  23.554  0.00  0.00    +0.210 HD
ENDBRANCH  45  46
ENDBRANCH  32  45
ENDBRANCH  28  29
ENDBRANCH   1  28
TORSDOF 13
ENDMDL
MODEL 4
REMARK VINA RESULT:      -7.7      2.794      9.254
REMARK  Name = 
REMARK  13 active torsions:
REMARK  status: ('A' for Active; 'I' for Inactive)
REMARK    1  A    between atoms: N_10  and  C_11
REMARK    2  A    between atoms: C_14  and  C_16
REMARK    3  A    between atoms: C_16  and  O_17
REMARK    4  A    between atoms: O_17  and  P_18
REMARK    5  A    between atoms: P_18  and  O_19
REMARK    6  A    between atoms: P_18  and  O_21
REMARK    7  A    between atoms: O_21  and  C_22
REMARK    8  A    between atoms: C_24  and  O_26
REMARK    9  A    between atoms: C_27  and  C_29
REMARK   10  A    between atoms: C_29  and  O_30
REMARK   11  A    between atoms: C_32  and  N_34
REMARK   12  A    between atoms: C_42  and  O_44
REMARK   13  A    between atoms: C_45  and  O_47
REMARK                            x       y       z     vdW  Elec       q    Type
REMARK                         _______ _______ _______ _____ _____    ______ ____
ROOT
ATOM      1  P   UNL     1       7.180   2.162  25.932  0.00  0.00    +0.475 P 
ATOM      2  O   UNL     1       6.853   2.349  27.409  0.00  0.00    -0.227 OA
ENDROOT
BRANCH   1   3
ATOM      3  O   UNL     1       5.900   1.357  25.324  0.00  0.00    -0.302 OA
ATOM      4  H   UNL     1       5.868   0.492  25.781  0.00  0.00    +0.222 HD
ENDBRANCH   1   3
BRANCH   1   5
ATOM      5  O   UNL     1       7.926   0.640  26.278  0.00  0.00    -0.284 OA
BRANCH   5   6
ATOM      6  C   UNL     1       8.843   0.204  25.277  0.00  0.00    +0.206 C 
BRANCH   6  10
ATOM      7  C   UNL     1       8.744  -2.883  23.314  0.00  0.00    +0.253 C 
ATOM      8  C   UNL     1       8.472  -1.825  22.233  0.00  0.00    +0.195 C 
ATOM      9  C   UNL     1       8.004  -0.588  23.002  0.00  0.00    +0.178 C 
ATOM     10  C   UNL     1       8.239  -0.944  24.471  0.00  0.00    +0.178 C 
ATOM     11  O   UNL     1       9.120  -2.084  24.473  0.00  0.00    -0.346 OA
BRANCH   7  19
ATOM     12  N   UNL     1       4.795  -6.719  25.868  0.00  0.00    -0.341 N 
ATOM     13  H   UNL     1       4.091  -6.397  25.212  0.00  0.00    +0.144 HD
ATOM     14  H   UNL     1       4.499  -6.935  26.810  0.00  0.00    +0.144 HD
ATOM     15  C   UNL     1       5.957  -5.959  25.848  0.00  0.00    +0.147 A 
ATOM     16  C   UNL     1       6.335  -5.152  24.760  0.00  0.00    +0.147 A 
ATOM     17  N   UNL     1       5.730  -4.878  23.552  0.00  0.00    -0.231 NA
ATOM     18  C   UNL     1       6.550  -4.046  22.949  0.00  0.00    +0.203 A 
ATOM     19  N   UNL     1       7.680  -3.793  23.692  0.00  0.00    -0.286 N 
ATOM     20  C   UNL     1       7.526  -4.452  24.883  0.00  0.00    +0.167 A 
ATOM     21  N   UNL     1       8.342  -4.439  25.949  0.00  0.00    -0.216 NA
ATOM     22  C   UNL     1       7.880  -5.244  26.927  0.00  0.00    +0.225 A 
ATOM     23  N   UNL     1       6.752  -5.984  26.940  0.00  0.00    -0.219 NA
ENDBRANCH   7  19
BRANCH   8  24
ATOM     24  O   UNL     1       9.708  -1.499  21.553  0.00  0.00    -0.385 OA
ATOM     25  H   UNL     1       9.851  -0.539  21.618  0.00  0.00    +0.210 HD
ENDBRANCH   8  24
BRANCH   9  26
ATOM     26  O   UNL     1       6.630  -0.319  22.755  0.00  0.00    -0.386 OA
ATOM     27  H   UNL     1       6.152  -0.433  23.598  0.00  0.00    +0.210 HD
ENDBRANCH   9  26
ENDBRANCH   6  10
ENDBRANCH   5   6
ENDBRANCH   1   5
BRANCH   1  28
ATOM     28  O   UNL     1       6.434   3.685  25.584  0.00  0.00    -0.276 OA
BRANCH  28  29
ATOM     29  C   UNL     1       7.287   4.519  24.765  0.00  0.00    +0.211 C 
ATOM     30  C   UNL     1       8.142   3.702  23.779  0.00  0.00    +0.255 C 
ATOM     31  O   UNL     1       7.493   3.741  22.490  0.00  0.00    -0.346 OA
ATOM     32  C   UNL     1       6.280   4.509  22.604  0.00  0.00    +0.177 C 
ATOM     33  C   UNL     1       6.449   5.393  23.838  0.00  0.00    +0.179 C 
BRANCH  30  34
ATOM     34  N   UNL     1       9.520   4.210  23.662  0.00  0.00    -0.271 N 
ATOM     35  C   UNL     1      10.478   3.333  23.158  0.00  0.00    +0.331 A 
ATOM     36  O   UNL     1      10.238   2.173  22.837  0.00  0.00    -0.246 OA
ATOM     37  N   UNL     1      11.752   3.829  23.065  0.00  0.00    -0.275 N 
ATOM     38  H   UNL     1      12.454   3.209  22.692  0.00  0.00    +0.173 HD
ATOM     39  C   UNL     1      12.174   5.053  23.496  0.00  0.00    +0.254 A 
ATOM     40  O   UNL     1      13.340   5.424  23.428  0.00  0.00    -0.268 OA
ATOM     41  C   UNL     1      11.134   5.911  24.080  0.00  0.00    +0.088 A 
ATOM     42  C   UNL     1       9.877   5.460  24.130  0.00  0.00    +0.098 A 
ENDBRANCH  30  34
BRANCH  33  43
ATOM     43  O   UNL     1       7.139   6.597  23.500  0.00  0.00    -0.386 OA
ATOM     44  H   UNL     1       6.612   7.361  23.802  0.00  0.00    +0.210 HD
ENDBRANCH  33  43
BRANCH  32  45
ATOM     45  C   UNL     1       5.075   3.560  22.742  0.00  0.00    +0.190 C 
BRANCH  45  46
ATOM     46  O   UNL     1       5.437   2.192  22.576  0.00  0.00    -0.392 OA
ATOM     47  H   UNL     1       4.983   1.838  21.793  0.00  0.00    +0.210 HD
ENDBRANCH  45  46
ENDBRANCH  32  45
ENDBRANCH  28  29
ENDBRANCH   1  28
TORSDOF 13
ENDMDL
MODEL 5
REMARK VINA RESULT:      -7.6      2.793      4.404
REMARK  Name = 
REMARK  13 active torsions:
REMARK  status: ('A' for Active; 'I' for Inactive)
REMARK    1  A    between atoms: N_10  and  C_11
REMARK    2  A    between atoms: C_14  and  C_16
REMARK    3  A    between atoms: C_16  and  O_17
REMARK    4  A    between atoms: O_17  and  P_18
REMARK    5  A    between atoms: P_18  and  O_19
REMARK    6  A    between atoms: P_18  and  O_21
REMARK    7  A    between atoms: O_21  and  C_22
REMARK    8  A    between atoms: C_24  and  O_26
REMARK    9  A    between atoms: C_27  and  C_29
REMARK   10  A    between atoms: C_29  and  O_30
REMARK   11  A    between atoms: C_32  and  N_34
REMARK   12  A    between atoms: C_42  and  O_44
REMARK   13  A    between atoms: C_45  and  O_47
REMARK                            x       y       z     vdW  Elec       q    Type
REMARK                         _______ _______ _______ _____ _____    ______ ____
ROOT
ATOM      1  P   UNL     1       9.667  -0.847  22.845  0.00  0.00    +0.475 P 
ATOM      2  O   UNL     1      10.636  -0.436  23.948  0.00  0.00    -0.227 OA
ENDROOT
BRANCH   1   3
ATOM      3  O   UNL     1      10.531  -1.840  21.884  0.00  0.00    -0.302 OA
ATOM      4  H   UNL     1      10.658  -1.369  21.034  0.00  0.00    +0.222 HD
ENDBRANCH   1   3
BRANCH   1   5
ATOM      5  O   UNL     1      10.189   0.486  21.875  0.00  0.00    -0.284 OA
BRANCH   5   6
ATOM      6  C   UNL     1       9.127   1.328  21.428  0.00  0.00    +0.206 C 
BRANCH   6  10
ATOM      7  C   UNL     1       6.936   3.602  23.277  0.00  0.00    +0.253 C 
ATOM      8  C   UNL     1       8.321   4.049  23.767  0.00  0.00    +0.195 C 
ATOM      9  C   UNL     1       9.248   2.872  23.456  0.00  0.00    +0.178 C 
ATOM     10  C   UNL     1       8.385   1.921  22.624  0.00  0.00    +0.178 C 
ATOM     11  O   UNL     1       7.248   2.689  22.185  0.00  0.00    -0.346 OA
BRANCH   7  19
ATOM     12  N   UNL     1       3.927   1.109  27.922  0.00  0.00    -0.341 N 
ATOM     13  H   UNL     1       3.066   1.226  27.399  0.00  0.00    +0.144 HD
ATOM     14  H   UNL     1       3.895   1.246  28.923  0.00  0.00    +0.144 HD
ATOM     15  C   UNL     1       5.016   1.748  27.343  0.00  0.00    +0.147 A 
ATOM     16  C   UNL     1       5.069   2.109  25.985  0.00  0.00    +0.147 A 
ATOM     17  N   UNL     1       4.161   1.986  24.955  0.00  0.00    -0.231 NA
ATOM     18  C   UNL     1       4.765   2.512  23.913  0.00  0.00    +0.203 A 
ATOM     19  N   UNL     1       6.040   2.939  24.206  0.00  0.00    -0.286 N 
ATOM     20  C   UNL     1       6.225   2.739  25.548  0.00  0.00    +0.167 A 
ATOM     21  N   UNL     1       7.289   3.070  26.297  0.00  0.00    -0.216 NA
ATOM     22  C   UNL     1       7.127   2.677  27.576  0.00  0.00    +0.225 A 
ATOM     23  N   UNL     1       6.068   2.053  28.134  0.00  0.00    -0.219 NA
ENDBRANCH   7  19
BRANCH   8  24
ATOM     24  O   UNL     1       8.762   5.192  22.995  0.00  0.00    -0.385 OA
ATOM     25  H   UNL     1       9.355   4.878  22.291  0.00  0.00    +0.210 HD
ENDBRANCH   8  24
BRANCH   9  26
ATOM     26  O   UNL     1       9.697   2.242  24.648  0.00  0.00    -0.386 OA
ATOM     27  H   UNL     1       9.112   1.480  24.818  0.00  0.00    +0.210 HD
ENDBRANCH   9  26
ENDBRANCH   6  10
ENDBRANCH   5   6
ENDBRANCH   1   5
BRANCH   1  28
ATOM     28  O   UNL     1       9.144  -2.182  23.815  0.00  0.00    -0.276 OA
BRANCH  28  29
ATOM     29  C   UNL     1       7.700  -2.248  23.893  0.00  0.00    +0.211 C 
ATOM     30  C   UNL     1       7.210  -3.365  24.832  0.00  0.00    +0.255 C 
ATOM     31  O   UNL     1       6.881  -2.766  26.103  0.00  0.00    -0.346 OA
ATOM     32  C   UNL     1       7.150  -1.352  26.034  0.00  0.00    +0.177 C 
ATOM     33  C   UNL     1       7.143  -0.989  24.551  0.00  0.00    +0.179 C 
BRANCH  30  34
ATOM     34  N   UNL     1       6.039  -4.084  24.298  0.00  0.00    -0.271 N 
ATOM     35  C   UNL     1       6.284  -5.072  23.347  0.00  0.00    +0.331 A 
ATOM     36  O   UNL     1       7.401  -5.348  22.922  0.00  0.00    -0.246 OA
ATOM     37  N   UNL     1       5.179  -5.722  22.863  0.00  0.00    -0.275 N 
ATOM     38  H   UNL     1       5.340  -6.447  22.181  0.00  0.00    +0.173 HD
ATOM     39  C   UNL     1       3.878  -5.432  23.161  0.00  0.00    +0.254 A 
ATOM     40  O   UNL     1       2.927  -6.020  22.659  0.00  0.00    -0.268 OA
ATOM     41  C   UNL     1       3.678  -4.337  24.119  0.00  0.00    +0.088 A 
ATOM     42  C   UNL     1       4.749  -3.728  24.638  0.00  0.00    +0.098 A 
ENDBRANCH  30  34
BRANCH  33  43
ATOM     43  O   UNL     1       5.811  -0.722  24.108  0.00  0.00    -0.386 OA
ATOM     44  H   UNL     1       5.755   0.205  23.809  0.00  0.00    +0.210 HD
ENDBRANCH  33  43
BRANCH  32  45
ATOM     45  C   UNL     1       8.510  -1.051  26.689  0.00  0.00    +0.190 C 
BRANCH  45  46
ATOM     46  O   UNL     1       9.032   0.218  26.305  0.00  0.00    -0.392 OA
ATOM     47  H   UNL     1       8.668   0.900  26.892  0.00  0.00    +0.210 HD
ENDBRANCH  45  46
ENDBRANCH  32  45
ENDBRANCH  28  29
ENDBRANCH   1  28
TORSDOF 13
ENDMDL
MODEL 6
REMARK VINA RESULT:      -7.6      2.761      9.901
REMARK  Name = 
REMARK  13 active torsions:
REMARK  status: ('A' for Active; 'I' for Inactive)
REMARK    1  A    between atoms: N_10  and  C_11
REMARK    2  A    between atoms: C_14  and  C_16
REMARK    3  A    between atoms: C_16  and  O_17
REMARK    4  A    between atoms: O_17  and  P_18
REMARK    5  A    between atoms: P_18  and  O_19
REMARK    6  A    between atoms: P_18  and  O_21
REMARK    7  A    between atoms: O_21  and  C_22
REMARK    8  A    between atoms: C_24  and  O_26
REMARK    9  A    between atoms: C_27  and  C_29
REMARK   10  A    between atoms: C_29  and  O_30
REMARK   11  A    between atoms: C_32  and  N_34
REMARK   12  A    between atoms: C_42  and  O_44
REMARK   13  A    between atoms: C_45  and  O_47
REMARK                            x       y       z     vdW  Elec       q    Type
REMARK                         _______ _______ _______ _____ _____    ______ ____
ROOT
ATOM      1  P   UNL     1       6.875   1.486  26.114  0.00  0.00    +0.475 P 
ATOM      2  O   UNL     1       6.137   0.698  25.038  0.00  0.00    -0.227 OA
ENDROOT
BRANCH   1   3
ATOM      3  O   UNL     1       8.435   1.466  25.644  0.00  0.00    -0.302 OA
ATOM      4  H   UNL     1       8.500   0.825  24.906  0.00  0.00    +0.222 HD
ENDBRANCH   1   3
BRANCH   1   5
ATOM      5  O   UNL     1       7.162   0.027  26.999  0.00  0.00    -0.284 OA
BRANCH   5   6
ATOM      6  C   UNL     1       8.332  -0.679  26.588  0.00  0.00    +0.206 C 
BRANCH   6  10
ATOM      7  C   UNL     1       8.609  -4.085  25.279  0.00  0.00    +0.253 C 
ATOM      8  C   UNL     1       8.905  -3.251  24.023  0.00  0.00    +0.195 C 
ATOM      9  C   UNL     1       8.336  -1.864  24.329  0.00  0.00    +0.178 C 
ATOM     10  C   UNL     1       7.945  -1.932  25.806  0.00  0.00    +0.178 C 
ATOM     11  O   UNL     1       8.609  -3.091  26.345  0.00  0.00    -0.346 OA
BRANCH   7  19
ATOM     12  N   UNL     1       3.685  -7.372  26.614  0.00  0.00    -0.341 N 
ATOM     13  H   UNL     1       3.219  -6.959  25.813  0.00  0.00    +0.144 HD
ATOM     14  H   UNL     1       3.133  -7.548  27.443  0.00  0.00    +0.144 HD
ATOM     15  C   UNL     1       4.900  -6.771  26.916  0.00  0.00    +0.147 A 
ATOM     16  C   UNL     1       5.643  -6.019  25.988  0.00  0.00    +0.147 A 
ATOM     17  N   UNL     1       5.406  -5.667  24.676  0.00  0.00    -0.231 NA
ATOM     18  C   UNL     1       6.452  -4.949  24.330  0.00  0.00    +0.203 A 
ATOM     19  N   UNL     1       7.377  -4.848  25.344  0.00  0.00    -0.286 N 
ATOM     20  C   UNL     1       6.842  -5.483  26.433  0.00  0.00    +0.167 A 
ATOM     21  N   UNL     1       7.352  -5.578  27.671  0.00  0.00    -0.216 NA
ATOM     22  C   UNL     1       6.558  -6.316  28.471  0.00  0.00    +0.225 A 
ATOM     23  N   UNL     1       5.379  -6.902  28.172  0.00  0.00    -0.219 NA
ENDBRANCH   7  19
BRANCH   8  24
ATOM     24  O   UNL     1      10.337  -3.127  23.850  0.00  0.00    -0.385 OA
ATOM     25  H   UNL     1      10.774  -3.446  24.659  0.00  0.00    +0.210 HD
ENDBRANCH   8  24
BRANCH   9  26
ATOM     26  O   UNL     1       7.206  -1.580  23.514  0.00  0.00    -0.386 OA
ATOM     27  H   UNL     1       6.690  -0.881  23.959  0.00  0.00    +0.210 HD
ENDBRANCH   9  26
ENDBRANCH   6  10
ENDBRANCH   5   6
ENDBRANCH   1   5
BRANCH   1  28
ATOM     28  O   UNL     1       6.589   2.945  25.230  0.00  0.00    -0.276 OA
BRANCH  28  29
ATOM     29  C   UNL     1       7.689   3.874  25.368  0.00  0.00    +0.211 C 
ATOM     30  C   UNL     1       8.017   4.602  24.052  0.00  0.00    +0.255 C 
ATOM     31  O   UNL     1       7.397   5.906  24.098  0.00  0.00    -0.346 OA
ATOM     32  C   UNL     1       6.686   6.038  25.343  0.00  0.00    +0.177 C 
ATOM     33  C   UNL     1       7.306   5.021  26.299  0.00  0.00    +0.179 C 
BRANCH  30  34
ATOM     34  N   UNL     1       9.467   4.744  23.825  0.00  0.00    -0.271 N 
ATOM     35  C   UNL     1      10.154   3.610  23.398  0.00  0.00    +0.331 A 
ATOM     36  O   UNL     1       9.626   2.515  23.231  0.00  0.00    -0.246 OA
ATOM     37  N   UNL     1      11.501   3.767  23.200  0.00  0.00    -0.275 N 
ATOM     38  H   UNL     1      12.010   2.958  22.881  0.00  0.00    +0.173 HD
ATOM     39  C   UNL     1      12.229   4.892  23.463  0.00  0.00    +0.254 A 
ATOM     40  O   UNL     1      13.443   4.958  23.309  0.00  0.00    -0.268 OA
ATOM     41  C   UNL     1      11.462   6.036  23.975  0.00  0.00    +0.088 A 
ATOM     42  C   UNL     1      10.139   5.913  24.124  0.00  0.00    +0.098 A 
ENDBRANCH  30  34
BRANCH  33  43
ATOM     43  O   UNL     1       8.458   5.573  26.938  0.00  0.00    -0.386 OA
ATOM     44  H   UNL     1       8.644   5.068  27.751  0.00  0.00    +0.210 HD
ENDBRANCH  33  43
BRANCH  32  45
ATOM     45  C   UNL     1       5.187   5.767  25.116  0.00  0.00    +0.190 C 
BRANCH  45  46
ATOM     46  O   UNL     1       4.598   5.029  26.181  0.00  0.00    -0.392 OA
ATOM     47  H   UNL     1       3.834   5.521  26.523  0.00  0.00    +0.210 HD
ENDBRANCH  45  46
ENDBRANCH  32  45
ENDBRANCH  28  29
ENDBRANCH   1  28
TORSDOF 13
ENDMDL
MODEL 7
REMARK VINA RESULT:      -7.6      2.856      4.564
REMARK  Name = 
REMARK  13 active torsions:
REMARK  status: ('A' for Active; 'I' for Inactive)
REMARK    1  A    between atoms: N_10  and  C_11
REMARK    2  A    between atoms: C_14  and  C_16
REMARK    3  A    between atoms: C_16  and  O_17
REMARK    4  A    between atoms: O_17  and  P_18
REMARK    5  A    between atoms: P_18  and  O_19
REMARK    6  A    between atoms: P_18  and  O_21
REMARK    7  A    between atoms: O_21  and  C_22
REMARK    8  A    between atoms: C_24  and  O_26
REMARK    9  A    between atoms: C_27  and  C_29
REMARK   10  A    between atoms: C_29  and  O_30
REMARK   11  A    between atoms: C_32  and  N_34
REMARK   12  A    between atoms: C_42  and  O_44
REMARK   13  A    between atoms: C_45  and  O_47
REMARK                            x       y       z     vdW  Elec       q    Type
REMARK                         _______ _______ _______ _____ _____    ______ ____
ROOT
ATOM      1  P   UNL     1       9.520  -0.920  22.923  0.00  0.00    +0.475 P 
ATOM      2  O   UNL     1      10.591  -0.270  23.792  0.00  0.00    -0.227 OA
ENDROOT
BRANCH   1   3
ATOM      3  O   UNL     1      10.348  -1.859  21.880  0.00  0.00    -0.302 OA
ATOM      4  H   UNL     1      10.571  -2.684  22.359  0.00  0.00    +0.222 HD
ENDBRANCH   1   3
BRANCH   1   5
ATOM      5  O   UNL     1       9.639   0.380  21.787  0.00  0.00    -0.284 OA
BRANCH   5   6
ATOM      6  C   UNL     1       8.395   1.017  21.503  0.00  0.00    +0.206 C 
BRANCH   6  10
ATOM      7  C   UNL     1       6.168   2.969  23.652  0.00  0.00    +0.253 C 
ATOM      8  C   UNL     1       6.973   4.079  22.960  0.00  0.00    +0.195 C 
ATOM      9  C   UNL     1       8.232   3.385  22.438  0.00  0.00    +0.178 C 
ATOM     10  C   UNL     1       7.971   1.896  22.677  0.00  0.00    +0.178 C 
ATOM     11  O   UNL     1       6.557   1.770  22.921  0.00  0.00    -0.346 OA
BRANCH   7  19
ATOM     12  N   UNL     1       6.191   1.260  29.477  0.00  0.00    -0.341 N 
ATOM     13  H   UNL     1       7.154   1.570  29.541  0.00  0.00    +0.144 HD
ATOM     14  H   UNL     1       5.925   0.430  29.990  0.00  0.00    +0.144 HD
ATOM     15  C   UNL     1       5.702   1.246  28.177  0.00  0.00    +0.147 A 
ATOM     16  C   UNL     1       6.263   1.999  27.130  0.00  0.00    +0.147 A 
ATOM     17  N   UNL     1       7.350   2.846  27.075  0.00  0.00    -0.231 NA
ATOM     18  C   UNL     1       7.393   3.252  25.826  0.00  0.00    +0.203 A 
ATOM     19  N   UNL     1       6.362   2.740  25.072  0.00  0.00    -0.286 N 
ATOM     20  C   UNL     1       5.663   1.887  25.885  0.00  0.00    +0.167 A 
ATOM     21  N   UNL     1       4.620   1.106  25.566  0.00  0.00    -0.216 NA
ATOM     22  C   UNL     1       4.167   0.432  26.641  0.00  0.00    +0.225 A 
ATOM     23  N   UNL     1       4.643   0.451  27.904  0.00  0.00    -0.219 NA
ENDBRANCH   7  19
BRANCH   8  24
ATOM     24  O   UNL     1       6.227   4.582  21.826  0.00  0.00    -0.385 OA
ATOM     25  H   UNL     1       5.436   5.042  22.156  0.00  0.00    +0.210 HD
ENDBRANCH   8  24
BRANCH   9  26
ATOM     26  O   UNL     1       9.389   3.819  23.142  0.00  0.00    -0.386 OA
ATOM     27  H   UNL     1       9.181   4.683  23.545  0.00  0.00    +0.210 HD
ENDBRANCH   9  26
ENDBRANCH   6  10
ENDBRANCH   5   6
ENDBRANCH   1   5
BRANCH   1  28
ATOM     28  O   UNL     1       9.400  -2.220  24.057  0.00  0.00    -0.276 OA
BRANCH  28  29
ATOM     29  C   UNL     1       8.021  -2.565  24.326  0.00  0.00    +0.211 C 
ATOM     30  C   UNL     1       7.880  -3.604  25.454  0.00  0.00    +0.255 C 
ATOM     31  O   UNL     1       7.554  -2.899  26.671  0.00  0.00    -0.346 OA
ATOM     32  C   UNL     1       7.500  -1.487  26.390  0.00  0.00    +0.177 C 
ATOM     33  C   UNL     1       7.269  -1.360  24.885  0.00  0.00    +0.179 C 
BRANCH  30  34
ATOM     34  N   UNL     1       6.848  -4.617  25.169  0.00  0.00    -0.271 N 
ATOM     35  C   UNL     1       6.623  -5.583  26.148  0.00  0.00    +0.331 A 
ATOM     36  O   UNL     1       7.248  -5.644  27.202  0.00  0.00    -0.246 OA
ATOM     37  N   UNL     1       5.663  -6.516  25.857  0.00  0.00    -0.275 N 
ATOM     38  H   UNL     1       5.481  -7.215  26.559  0.00  0.00    +0.173 HD
ATOM     39  C   UNL     1       4.982  -6.632  24.679  0.00  0.00    +0.254 A 
ATOM     40  O   UNL     1       4.166  -7.519  24.459  0.00  0.00    -0.268 OA
ATOM     41  C   UNL     1       5.309  -5.627  23.658  0.00  0.00    +0.088 A 
ATOM     42  C   UNL     1       6.207  -4.679  23.948  0.00  0.00    +0.098 A 
ENDBRANCH  30  34
BRANCH  33  43
ATOM     43  O   UNL     1       5.875  -1.439  24.586  0.00  0.00    -0.386 OA
ATOM     44  H   UNL     1       5.574  -2.358  24.710  0.00  0.00    +0.210 HD
ENDBRANCH  33  43
BRANCH  32  45
ATOM     45  C   UNL     1       8.819  -0.821  26.822  0.00  0.00    +0.190 C 
BRANCH  45  46
ATOM     46  O   UNL     1       9.120   0.342  26.059  0.00  0.00    -0.392 OA
ATOM     47  H   UNL     1       8.646   0.296  25.213  0.00  0.00    +0.210 HD
ENDBRANCH  45  46
ENDBRANCH  32  45
ENDBRANCH  28  29
ENDBRANCH   1  28
TORSDOF 13
ENDMDL
MODEL 8
REMARK VINA RESULT:      -7.6      2.528      9.652
REMARK  Name = 
REMARK  13 active torsions:
REMARK  status: ('A' for Active; 'I' for Inactive)
REMARK    1  A    between atoms: N_10  and  C_11
REMARK    2  A    between atoms: C_14  and  C_16
REMARK    3  A    between atoms: C_16  and  O_17
REMARK    4  A    between atoms: O_17  and  P_18
REMARK    5  A    between atoms: P_18  and  O_19
REMARK    6  A    between atoms: P_18  and  O_21
REMARK    7  A    between atoms: O_21  and  C_22
REMARK    8  A    between atoms: C_24  and  O_26
REMARK    9  A    between atoms: C_27  and  C_29
REMARK   10  A    between atoms: C_29  and  O_30
REMARK   11  A    between atoms: C_32  and  N_34
REMARK   12  A    between atoms: C_42  and  O_44
REMARK   13  A    between atoms: C_45  and  O_47
REMARK                            x       y       z     vdW  Elec       q    Type
REMARK                         _______ _______ _______ _____ _____    ______ ____
ROOT
ATOM      1  P   UNL     1       7.963   0.235  25.015  0.00  0.00    +0.475 P 
ATOM      2  O   UNL     1       8.619  -0.205  23.711  0.00  0.00    -0.227 OA
ENDROOT
BRANCH   1   3
ATOM      3  O   UNL     1       8.928   1.418  25.584  0.00  0.00    -0.302 OA
ATOM      4  H   UNL     1       9.122   1.199  26.518  0.00  0.00    +0.222 HD
ENDBRANCH   1   3
BRANCH   1   5
ATOM      5  O   UNL     1       8.915  -0.912  25.893  0.00  0.00    -0.284 OA
BRANCH   5   6
ATOM      6  C   UNL     1       8.147  -1.905  26.570  0.00  0.00    +0.206 C 
BRANCH   6  10
ATOM      7  C   UNL     1       7.776  -5.411  25.589  0.00  0.00    +0.253 C 
ATOM      8  C   UNL     1       9.139  -5.065  24.971  0.00  0.00    +0.195 C 
ATOM      9  C   UNL     1       9.158  -3.537  24.889  0.00  0.00    +0.178 C 
ATOM     10  C   UNL     1       7.905  -3.102  25.652  0.00  0.00    +0.178 C 
ATOM     11  O   UNL     1       7.480  -4.248  26.415  0.00  0.00    -0.346 OA
BRANCH   7  19
ATOM     12  N   UNL     1       2.534  -6.747  22.834  0.00  0.00    -0.341 N 
ATOM     13  H   UNL     1       2.795  -6.118  22.082  0.00  0.00    +0.144 HD
ATOM     14  H   UNL     1       1.561  -6.782  23.105  0.00  0.00    +0.144 HD
ATOM     15  C   UNL     1       3.379  -6.670  23.934  0.00  0.00    +0.147 A 
ATOM     16  C   UNL     1       4.690  -6.165  23.870  0.00  0.00    +0.147 A 
ATOM     17  N   UNL     1       5.429  -5.630  22.837  0.00  0.00    -0.231 NA
ATOM     18  C   UNL     1       6.586  -5.322  23.379  0.00  0.00    +0.203 A 
ATOM     19  N   UNL     1       6.649  -5.666  24.711  0.00  0.00    -0.286 N 
ATOM     20  C   UNL     1       5.416  -6.154  25.052  0.00  0.00    +0.167 A 
ATOM     21  N   UNL     1       4.985  -6.546  26.261  0.00  0.00    -0.216 NA
ATOM     22  C   UNL     1       3.720  -7.008  26.202  0.00  0.00    +0.225 A 
ATOM     23  N   UNL     1       2.905  -7.085  25.130  0.00  0.00    -0.219 NA
ENDBRANCH   7  19
BRANCH   8  24
ATOM     24  O   UNL     1      10.196  -5.485  25.866  0.00  0.00    -0.385 OA
ATOM     25  H   UNL     1      10.958  -5.770  25.331  0.00  0.00    +0.210 HD
ENDBRANCH   8  24
BRANCH   9  26
ATOM     26  O   UNL     1       9.112  -3.094  23.539  0.00  0.00    -0.386 OA
ATOM     27  H   UNL     1       9.291  -3.866  22.969  0.00  0.00    +0.210 HD
ENDBRANCH   9  26
ENDBRANCH   6  10
ENDBRANCH   5   6
ENDBRANCH   1   5
BRANCH   1  28
ATOM     28  O   UNL     1       7.011   1.382  24.137  0.00  0.00    -0.276 OA
BRANCH  28  29
ATOM     29  C   UNL     1       7.459   2.737  24.376  0.00  0.00    +0.211 C 
ATOM     30  C   UNL     1       7.930   3.439  23.089  0.00  0.00    +0.255 C 
ATOM     31  O   UNL     1       6.850   4.275  22.618  0.00  0.00    -0.346 OA
ATOM     32  C   UNL     1       5.728   4.130  23.509  0.00  0.00    +0.177 C 
ATOM     33  C   UNL     1       6.295   3.614  24.829  0.00  0.00    +0.179 C 
BRANCH  30  34
ATOM     34  N   UNL     1       9.141   4.254  23.294  0.00  0.00    -0.271 N 
ATOM     35  C   UNL     1      10.364   3.587  23.258  0.00  0.00    +0.331 A 
ATOM     36  O   UNL     1      10.477   2.377  23.093  0.00  0.00    -0.246 OA
ATOM     37  N   UNL     1      11.474   4.366  23.457  0.00  0.00    -0.275 N 
ATOM     38  H   UNL     1      12.367   3.900  23.424  0.00  0.00    +0.173 HD
ATOM     39  C   UNL     1      11.481   5.696  23.768  0.00  0.00    +0.254 A 
ATOM     40  O   UNL     1      12.508   6.330  23.981  0.00  0.00    -0.268 OA
ATOM     41  C   UNL     1      10.160   6.331  23.858  0.00  0.00    +0.088 A 
ATOM     42  C   UNL     1       9.071   5.595  23.616  0.00  0.00    +0.098 A 
ENDBRANCH  30  34
BRANCH  33  43
ATOM     43  O   UNL     1       6.752   4.700  25.636  0.00  0.00    -0.386 OA
ATOM     44  H   UNL     1       6.792   4.411  26.567  0.00  0.00    +0.210 HD
ENDBRANCH  33  43
BRANCH  32  45
ATOM     45  C   UNL     1       4.708   3.148  22.903  0.00  0.00    +0.190 C 
BRANCH  45  46
ATOM     46  O   UNL     1       4.141   2.279  23.878  0.00  0.00    -0.392 OA
ATOM     47  H   UNL     1       3.685   2.812  24.550  0.00  0.00    +0.210 HD
ENDBRANCH  45  46
ENDBRANCH  32  45
ENDBRANCH  28  29
ENDBRANCH   1  28
TORSDOF 13
ENDMDL
MODEL 9
REMARK VINA RESULT:      -7.5      1.188      2.136
REMARK  Name = 
REMARK  13 active torsions:
REMARK  status: ('A' for Active; 'I' for Inactive)
REMARK    1  A    between atoms: N_10  and  C_11
REMARK    2  A    between atoms: C_14  and  C_16
REMARK    3  A    between atoms: C_16  and  O_17
REMARK    4  A    between atoms: O_17  and  P_18
REMARK    5  A    between atoms: P_18  and  O_19
REMARK    6  A    between atoms: P_18  and  O_21
REMARK    7  A    between atoms: O_21  and  C_22
REMARK    8  A    between atoms: C_24  and  O_26
REMARK    9  A    between atoms: C_27  and  C_29
REMARK   10  A    between atoms: C_29  and  O_30
REMARK   11  A    between atoms: C_32  and  N_34
REMARK   12  A    between atoms: C_42  and  O_44
REMARK   13  A    between atoms: C_45  and  O_47
REMARK                            x       y       z     vdW  Elec       q    Type
REMARK                         _______ _______ _______ _____ _____    ______ ____
ROOT
ATOM      1  P   UNL     1       8.693  -3.232  23.953  0.00  0.00    +0.475 P 
ATOM      2  O   UNL     1      10.071  -3.802  24.271  0.00  0.00    -0.227 OA
ENDROOT
BRANCH   1   3
ATOM      3  O   UNL     1       8.874  -2.490  22.514  0.00  0.00    -0.302 OA
ATOM      4  H   UNL     1       8.005  -2.101  22.285  0.00  0.00    +0.222 HD
ENDBRANCH   1   3
BRANCH   1   5
ATOM      5  O   UNL     1       9.117  -1.745  24.730  0.00  0.00    -0.284 OA
BRANCH   5   6
ATOM      6  C   UNL     1       8.050  -0.800  24.794  0.00  0.00    +0.206 C 
BRANCH   6  10
ATOM      7  C   UNL     1       7.852   2.688  23.709  0.00  0.00    +0.253 C 
ATOM      8  C   UNL     1       7.352   1.951  22.457  0.00  0.00    +0.195 C 
ATOM      9  C   UNL     1       7.858   0.516  22.617  0.00  0.00    +0.178 C 
ATOM     10  C   UNL     1       8.426   0.471  24.037  0.00  0.00    +0.178 C 
ATOM     11  O   UNL     1       7.911   1.635  24.713  0.00  0.00    -0.346 OA
BRANCH   7  19
ATOM     12  N   UNL     1      12.702   6.317  24.088  0.00  0.00    -0.341 N 
ATOM     13  H   UNL     1      13.294   5.501  23.979  0.00  0.00    +0.144 HD
ATOM     14  H   UNL     1      13.015   7.048  24.713  0.00  0.00    +0.144 HD
ATOM     15  C   UNL     1      11.362   6.005  24.279  0.00  0.00    +0.147 A 
ATOM     16  C   UNL     1      10.793   4.776  23.903  0.00  0.00    +0.147 A 
ATOM     17  N   UNL     1      11.328   3.640  23.334  0.00  0.00    -0.231 NA
ATOM     18  C   UNL     1      10.312   2.812  23.225  0.00  0.00    +0.203 A 
ATOM     19  N   UNL     1       9.132   3.369  23.661  0.00  0.00    -0.286 N 
ATOM     20  C   UNL     1       9.439   4.610  24.153  0.00  0.00    +0.167 A 
ATOM     21  N   UNL     1       8.620   5.491  24.750  0.00  0.00    -0.216 NA
ATOM     22  C   UNL     1       9.273   6.627  25.067  0.00  0.00    +0.225 A 
ATOM     23  N   UNL     1      10.574   6.927  24.875  0.00  0.00    -0.219 NA
ENDBRANCH   7  19
BRANCH   8  24
ATOM     24  O   UNL     1       5.905   1.927  22.454  0.00  0.00    -0.385 OA
ATOM     25  H   UNL     1       5.581   2.776  22.801  0.00  0.00    +0.210 HD
ENDBRANCH   8  24
BRANCH   9  26
ATOM     26  O   UNL     1       8.861   0.213  21.656  0.00  0.00    -0.386 OA
ATOM     27  H   UNL     1       8.891   0.952  21.019  0.00  0.00    +0.210 HD
ENDBRANCH   9  26
ENDBRANCH   6  10
ENDBRANCH   5   6
ENDBRANCH   1   5
BRANCH   1  28
ATOM     28  O   UNL     1       8.268  -4.718  23.175  0.00  0.00    -0.276 OA
BRANCH  28  29
ATOM     29  C   UNL     1       7.167  -5.373  23.848  0.00  0.00    +0.211 C 
ATOM     30  C   UNL     1       6.441  -4.443  24.837  0.00  0.00    +0.255 C 
ATOM     31  O   UNL     1       5.256  -3.938  24.184  0.00  0.00    -0.346 OA
ATOM     32  C   UNL     1       5.199  -4.471  22.847  0.00  0.00    +0.177 C 
ATOM     33  C   UNL     1       6.067  -5.728  22.852  0.00  0.00    +0.179 C 
BRANCH  30  34
ATOM     34  N   UNL     1       6.072  -5.122  26.091  0.00  0.00    -0.271 N 
ATOM     35  C   UNL     1       7.111  -5.470  26.952  0.00  0.00    +0.331 A 
ATOM     36  O   UNL     1       8.296  -5.266  26.707  0.00  0.00    -0.246 OA
ATOM     37  N   UNL     1       6.742  -6.105  28.108  0.00  0.00    -0.275 N 
ATOM     38  H   UNL     1       7.482  -6.354  28.746  0.00  0.00    +0.173 HD
ATOM     39  C   UNL     1       5.478  -6.496  28.445  0.00  0.00    +0.254 A 
ATOM     40  O   UNL     1       5.216  -7.105  29.476  0.00  0.00    -0.268 OA
ATOM     41  C   UNL     1       4.432  -6.162  27.470  0.00  0.00    +0.088 A 
ATOM     42  C   UNL     1       4.770  -5.498  26.361  0.00  0.00    +0.098 A 
ENDBRANCH  30  34
BRANCH  33  43
ATOM     43  O   UNL     1       5.312  -6.856  23.297  0.00  0.00    -0.386 OA
ATOM     44  H   UNL     1       5.239  -7.498  22.566  0.00  0.00    +0.210 HD
ENDBRANCH  33  43
BRANCH  32  45
ATOM     45  C   UNL     1       5.718  -3.422  21.848  0.00  0.00    +0.190 C 
BRANCH  45  46
ATOM     46  O   UNL     1       5.709  -2.104  22.386  0.00  0.00    -0.392 OA
ATOM     47  H   UNL     1       6.620  -1.843  22.600  0.00  0.00    +0.210 HD
ENDBRANCH  45  46
ENDBRANCH  32  45
ENDBRANCH  28  29
ENDBRANCH   1  28
TORSDOF 13
ENDMDL
