MODEL 1
REMARK VINA RESULT:      -7.0      0.000      0.000
REMARK  Name = 
REMARK  5 active torsions:
REMARK  status: ('A' for Active; 'I' for Inactive)
REMARK    1  A    between atoms: O_1  and  C_2
REMARK    2  A    between atoms: C_2  and  CA_4
REMARK    3  A    between atoms: CA_4  and  N_5
REMARK    4  A    between atoms: C_6  and  CA_8
REMARK    5  A    between atoms: C_9  and  O_10
REMARK                            x       y       z     vdW  Elec       q    Type
REMARK                         _______ _______ _______ _____ _____    ______ ____
ROOT
ATOM      1  CA  UNL     1       9.616   2.728  23.704  0.00  0.00    +0.167 A 
ATOM      2  N   UNL     1       9.017   2.382  24.873  0.00  0.00    -0.246 NA
ATOM      3  C   UNL     1       8.578   1.102  24.953  0.00  0.00    +0.121 A 
ATOM      4  C   UNL     1       8.688   0.126  23.941  0.00  0.00    +0.017 A 
ATOM      5  C   UNL     1       9.304   0.546  22.734  0.00  0.00    +0.028 A 
ATOM      6  C   UNL     1       9.434  -0.375  21.674  0.00  0.00    +0.012 A 
ATOM      7  C   UNL     1       8.999  -1.693  21.794  0.00  0.00    +0.002 A 
ATOM      8  C   UNL     1       8.409  -2.119  22.977  0.00  0.00    +0.015 A 
ATOM      9  C   UNL     1       8.244  -1.222  24.038  0.00  0.00    +0.023 A 
ATOM     10  I   UNL     1       7.312  -2.001  25.762  0.00  0.00    -0.043 I 
ATOM     11  C   UNL     1       9.776   1.866  22.621  0.00  0.00    +0.155 A 
ENDROOT
BRANCH   1  14
ATOM     12  N   UNL     1      11.417   4.309  23.318  0.00  0.00    -0.299 N 
ATOM     13  H   UNL     1      11.923   3.472  23.028  0.00  0.00    +0.150 HD
ATOM     14  C   UNL     1      10.082   4.146  23.626  0.00  0.00    +0.266 C 
ATOM     15  O   UNL     1       9.318   5.075  23.860  0.00  0.00    -0.268 OA
BRANCH  12  16
ATOM     16  CA  UNL     1      12.021   5.628  23.150  0.00  0.00    +0.225 C 
BRANCH  16  17
ATOM     17  C   UNL     1      13.425   5.541  22.555  0.00  0.00    +0.322 C 
ATOM     18  OXT UNL     1      13.724   5.966  21.448  0.00  0.00    -0.249 OA
BRANCH  17  19
ATOM     19  O   UNL     1      14.318   4.905  23.352  0.00  0.00    -0.480 OA
ATOM     20  H   UNL     1      15.051   5.520  23.562  0.00  0.00    +0.295 HD
ENDBRANCH  17  19
ENDBRANCH  16  17
ENDBRANCH  12  16
ENDBRANCH   1  14
BRANCH  11  21
ATOM     21  O   UNL     1      10.383   2.251  21.448  0.00  0.00    -0.504 OA
ATOM     22  H   UNL     1      11.234   1.768  21.349  0.00  0.00    +0.292 HD
ENDBRANCH  11  21
TORSDOF 5
ENDMDL
MODEL 2
REMARK VINA RESULT:      -6.3      4.544      7.713
REMARK  Name = 
REMARK  5 active torsions:
REMARK  status: ('A' for Active; 'I' for Inactive)
REMARK    1  A    between atoms: O_1  and  C_2
REMARK    2  A    between atoms: C_2  and  CA_4
REMARK    3  A    between atoms: CA_4  and  N_5
REMARK    4  A    between atoms: C_6  and  CA_8
REMARK    5  A    between atoms: C_9  and  O_10
REMARK                            x       y       z     vdW  Elec       q    Type
REMARK                         _______ _______ _______ _____ _____    ______ ____
ROOT
ATOM      1  CA  UNL     1       8.471  -2.114  23.650  0.00  0.00    +0.167 A 
ATOM      2  N   UNL     1       7.776  -1.583  24.691  0.00  0.00    -0.246 NA
ATOM      3  C   UNL     1       7.827  -0.234  24.805  0.00  0.00    +0.121 A 
ATOM      4  C   UNL     1       8.531   0.642  23.953  0.00  0.00    +0.017 A 
ATOM      5  C   UNL     1       9.256   0.034  22.894  0.00  0.00    +0.028 A 
ATOM      6  C   UNL     1       9.994   0.849  22.012  0.00  0.00    +0.012 A 
ATOM      7  C   UNL     1      10.006   2.236  22.137  0.00  0.00    +0.002 A 
ATOM      8  C   UNL     1       9.287   2.843  23.159  0.00  0.00    +0.015 A 
ATOM      9  C   UNL     1       8.564   2.059  24.065  0.00  0.00    +0.023 A 
ATOM     10  I   UNL     1       7.541   3.114  25.578  0.00  0.00    -0.043 I 
ATOM     11  C   UNL     1       9.218  -1.364  22.745  0.00  0.00    +0.155 A 
ENDROOT
BRANCH   1  14
ATOM     12  N   UNL     1       7.511  -4.095  22.628  0.00  0.00    -0.299 N 
ATOM     13  H   UNL     1       7.077  -3.413  22.006  0.00  0.00    +0.150 HD
ATOM     14  C   UNL     1       8.417  -3.604  23.546  0.00  0.00    +0.266 C 
ATOM     15  O   UNL     1       9.112  -4.313  24.264  0.00  0.00    -0.268 OA
BRANCH  12  16
ATOM     16  CA  UNL     1       7.371  -5.524  22.362  0.00  0.00    +0.225 C 
BRANCH  16  17
ATOM     17  C   UNL     1       6.117  -5.833  21.546  0.00  0.00    +0.322 C 
ATOM     18  OXT UNL     1       5.955  -5.479  20.387  0.00  0.00    -0.249 OA
BRANCH  17  19
ATOM     19  O   UNL     1       5.167  -6.506  22.238  0.00  0.00    -0.480 OA
ATOM     20  H   UNL     1       5.219  -6.248  23.182  0.00  0.00    +0.295 HD
ENDBRANCH  17  19
ENDBRANCH  16  17
ENDBRANCH  12  16
ENDBRANCH   1  14
BRANCH  11  21
ATOM     21  O   UNL     1       9.915  -1.935  21.705  0.00  0.00    -0.504 OA
ATOM     22  H   UNL     1      10.287  -2.797  21.998  0.00  0.00    +0.292 HD
ENDBRANCH  11  21
TORSDOF 5
ENDMDL
MODEL 3
REMARK VINA RESULT:      -6.3      3.988      6.033
REMARK  Name = 
REMARK  5 active torsions:
REMARK  status: ('A' for Active; 'I' for Inactive)
REMARK    1  A    between atoms: O_1  and  C_2
REMARK    2  A    between atoms: C_2  and  CA_4
REMARK    3  A    between atoms: CA_4  and  N_5
REMARK    4  A    between atoms: C_6  and  CA_8
REMARK    5  A    between atoms: C_9  and  O_10
REMARK                            x       y       z     vdW  Elec       q    Type
REMARK                         _______ _______ _______ _____ _____    ______ ____
ROOT
ATOM      1  CA  UNL     1       8.648  -3.031  24.353  0.00  0.00    +0.167 A 
ATOM      2  N   UNL     1       8.696  -3.058  25.711  0.00  0.00    -0.246 NA
ATOM      3  C   UNL     1       7.806  -3.882  26.315  0.00  0.00    +0.121 A 
ATOM      4  C   UNL     1       6.854  -4.692  25.661  0.00  0.00    +0.017 A 
ATOM      5  C   UNL     1       6.835  -4.611  24.244  0.00  0.00    +0.028 A 
ATOM      6  C   UNL     1       5.899  -5.384  23.527  0.00  0.00    +0.012 A 
ATOM      7  C   UNL     1       5.014  -6.244  24.172  0.00  0.00    +0.002 A 
ATOM      8  C   UNL     1       5.035  -6.343  25.557  0.00  0.00    +0.015 A 
ATOM      9  C   UNL     1       5.936  -5.572  26.299  0.00  0.00    +0.023 A 
ATOM     10  I   UNL     1       5.840  -5.807  28.393  0.00  0.00    -0.043 I 
ATOM     11  C   UNL     1       7.749  -3.770  23.587  0.00  0.00    +0.155 A 
ENDROOT
BRANCH   1  14
ATOM     12  N   UNL     1       9.347  -0.763  23.842  0.00  0.00    -0.299 N 
ATOM     13  H   UNL     1       8.599  -0.519  24.491  0.00  0.00    +0.150 HD
ATOM     14  C   UNL     1       9.627  -2.107  23.702  0.00  0.00    +0.266 C 
ATOM     15  O   UNL     1      10.579  -2.543  23.066  0.00  0.00    -0.268 OA
BRANCH  12  16
ATOM     16  CA  UNL     1      10.230   0.273  23.314  0.00  0.00    +0.225 C 
BRANCH  16  17
ATOM     17  C   UNL     1       9.794   0.744  21.927  0.00  0.00    +0.322 C 
ATOM     18  OXT UNL     1       9.266   0.019  21.097  0.00  0.00    -0.249 OA
BRANCH  17  19
ATOM     19  O   UNL     1      10.086   2.043  21.675  0.00  0.00    -0.480 OA
ATOM     20  H   UNL     1       9.251   2.555  21.641  0.00  0.00    +0.295 HD
ENDBRANCH  17  19
ENDBRANCH  16  17
ENDBRANCH  12  16
ENDBRANCH   1  14
BRANCH  11  21
ATOM     21  O   UNL     1       7.725  -3.715  22.213  0.00  0.00    -0.504 OA
ATOM     22  H   UNL     1       6.859  -4.053  21.890  0.00  0.00    +0.292 HD
ENDBRANCH  11  21
TORSDOF 5
ENDMDL
MODEL 4
REMARK VINA RESULT:      -6.1      5.167      8.322
REMARK  Name = 
REMARK  5 active torsions:
REMARK  status: ('A' for Active; 'I' for Inactive)
REMARK    1  A    between atoms: O_1  and  C_2
REMARK    2  A    between atoms: C_2  and  CA_4
REMARK    3  A    between atoms: CA_4  and  N_5
REMARK    4  A    between atoms: C_6  and  CA_8
REMARK    5  A    between atoms: C_9  and  O_10
REMARK                            x       y       z     vdW  Elec       q    Type
REMARK                         _______ _______ _______ _____ _____    ______ ____
ROOT
ATOM      1  CA  UNL     1       7.803  -2.515  23.208  0.00  0.00    +0.167 A 
ATOM      2  N   UNL     1       6.797  -1.659  22.885  0.00  0.00    -0.246 NA
ATOM      3  C   UNL     1       7.088  -0.340  23.000  0.00  0.00    +0.121 A 
ATOM      4  C   UNL     1       8.320   0.201  23.422  0.00  0.00    +0.017 A 
ATOM      5  C   UNL     1       9.328  -0.737  23.766  0.00  0.00    +0.028 A 
ATOM      6  C   UNL     1      10.580  -0.266  24.209  0.00  0.00    +0.012 A 
ATOM      7  C   UNL     1      10.861   1.097  24.291  0.00  0.00    +0.002 A 
ATOM      8  C   UNL     1       9.887   2.023  23.941  0.00  0.00    +0.015 A 
ATOM      9  C   UNL     1       8.627   1.586  23.520  0.00  0.00    +0.023 A 
ATOM     10  I   UNL     1       7.241   3.104  23.045  0.00  0.00    -0.043 I 
ATOM     11  C   UNL     1       9.061  -2.113  23.652  0.00  0.00    +0.155 A 
ENDROOT
BRANCH   1  14
ATOM     12  N   UNL     1       6.411  -4.255  22.245  0.00  0.00    -0.299 N 
ATOM     13  H   UNL     1       6.065  -3.488  21.670  0.00  0.00    +0.150 HD
ATOM     14  C   UNL     1       7.463  -3.966  23.090  0.00  0.00    +0.266 C 
ATOM     15  O   UNL     1       8.068  -4.810  23.740  0.00  0.00    -0.268 OA
BRANCH  12  16
ATOM     16  CA  UNL     1       5.986  -5.626  21.975  0.00  0.00    +0.225 C 
BRANCH  16  17
ATOM     17  C   UNL     1       4.718  -5.993  22.743  0.00  0.00    +0.322 C 
ATOM     18  OXT UNL     1       3.713  -5.297  22.770  0.00  0.00    -0.249 OA
BRANCH  17  19
ATOM     19  O   UNL     1       4.816  -7.152  23.438  0.00  0.00    -0.480 OA
ATOM     20  H   UNL     1       5.648  -7.604  23.186  0.00  0.00    +0.295 HD
ENDBRANCH  17  19
ENDBRANCH  16  17
ENDBRANCH  12  16
ENDBRANCH   1  14
BRANCH  11  21
ATOM     21  O   UNL     1      10.054  -3.007  23.976  0.00  0.00    -0.504 OA
ATOM     22  H   UNL     1      10.597  -2.637  24.709  0.00  0.00    +0.292 HD
ENDBRANCH  11  21
TORSDOF 5
ENDMDL
MODEL 5
REMARK VINA RESULT:      -6.1      3.158      4.611
REMARK  Name = 
REMARK  5 active torsions:
REMARK  status: ('A' for Active; 'I' for Inactive)
REMARK    1  A    between atoms: O_1  and  C_2
REMARK    2  A    between atoms: C_2  and  CA_4
REMARK    3  A    between atoms: CA_4  and  N_5
REMARK    4  A    between atoms: C_6  and  CA_8
REMARK    5  A    between atoms: C_9  and  O_10
REMARK                            x       y       z     vdW  Elec       q    Type
REMARK                         _______ _______ _______ _____ _____    ______ ____
ROOT
ATOM      1  CA  UNL     1       9.076  -1.038  24.338  0.00  0.00    +0.167 A 
ATOM      2  N   UNL     1       8.912  -1.450  23.054  0.00  0.00    -0.246 NA
ATOM      3  C   UNL     1       8.311  -2.654  22.894  0.00  0.00    +0.121 A 
ATOM      4  C   UNL     1       7.856  -3.495  23.931  0.00  0.00    +0.017 A 
ATOM      5  C   UNL     1       8.070  -3.026  25.253  0.00  0.00    +0.028 A 
ATOM      6  C   UNL     1       7.652  -3.822  26.339  0.00  0.00    +0.012 A 
ATOM      7  C   UNL     1       7.011  -5.044  26.145  0.00  0.00    +0.002 A 
ATOM      8  C   UNL     1       6.783  -5.505  24.855  0.00  0.00    +0.015 A 
ATOM      9  C   UNL     1       7.207  -4.748  23.757  0.00  0.00    +0.023 A 
ATOM     10  I   UNL     1       6.815  -5.584  21.860  0.00  0.00    -0.043 I 
ATOM     11  C   UNL     1       8.685  -1.777  25.453  0.00  0.00    +0.155 A 
ENDROOT
BRANCH   1  14
ATOM     12  N   UNL     1       9.059   1.364  23.991  0.00  0.00    -0.299 N 
ATOM     13  H   UNL     1       8.099   1.190  23.695  0.00  0.00    +0.150 HD
ATOM     14  C   UNL     1       9.753   0.285  24.498  0.00  0.00    +0.266 C 
ATOM     15  O   UNL     1      10.861   0.368  25.014  0.00  0.00    -0.268 OA
BRANCH  12  16
ATOM     16  CA  UNL     1       9.553   2.733  24.114  0.00  0.00    +0.225 C 
BRANCH  16  17
ATOM     17  C   UNL     1      10.649   3.038  23.094  0.00  0.00    +0.322 C 
ATOM     18  OXT UNL     1      11.644   3.704  23.342  0.00  0.00    -0.249 OA
BRANCH  17  19
ATOM     19  O   UNL     1      10.400   2.537  21.860  0.00  0.00    -0.480 OA
ATOM     20  H   UNL     1       9.618   1.950  21.907  0.00  0.00    +0.295 HD
ENDBRANCH  17  19
ENDBRANCH  16  17
ENDBRANCH  12  16
ENDBRANCH   1  14
BRANCH  11  21
ATOM     21  O   UNL     1       8.871  -1.332  26.741  0.00  0.00    -0.504 OA
ATOM     22  H   UNL     1       9.514  -1.920  27.198  0.00  0.00    +0.292 HD
ENDBRANCH  11  21
TORSDOF 5
ENDMDL
MODEL 6
REMARK VINA RESULT:      -6.0      4.289      7.143
REMARK  Name = 
REMARK  5 active torsions:
REMARK  status: ('A' for Active; 'I' for Inactive)
REMARK    1  A    between atoms: O_1  and  C_2
REMARK    2  A    between atoms: C_2  and  CA_4
REMARK    3  A    between atoms: CA_4  and  N_5
REMARK    4  A    between atoms: C_6  and  CA_8
REMARK    5  A    between atoms: C_9  and  O_10
REMARK                            x       y       z     vdW  Elec       q    Type
REMARK                         _______ _______ _______ _____ _____    ______ ____
ROOT
ATOM      1  CA  UNL     1       8.644  -1.156  23.653  0.00  0.00    +0.167 A 
ATOM      2  N   UNL     1       7.339  -0.983  23.315  0.00  0.00    -0.246 NA
ATOM      3  C   UNL     1       6.925   0.303  23.207  0.00  0.00    +0.121 A 
ATOM      4  C   UNL     1       7.721   1.448  23.416  0.00  0.00    +0.017 A 
ATOM      5  C   UNL     1       9.071   1.210  23.786  0.00  0.00    +0.028 A 
ATOM      6  C   UNL     1       9.920   2.309  24.025  0.00  0.00    +0.012 A 
ATOM      7  C   UNL     1       9.475   3.622  23.879  0.00  0.00    +0.002 A 
ATOM      8  C   UNL     1       8.161   3.866  23.502  0.00  0.00    +0.015 A 
ATOM      9  C   UNL     1       7.287   2.796  23.281  0.00  0.00    +0.023 A 
ATOM     10  I   UNL     1       5.317   3.316  22.737  0.00  0.00    -0.043 I 
ATOM     11  C   UNL     1       9.534  -0.113  23.901  0.00  0.00    +0.155 A 
ENDROOT
BRANCH   1  14
ATOM     12  N   UNL     1       8.077  -3.479  24.067  0.00  0.00    -0.299 N 
ATOM     13  H   UNL     1       7.121  -3.126  24.016  0.00  0.00    +0.150 HD
ATOM     14  C   UNL     1       9.082  -2.579  23.781  0.00  0.00    +0.266 C 
ATOM     15  O   UNL     1      10.263  -2.888  23.673  0.00  0.00    -0.268 OA
BRANCH  12  16
ATOM     16  CA  UNL     1       8.324  -4.915  24.171  0.00  0.00    +0.225 C 
BRANCH  16  17
ATOM     17  C   UNL     1       9.006  -5.283  25.488  0.00  0.00    +0.322 C 
ATOM     18  OXT UNL     1       8.435  -5.302  26.569  0.00  0.00    -0.249 OA
BRANCH  17  19
ATOM     19  O   UNL     1      10.329  -5.549  25.362  0.00  0.00    -0.480 OA
ATOM     20  H   UNL     1      10.677  -5.068  24.583  0.00  0.00    +0.295 HD
ENDBRANCH  17  19
ENDBRANCH  16  17
ENDBRANCH  12  16
ENDBRANCH   1  14
BRANCH  11  21
ATOM     21  O   UNL     1      10.848  -0.324  24.246  0.00  0.00    -0.504 OA
ATOM     22  H   UNL     1      11.102  -1.244  24.009  0.00  0.00    +0.292 HD
ENDBRANCH  11  21
TORSDOF 5
ENDMDL
MODEL 7
REMARK VINA RESULT:      -6.0      4.830      7.697
REMARK  Name = 
REMARK  5 active torsions:
REMARK  status: ('A' for Active; 'I' for Inactive)
REMARK    1  A    between atoms: O_1  and  C_2
REMARK    2  A    between atoms: C_2  and  CA_4
REMARK    3  A    between atoms: CA_4  and  N_5
REMARK    4  A    between atoms: C_6  and  CA_8
REMARK    5  A    between atoms: C_9  and  O_10
REMARK                            x       y       z     vdW  Elec       q    Type
REMARK                         _______ _______ _______ _____ _____    ______ ____
ROOT
ATOM      1  CA  UNL     1       8.964  -1.867  24.576  0.00  0.00    +0.167 A 
ATOM      2  N   UNL     1       8.281  -1.187  25.535  0.00  0.00    -0.246 NA
ATOM      3  C   UNL     1       8.229   0.158  25.378  0.00  0.00    +0.121 A 
ATOM      4  C   UNL     1       8.818   0.891  24.327  0.00  0.00    +0.017 A 
ATOM      5  C   UNL     1       9.535   0.134  23.364  0.00  0.00    +0.028 A 
ATOM      6  C   UNL     1      10.161   0.804  22.294  0.00  0.00    +0.012 A 
ATOM      7  C   UNL     1      10.068   2.186  22.142  0.00  0.00    +0.002 A 
ATOM      8  C   UNL     1       9.355   2.934  23.070  0.00  0.00    +0.015 A 
ATOM      9  C   UNL     1       8.743   2.301  24.156  0.00  0.00    +0.023 A 
ATOM     10  I   UNL     1       7.715   3.565  25.496  0.00  0.00    -0.043 I 
ATOM     11  C   UNL     1       9.603  -1.265  23.494  0.00  0.00    +0.155 A 
ENDROOT
BRANCH   1  14
ATOM     12  N   UNL     1       7.913  -3.907  25.368  0.00  0.00    -0.299 N 
ATOM     13  H   UNL     1       7.103  -3.298  25.483  0.00  0.00    +0.150 HD
ATOM     14  C   UNL     1       9.023  -3.348  24.770  0.00  0.00    +0.266 C 
ATOM     15  O   UNL     1      10.017  -3.987  24.445  0.00  0.00    -0.268 OA
BRANCH  12  16
ATOM     16  CA  UNL     1       7.786  -5.346  25.580  0.00  0.00    +0.225 C 
BRANCH  16  17
ATOM     17  C   UNL     1       6.879  -5.671  26.765  0.00  0.00    +0.322 C 
ATOM     18  OXT UNL     1       5.660  -5.583  26.735  0.00  0.00    -0.249 OA
BRANCH  17  19
ATOM     19  O   UNL     1       7.552  -6.029  27.886  0.00  0.00    -0.480 OA
ATOM     20  H   UNL     1       8.111  -6.808  27.685  0.00  0.00    +0.295 HD
ENDBRANCH  17  19
ENDBRANCH  16  17
ENDBRANCH  12  16
ENDBRANCH   1  14
BRANCH  11  21
ATOM     21  O   UNL     1      10.291  -1.983  22.545  0.00  0.00    -0.504 OA
ATOM     22  H   UNL     1      10.484  -1.401  21.775  0.00  0.00    +0.292 HD
ENDBRANCH  11  21
TORSDOF 5
ENDMDL
MODEL 8
REMARK VINA RESULT:      -5.9      4.618      7.737
REMARK  Name = 
REMARK  5 active torsions:
REMARK  status: ('A' for Active; 'I' for Inactive)
REMARK    1  A    between atoms: O_1  and  C_2
REMARK    2  A    between atoms: C_2  and  CA_4
REMARK    3  A    between atoms: CA_4  and  N_5
REMARK    4  A    between atoms: C_6  and  CA_8
REMARK    5  A    between atoms: C_9  and  O_10
REMARK                            x       y       z     vdW  Elec       q    Type
REMARK                         _______ _______ _______ _____ _____    ______ ____
ROOT
ATOM      1  CA  UNL     1       7.716  -1.742  23.309  0.00  0.00    +0.167 A 
ATOM      2  N   UNL     1       6.725  -0.876  22.970  0.00  0.00    -0.246 NA
ATOM      3  C   UNL     1       7.068   0.436  22.962  0.00  0.00    +0.121 A 
ATOM      4  C   UNL     1       8.339   0.959  23.275  0.00  0.00    +0.017 A 
ATOM      5  C   UNL     1       9.331   0.012  23.642  0.00  0.00    +0.028 A 
ATOM      6  C   UNL     1      10.621   0.468  23.981  0.00  0.00    +0.012 A 
ATOM      7  C   UNL     1      10.954   1.820  23.938  0.00  0.00    +0.002 A 
ATOM      8  C   UNL     1       9.995   2.754  23.565  0.00  0.00    +0.015 A 
ATOM      9  C   UNL     1       8.699   2.335  23.245  0.00  0.00    +0.023 A 
ATOM     10  I   UNL     1       7.344   3.864  22.721  0.00  0.00    -0.043 I 
ATOM     11  C   UNL     1       9.009  -1.357  23.654  0.00  0.00    +0.155 A 
ENDROOT
BRANCH   1  14
ATOM     12  N   UNL     1       6.120  -3.469  22.708  0.00  0.00    -0.299 N 
ATOM     13  H   UNL     1       5.693  -2.714  22.171  0.00  0.00    +0.150 HD
ATOM     14  C   UNL     1       7.319  -3.183  23.327  0.00  0.00    +0.266 C 
ATOM     15  O   UNL     1       8.012  -4.022  23.892  0.00  0.00    -0.268 OA
BRANCH  12  16
ATOM     16  CA  UNL     1       5.613  -4.834  22.587  0.00  0.00    +0.225 C 
BRANCH  16  17
ATOM     17  C   UNL     1       6.320  -5.610  21.478  0.00  0.00    +0.322 C 
ATOM     18  OXT UNL     1       5.961  -5.608  20.309  0.00  0.00    -0.249 OA
BRANCH  17  19
ATOM     19  O   UNL     1       7.371  -6.348  21.912  0.00  0.00    -0.480 OA
ATOM     20  H   UNL     1       7.120  -6.799  22.745  0.00  0.00    +0.295 HD
ENDBRANCH  17  19
ENDBRANCH  16  17
ENDBRANCH  12  16
ENDBRANCH   1  14
BRANCH  11  21
ATOM     21  O   UNL     1       9.987  -2.261  23.998  0.00  0.00    -0.504 OA
ATOM     22  H   UNL     1      10.521  -2.481  23.201  0.00  0.00    +0.292 HD
ENDBRANCH  11  21
TORSDOF 5
ENDMDL
MODEL 9
REMARK VINA RESULT:      -5.7      4.222      6.807
REMARK  Name = 
REMARK  5 active torsions:
REMARK  status: ('A' for Active; 'I' for Inactive)
REMARK    1  A    between atoms: O_1  and  C_2
REMARK    2  A    between atoms: C_2  and  CA_4
REMARK    3  A    between atoms: CA_4  and  N_5
REMARK    4  A    between atoms: C_6  and  CA_8
REMARK    5  A    between atoms: C_9  and  O_10
REMARK                            x       y       z     vdW  Elec       q    Type
REMARK                         _______ _______ _______ _____ _____    ______ ____
ROOT
ATOM      1  CA  UNL     1       9.497   0.006  23.434  0.00  0.00    +0.167 A 
ATOM      2  N   UNL     1      10.491   0.840  23.837  0.00  0.00    -0.246 NA
ATOM      3  C   UNL     1      10.202   2.164  23.792  0.00  0.00    +0.121 A 
ATOM      4  C   UNL     1       8.983   2.729  23.365  0.00  0.00    +0.017 A 
ATOM      5  C   UNL     1       7.987   1.814  22.936  0.00  0.00    +0.028 A 
ATOM      6  C   UNL     1       6.748   2.311  22.484  0.00  0.00    +0.012 A 
ATOM      7  C   UNL     1       6.469   3.676  22.474  0.00  0.00    +0.002 A 
ATOM      8  C   UNL     1       7.430   4.580  22.906  0.00  0.00    +0.015 A 
ATOM      9  C   UNL     1       8.678   4.119  23.339  0.00  0.00    +0.023 A 
ATOM     10  I   UNL     1      10.047   5.605  23.944  0.00  0.00    -0.043 I 
ATOM     11  C   UNL     1       8.253   0.434  22.977  0.00  0.00    +0.155 A 
ENDROOT
BRANCH   1  14
ATOM     12  N   UNL     1       9.210  -2.168  24.475  0.00  0.00    -0.299 N 
ATOM     13  H   UNL     1       8.472  -1.687  24.989  0.00  0.00    +0.150 HD
ATOM     14  C   UNL     1       9.835  -1.450  23.477  0.00  0.00    +0.266 C 
ATOM     15  O   UNL     1      10.642  -1.933  22.692  0.00  0.00    -0.268 OA
BRANCH  12  16
ATOM     16  CA  UNL     1       9.387  -3.611  24.623  0.00  0.00    +0.225 C 
BRANCH  16  17
ATOM     17  C   UNL     1       8.927  -4.105  25.993  0.00  0.00    +0.322 C 
ATOM     18  OXT UNL     1       7.982  -3.631  26.606  0.00  0.00    -0.249 OA
BRANCH  17  19
ATOM     19  O   UNL     1       9.693  -5.103  26.498  0.00  0.00    -0.480 OA
ATOM     20  H   UNL     1      10.402  -4.711  27.048  0.00  0.00    +0.295 HD
ENDBRANCH  17  19
ENDBRANCH  16  17
ENDBRANCH  12  16
ENDBRANCH   1  14
BRANCH  11  21
ATOM     21  O   UNL     1       7.270  -0.439  22.571  0.00  0.00    -0.504 OA
ATOM     22  H   UNL     1       7.199  -1.174  23.222  0.00  0.00    +0.292 HD
ENDBRANCH  11  21
TORSDOF 5
ENDMDL
