MODEL 1
REMARK VINA RESULT:      -7.0      0.000      0.000
REMARK  Name = 
REMARK  14 active torsions:
REMARK  status: ('A' for Active; 'I' for Inactive)
REMARK    1  A    between atoms: N_8  and  C_9
REMARK    2  A    between atoms: C_12  and  C_14
REMARK    3  A    between atoms: C_14  and  O_15
REMARK    4  A    between atoms: O_15  and  P_16
REMARK    5  A    between atoms: P_16  and  O_17
REMARK    6  A    between atoms: P_16  and  O_19
REMARK    7  A    between atoms: O_19  and  P_20
REMARK    8  A    between atoms: P_20  and  O_21
REMARK    9  A    between atoms: P_20  and  O_22
REMARK   10  A    between atoms: C_24  and  O_26
REMARK   11  A    between atoms: O_26  and  P_27
REMARK   12  A    between atoms: P_27  and  O_28
REMARK   13  A    between atoms: P_27  and  O_29
REMARK   14  A    between atoms: C_31  and  O_33
REMARK                            x       y       z     vdW  Elec       q    Type
REMARK                         _______ _______ _______ _____ _____    ______ ____
ROOT
ATOM      1  C   UNL     1       7.969  -1.222  22.876  0.00  0.00    +0.253 C 
ATOM      2  C   UNL     1       8.292  -2.679  23.273  0.00  0.00    +0.196 C 
ATOM      3  C   UNL     1       7.587  -2.899  24.616  0.00  0.00    +0.194 C 
ATOM      4  C   UNL     1       6.851  -1.585  24.846  0.00  0.00    +0.179 C 
ATOM      5  O   UNL     1       6.702  -0.989  23.545  0.00  0.00    -0.346 OA
ENDROOT
BRANCH   1  17
ATOM      6  N   UNL     1       6.873   3.856  21.932  0.00  0.00    -0.329 N 
ATOM      7  H   UNL     1       7.172   4.609  21.324  0.00  0.00    +0.145 HD
ATOM      8  H   UNL     1       6.195   3.266  21.458  0.00  0.00    +0.145 HD
ATOM      9  C   UNL     1       7.865   3.102  22.477  0.00  0.00    +0.195 A 
ATOM     10  N   UNL     1       9.053   3.747  22.773  0.00  0.00    -0.293 N 
ATOM     11  H   UNL     1       9.133   4.735  22.630  0.00  0.00    +0.172 HD
ATOM     12  C   UNL     1      10.161   3.133  23.326  0.00  0.00    +0.280 A 
ATOM     13  O   UNL     1      11.188   3.750  23.578  0.00  0.00    -0.265 OA
ATOM     14  C   UNL     1       9.966   1.699  23.517  0.00  0.00    +0.172 A 
ATOM     15  N   UNL     1      10.818   0.733  23.969  0.00  0.00    -0.229 NA
ATOM     16  C   UNL     1      10.125  -0.384  23.855  0.00  0.00    +0.203 A 
ATOM     17  N   UNL     1       8.883  -0.174  23.294  0.00  0.00    -0.285 N 
ATOM     18  C   UNL     1       8.750   1.177  23.156  0.00  0.00    +0.171 A 
ATOM     19  N   UNL     1       7.670   1.829  22.673  0.00  0.00    -0.196 NA
ENDBRANCH   1  17
BRANCH   2  20
ATOM     20  O   UNL     1       7.730  -3.636  22.349  0.00  0.00    -0.385 OA
ATOM     21  H   UNL     1       7.640  -3.222  21.473  0.00  0.00    +0.210 HD
ENDBRANCH   2  20
BRANCH   3  22
ATOM     22  O   UNL     1       8.478  -3.226  25.687  0.00  0.00    -0.278 OA
BRANCH  22  23
ATOM     23  P   UNL     1       7.920  -4.635  26.520  0.00  0.00    +0.473 P 
ATOM     24  O   UNL     1       7.420  -5.897  27.266  0.00  0.00    -0.228 OA
BRANCH  23  25
ATOM     25  O   UNL     1       9.505  -4.874  26.854  0.00  0.00    -0.303 OA
ATOM     26  H   UNL     1       9.776  -4.407  27.664  0.00  0.00    +0.222 HD
ENDBRANCH  23  25
BRANCH  23  27
ATOM     27  O   UNL     1       8.015  -5.328  25.041  0.00  0.00    -0.303 OA
ATOM     28  H   UNL     1       7.431  -4.807  24.461  0.00  0.00    +0.222 HD
ENDBRANCH  23  27
ENDBRANCH  22  23
ENDBRANCH   3  22
BRANCH   4  29
ATOM     29  C   UNL     1       5.484  -1.767  25.474  0.00  0.00    +0.206 C 
BRANCH  29  30
ATOM     30  O   UNL     1       4.674  -2.480  24.570  0.00  0.00    -0.284 OA
BRANCH  30  31
ATOM     31  P   UNL     1       3.691  -3.575  25.171  0.00  0.00    +0.483 P 
ATOM     32  O   UNL     1       4.160  -4.313  26.372  0.00  0.00    -0.227 OA
BRANCH  31  33
ATOM     33  O   UNL     1       2.361  -2.729  25.476  0.00  0.00    -0.302 OA
ATOM     34  H   UNL     1       1.560  -3.188  25.150  0.00  0.00    +0.222 HD
ENDBRANCH  31  33
BRANCH  31  35
ATOM     35  O   UNL     1       3.255  -4.466  23.906  0.00  0.00    -0.186 OA
BRANCH  35  36
ATOM     36  P   UNL     1       4.699  -5.276  23.404  0.00  0.00    +0.481 P 
ATOM     37  O   UNL     1       5.991  -6.002  22.955  0.00  0.00    -0.227 OA
BRANCH  36  38
ATOM     38  O   UNL     1       4.804  -4.049  22.328  0.00  0.00    -0.302 OA
ATOM     39  H   UNL     1       3.916  -3.803  22.019  0.00  0.00    +0.222 HD
ENDBRANCH  36  38
BRANCH  36  40
ATOM     40  O   UNL     1       3.685  -6.224  22.531  0.00  0.00    -0.302 OA
ATOM     41  H   UNL     1       3.504  -5.824  21.659  0.00  0.00    +0.222 HD
ENDBRANCH  36  40
ENDBRANCH  35  36
ENDBRANCH  31  35
ENDBRANCH  30  31
ENDBRANCH  29  30
ENDBRANCH   4  29
TORSDOF 14
ENDMDL
MODEL 2
REMARK VINA RESULT:      -7.0      2.061      3.453
REMARK  Name = 
REMARK  14 active torsions:
REMARK  status: ('A' for Active; 'I' for Inactive)
REMARK    1  A    between atoms: N_8  and  C_9
REMARK    2  A    between atoms: C_12  and  C_14
REMARK    3  A    between atoms: C_14  and  O_15
REMARK    4  A    between atoms: O_15  and  P_16
REMARK    5  A    between atoms: P_16  and  O_17
REMARK    6  A    between atoms: P_16  and  O_19
REMARK    7  A    between atoms: O_19  and  P_20
REMARK    8  A    between atoms: P_20  and  O_21
REMARK    9  A    between atoms: P_20  and  O_22
REMARK   10  A    between atoms: C_24  and  O_26
REMARK   11  A    between atoms: O_26  and  P_27
REMARK   12  A    between atoms: P_27  and  O_28
REMARK   13  A    between atoms: P_27  and  O_29
REMARK   14  A    between atoms: C_31  and  O_33
REMARK                            x       y       z     vdW  Elec       q    Type
REMARK                         _______ _______ _______ _____ _____    ______ ____
ROOT
ATOM      1  C   UNL     1       7.014  -2.949  22.297  0.00  0.00    +0.253 C 
ATOM      2  C   UNL     1       7.404  -4.436  22.152  0.00  0.00    +0.196 C 
ATOM      3  C   UNL     1       7.094  -5.071  23.511  0.00  0.00    +0.194 C 
ATOM      4  C   UNL     1       6.478  -3.924  24.303  0.00  0.00    +0.179 C 
ATOM      5  O   UNL     1       5.986  -2.994  23.322  0.00  0.00    -0.346 OA
ENDROOT
BRANCH   1  17
ATOM      6  N   UNL     1       5.850   2.153  22.998  0.00  0.00    -0.329 N 
ATOM      7  H   UNL     1       6.010   3.049  22.552  0.00  0.00    +0.145 HD
ATOM      8  H   UNL     1       5.061   1.679  22.568  0.00  0.00    +0.145 HD
ATOM      9  C   UNL     1       6.926   1.324  23.070  0.00  0.00    +0.195 A 
ATOM     10  N   UNL     1       8.166   1.918  23.226  0.00  0.00    -0.293 N 
ATOM     11  H   UNL     1       8.234   2.912  23.328  0.00  0.00    +0.172 HD
ATOM     12  C   UNL     1       9.360   1.226  23.314  0.00  0.00    +0.280 A 
ATOM     13  O   UNL     1      10.433   1.798  23.459  0.00  0.00    -0.265 OA
ATOM     14  C   UNL     1       9.181  -0.215  23.168  0.00  0.00    +0.172 A 
ATOM     15  N   UNL     1      10.093  -1.230  23.131  0.00  0.00    -0.229 NA
ATOM     16  C   UNL     1       9.365  -2.307  22.905  0.00  0.00    +0.203 A 
ATOM     17  N   UNL     1       8.029  -2.008  22.737  0.00  0.00    -0.285 N 
ATOM     18  C   UNL     1       7.901  -0.674  22.991  0.00  0.00    +0.171 A 
ATOM     19  N   UNL     1       6.753   0.038  22.971  0.00  0.00    -0.196 NA
ENDBRANCH   1  17
BRANCH   2  20
ATOM     20  O   UNL     1       6.588  -5.124  21.179  0.00  0.00    -0.385 OA
ATOM     21  H   UNL     1       6.538  -6.068  21.412  0.00  0.00    +0.210 HD
ENDBRANCH   2  20
BRANCH   3  22
ATOM     22  O   UNL     1       8.240  -5.633  24.158  0.00  0.00    -0.278 OA
BRANCH  22  23
ATOM     23  P   UNL     1       8.702  -4.659  25.511  0.00  0.00    +0.473 P 
ATOM     24  O   UNL     1       9.115  -3.787  26.722  0.00  0.00    -0.228 OA
BRANCH  23  25
ATOM     25  O   UNL     1      10.221  -5.146  25.144  0.00  0.00    -0.303 OA
ATOM     26  H   UNL     1      10.595  -4.631  24.407  0.00  0.00    +0.222 HD
ENDBRANCH  23  25
BRANCH  23  27
ATOM     27  O   UNL     1       8.360  -6.009  26.371  0.00  0.00    -0.303 OA
ATOM     28  H   UNL     1       8.825  -5.911  27.221  0.00  0.00    +0.222 HD
ENDBRANCH  23  27
ENDBRANCH  22  23
ENDBRANCH   3  22
BRANCH   4  29
ATOM     29  C   UNL     1       5.334  -4.361  25.197  0.00  0.00    +0.206 C 
BRANCH  29  30
ATOM     30  O   UNL     1       5.510  -5.722  25.507  0.00  0.00    -0.284 OA
BRANCH  30  31
ATOM     31  P   UNL     1       4.663  -6.317  26.714  0.00  0.00    +0.483 P 
ATOM     32  O   UNL     1       3.764  -5.377  27.430  0.00  0.00    -0.227 OA
BRANCH  31  33
ATOM     33  O   UNL     1       3.844  -7.509  26.017  0.00  0.00    -0.302 OA
ATOM     34  H   UNL     1       2.898  -7.280  25.908  0.00  0.00    +0.222 HD
ENDBRANCH  31  33
BRANCH  31  35
ATOM     35  O   UNL     1       5.737  -7.108  27.611  0.00  0.00    -0.186 OA
BRANCH  35  36
ATOM     36  P   UNL     1       5.761  -6.275  29.127  0.00  0.00    +0.481 P 
ATOM     37  O   UNL     1       5.783  -5.530  30.484  0.00  0.00    -0.227 OA
BRANCH  36  38
ATOM     38  O   UNL     1       6.673  -5.187  28.314  0.00  0.00    -0.302 OA
ATOM     39  H   UNL     1       7.465  -5.622  27.955  0.00  0.00    +0.222 HD
ENDBRANCH  36  38
BRANCH  36  40
ATOM     40  O   UNL     1       6.974  -7.311  29.507  0.00  0.00    -0.302 OA
ATOM     41  H   UNL     1       7.145  -7.305  30.468  0.00  0.00    +0.222 HD
ENDBRANCH  36  40
ENDBRANCH  35  36
ENDBRANCH  31  35
ENDBRANCH  30  31
ENDBRANCH  29  30
ENDBRANCH   4  29
TORSDOF 14
ENDMDL
MODEL 3
REMARK VINA RESULT:      -6.9      3.779      7.416
REMARK  Name = 
REMARK  14 active torsions:
REMARK  status: ('A' for Active; 'I' for Inactive)
REMARK    1  A    between atoms: N_8  and  C_9
REMARK    2  A    between atoms: C_12  and  C_14
REMARK    3  A    between atoms: C_14  and  O_15
REMARK    4  A    between atoms: O_15  and  P_16
REMARK    5  A    between atoms: P_16  and  O_17
REMARK    6  A    between atoms: P_16  and  O_19
REMARK    7  A    between atoms: O_19  and  P_20
REMARK    8  A    between atoms: P_20  and  O_21
REMARK    9  A    between atoms: P_20  and  O_22
REMARK   10  A    between atoms: C_24  and  O_26
REMARK   11  A    between atoms: O_26  and  P_27
REMARK   12  A    between atoms: P_27  and  O_28
REMARK   13  A    between atoms: P_27  and  O_29
REMARK   14  A    between atoms: C_31  and  O_33
REMARK                            x       y       z     vdW  Elec       q    Type
REMARK                         _______ _______ _______ _____ _____    ______ ____
ROOT
ATOM      1  C   UNL     1       9.474  -2.693  23.467  0.00  0.00    +0.253 C 
ATOM      2  C   UNL     1       8.799  -1.865  22.353  0.00  0.00    +0.196 C 
ATOM      3  C   UNL     1       8.515  -0.496  22.982  0.00  0.00    +0.194 C 
ATOM      4  C   UNL     1       9.120  -0.617  24.376  0.00  0.00    +0.179 C 
ATOM      5  O   UNL     1      10.098  -1.669  24.286  0.00  0.00    -0.346 OA
ENDROOT
BRANCH   1  17
ATOM      6  N   UNL     1       5.911  -6.031  21.457  0.00  0.00    -0.329 N 
ATOM      7  H   UNL     1       4.907  -6.112  21.343  0.00  0.00    +0.145 HD
ATOM      8  H   UNL     1       6.308  -5.465  20.712  0.00  0.00    +0.145 HD
ATOM      9  C   UNL     1       6.340  -5.592  22.670  0.00  0.00    +0.195 A 
ATOM     10  N   UNL     1       5.587  -5.959  23.772  0.00  0.00    -0.293 N 
ATOM     11  H   UNL     1       4.795  -6.562  23.657  0.00  0.00    +0.172 HD
ATOM     12  C   UNL     1       5.876  -5.599  25.074  0.00  0.00    +0.280 A 
ATOM     13  O   UNL     1       5.182  -5.955  26.018  0.00  0.00    -0.265 OA
ATOM     14  C   UNL     1       7.047  -4.731  25.165  0.00  0.00    +0.172 A 
ATOM     15  N   UNL     1       7.621  -4.113  26.238  0.00  0.00    -0.229 NA
ATOM     16  C   UNL     1       8.600  -3.401  25.712  0.00  0.00    +0.203 A 
ATOM     17  N   UNL     1       8.634  -3.497  24.337  0.00  0.00    -0.285 N 
ATOM     18  C   UNL     1       7.689  -4.419  23.995  0.00  0.00    +0.171 A 
ATOM     19  N   UNL     1       7.403  -4.845  22.745  0.00  0.00    -0.196 NA
ENDBRANCH   1  17
BRANCH   2  20
ATOM     20  O   UNL     1       9.679  -1.630  21.233  0.00  0.00    -0.385 OA
ATOM     21  H   UNL     1       9.149  -1.550  20.420  0.00  0.00    +0.210 HD
ENDBRANCH   2  20
BRANCH   3  22
ATOM     22  O   UNL     1       7.126  -0.153  23.013  0.00  0.00    -0.278 OA
BRANCH  22  23
ATOM     23  P   UNL     1       6.476  -0.431  24.591  0.00  0.00    +0.473 P 
ATOM     24  O   UNL     1       5.893  -0.681  26.005  0.00  0.00    -0.228 OA
BRANCH  23  25
ATOM     25  O   UNL     1       5.605  -1.607  23.854  0.00  0.00    -0.303 OA
ATOM     26  H   UNL     1       4.674  -1.594  24.137  0.00  0.00    +0.222 HD
ENDBRANCH  23  25
BRANCH  23  27
ATOM     27  O   UNL     1       5.430   0.755  24.173  0.00  0.00    -0.303 OA
ATOM     28  H   UNL     1       4.632   0.613  24.713  0.00  0.00    +0.222 HD
ENDBRANCH  23  27
ENDBRANCH  22  23
ENDBRANCH   3  22
BRANCH   4  29
ATOM     29  C   UNL     1       9.794   0.656  24.847  0.00  0.00    +0.206 C 
BRANCH  29  30
ATOM     30  O   UNL     1      10.571   1.163  23.789  0.00  0.00    -0.284 OA
BRANCH  30  31
ATOM     31  P   UNL     1      10.283   2.652  23.314  0.00  0.00    +0.483 P 
ATOM     32  O   UNL     1      11.417   3.609  23.376  0.00  0.00    -0.227 OA
BRANCH  31  33
ATOM     33  O   UNL     1       9.758   2.448  21.811  0.00  0.00    -0.302 OA
ATOM     34  H   UNL     1       9.292   3.244  21.481  0.00  0.00    +0.222 HD
ENDBRANCH  31  33
BRANCH  31  35
ATOM     35  O   UNL     1       8.943   3.075  24.096  0.00  0.00    -0.186 OA
BRANCH  35  36
ATOM     36  P   UNL     1       7.771   3.371  22.858  0.00  0.00    +0.481 P 
ATOM     37  O   UNL     1       6.722   3.636  21.752  0.00  0.00    -0.227 OA
BRANCH  36  38
ATOM     38  O   UNL     1       8.458   4.855  22.809  0.00  0.00    -0.302 OA
ATOM     39  H   UNL     1       8.756   5.052  21.905  0.00  0.00    +0.222 HD
ENDBRANCH  36  38
BRANCH  36  40
ATOM     40  O   UNL     1       6.748   3.663  24.106  0.00  0.00    -0.302 OA
ATOM     41  H   UNL     1       7.196   4.173  24.808  0.00  0.00    +0.222 HD
ENDBRANCH  36  40
ENDBRANCH  35  36
ENDBRANCH  31  35
ENDBRANCH  30  31
ENDBRANCH  29  30
ENDBRANCH   4  29
TORSDOF 14
ENDMDL
MODEL 4
REMARK VINA RESULT:      -6.9      1.807      2.432
REMARK  Name = 
REMARK  14 active torsions:
REMARK  status: ('A' for Active; 'I' for Inactive)
REMARK    1  A    between atoms: N_8  and  C_9
REMARK    2  A    between atoms: C_12  and  C_14
REMARK    3  A    between atoms: C_14  and  O_15
REMARK    4  A    between atoms: O_15  and  P_16
REMARK    5  A    between atoms: P_16  and  O_17
REMARK    6  A    between atoms: P_16  and  O_19
REMARK    7  A    between atoms: O_19  and  P_20
REMARK    8  A    between atoms: P_20  and  O_21
REMARK    9  A    between atoms: P_20  and  O_22
REMARK   10  A    between atoms: C_24  and  O_26
REMARK   11  A    between atoms: O_26  and  P_27
REMARK   12  A    between atoms: P_27  and  O_28
REMARK   13  A    between atoms: P_27  and  O_29
REMARK   14  A    between atoms: C_31  and  O_33
REMARK                            x       y       z     vdW  Elec       q    Type
REMARK                         _______ _______ _______ _____ _____    ______ ____
ROOT
ATOM      1  C   UNL     1       6.690  -2.634  22.403  0.00  0.00    +0.253 C 
ATOM      2  C   UNL     1       6.999  -4.132  22.197  0.00  0.00    +0.196 C 
ATOM      3  C   UNL     1       7.089  -4.726  23.607  0.00  0.00    +0.194 C 
ATOM      4  C   UNL     1       6.746  -3.545  24.508  0.00  0.00    +0.179 C 
ATOM      5  O   UNL     1       6.004  -2.629  23.683  0.00  0.00    -0.346 OA
ENDROOT
BRANCH   1  17
ATOM      6  N   UNL     1       5.850   2.565  22.782  0.00  0.00    -0.329 N 
ATOM      7  H   UNL     1       5.927   3.403  22.217  0.00  0.00    +0.145 HD
ATOM      8  H   UNL     1       4.971   2.090  22.593  0.00  0.00    +0.145 HD
ATOM      9  C   UNL     1       6.891   1.695  22.704  0.00  0.00    +0.195 A 
ATOM     10  N   UNL     1       8.149   2.238  22.513  0.00  0.00    -0.293 N 
ATOM     11  H   UNL     1       8.265   3.232  22.488  0.00  0.00    +0.172 HD
ATOM     12  C   UNL     1       9.313   1.500  22.408  0.00  0.00    +0.280 A 
ATOM     13  O   UNL     1      10.407   2.028  22.247  0.00  0.00    -0.265 OA
ATOM     14  C   UNL     1       9.069   0.062  22.465  0.00  0.00    +0.172 A 
ATOM     15  N   UNL     1       9.922  -0.996  22.338  0.00  0.00    -0.229 NA
ATOM     16  C   UNL     1       9.133  -2.052  22.398  0.00  0.00    +0.203 A 
ATOM     17  N   UNL     1       7.802  -1.706  22.500  0.00  0.00    -0.285 N 
ATOM     18  C   UNL     1       7.771  -0.348  22.628  0.00  0.00    +0.171 A 
ATOM     19  N   UNL     1       6.666   0.415  22.787  0.00  0.00    -0.196 NA
ENDBRANCH   1  17
BRANCH   2  20
ATOM     20  O   UNL     1       5.926  -4.826  21.524  0.00  0.00    -0.385 OA
ATOM     21  H   UNL     1       5.369  -4.179  21.056  0.00  0.00    +0.210 HD
ENDBRANCH   2  20
BRANCH   3  22
ATOM     22  O   UNL     1       8.365  -5.297  23.910  0.00  0.00    -0.278 OA
BRANCH  22  23
ATOM     23  P   UNL     1       8.958  -4.674  25.411  0.00  0.00    +0.473 P 
ATOM     24  O   UNL     1       9.490  -4.117  26.755  0.00  0.00    -0.228 OA
BRANCH  23  25
ATOM     25  O   UNL     1      10.428  -5.102  24.828  0.00  0.00    -0.303 OA
ATOM     26  H   UNL     1      11.078  -4.386  24.935  0.00  0.00    +0.222 HD
ENDBRANCH  23  25
BRANCH  23  27
ATOM     27  O   UNL     1       8.619  -6.177  25.962  0.00  0.00    -0.303 OA
ATOM     28  H   UNL     1       9.339  -6.407  26.576  0.00  0.00    +0.222 HD
ENDBRANCH  23  27
ENDBRANCH  22  23
ENDBRANCH   3  22
BRANCH   4  29
ATOM     29  C   UNL     1       5.906  -3.933  25.708  0.00  0.00    +0.206 C 
BRANCH  29  30
ATOM     30  O   UNL     1       5.055  -4.988  25.330  0.00  0.00    -0.284 OA
BRANCH  30  31
ATOM     31  P   UNL     1       4.862  -6.182  26.361  0.00  0.00    +0.483 P 
ATOM     32  O   UNL     1       6.040  -6.554  27.187  0.00  0.00    -0.227 OA
BRANCH  31  33
ATOM     33  O   UNL     1       3.638  -5.674  27.266  0.00  0.00    -0.302 OA
ATOM     34  H   UNL     1       2.945  -5.243  26.724  0.00  0.00    +0.222 HD
ENDBRANCH  31  33
BRANCH  31  35
ATOM     35  O   UNL     1       4.192  -7.360  25.497  0.00  0.00    -0.186 OA
BRANCH  35  36
ATOM     36  P   UNL     1       3.699  -6.611  24.017  0.00  0.00    +0.481 P 
ATOM     37  O   UNL     1       3.260  -5.940  22.693  0.00  0.00    -0.227 OA
BRANCH  36  38
ATOM     38  O   UNL     1       2.816  -7.974  23.826  0.00  0.00    -0.302 OA
ATOM     39  H   UNL     1       1.915  -7.834  24.160  0.00  0.00    +0.222 HD
ENDBRANCH  36  38
BRANCH  36  40
ATOM     40  O   UNL     1       5.110  -7.199  23.424  0.00  0.00    -0.302 OA
ATOM     41  H   UNL     1       5.862  -6.918  23.979  0.00  0.00    +0.222 HD
ENDBRANCH  36  40
ENDBRANCH  35  36
ENDBRANCH  31  35
ENDBRANCH  30  31
ENDBRANCH  29  30
ENDBRANCH   4  29
TORSDOF 14
ENDMDL
MODEL 5
REMARK VINA RESULT:      -6.9      2.414      3.638
REMARK  Name = 
REMARK  14 active torsions:
REMARK  status: ('A' for Active; 'I' for Inactive)
REMARK    1  A    between atoms: N_8  and  C_9
REMARK    2  A    between atoms: C_12  and  C_14
REMARK    3  A    between atoms: C_14  and  O_15
REMARK    4  A    between atoms: O_15  and  P_16
REMARK    5  A    between atoms: P_16  and  O_17
REMARK    6  A    between atoms: P_16  and  O_19
REMARK    7  A    between atoms: O_19  and  P_20
REMARK    8  A    between atoms: P_20  and  O_21
REMARK    9  A    between atoms: P_20  and  O_22
REMARK   10  A    between atoms: C_24  and  O_26
REMARK   11  A    between atoms: O_26  and  P_27
REMARK   12  A    between atoms: P_27  and  O_28
REMARK   13  A    between atoms: P_27  and  O_29
REMARK   14  A    between atoms: C_31  and  O_33
REMARK                            x       y       z     vdW  Elec       q    Type
REMARK                         _______ _______ _______ _____ _____    ______ ____
ROOT
ATOM      1  C   UNL     1       5.504  -3.187  23.167  0.00  0.00    +0.253 C 
ATOM      2  C   UNL     1       6.414  -4.150  22.374  0.00  0.00    +0.196 C 
ATOM      3  C   UNL     1       6.868  -5.205  23.388  0.00  0.00    +0.194 C 
ATOM      4  C   UNL     1       6.123  -4.815  24.659  0.00  0.00    +0.179 C 
ATOM      5  O   UNL     1       4.992  -4.039  24.225  0.00  0.00    -0.346 OA
ENDROOT
BRANCH   1  17
ATOM      6  N   UNL     1      10.058  -1.206  21.375  0.00  0.00    -0.329 N 
ATOM      7  H   UNL     1      11.036  -1.159  21.637  0.00  0.00    +0.145 HD
ATOM      8  H   UNL     1       9.859  -2.084  20.904  0.00  0.00    +0.145 HD
ATOM      9  C   UNL     1       9.162  -0.984  22.373  0.00  0.00    +0.195 A 
ATOM     10  N   UNL     1       9.530  -0.085  23.358  0.00  0.00    -0.293 N 
ATOM     11  H   UNL     1      10.402   0.404  23.287  0.00  0.00    +0.172 HD
ATOM     12  C   UNL     1       8.744   0.254  24.444  0.00  0.00    +0.280 A 
ATOM     13  O   UNL     1       9.112   1.063  25.287  0.00  0.00    -0.265 OA
ATOM     14  C   UNL     1       7.488  -0.488  24.474  0.00  0.00    +0.172 A 
ATOM     15  N   UNL     1       6.476  -0.497  25.391  0.00  0.00    -0.229 NA
ATOM     16  C   UNL     1       5.639  -1.411  24.937  0.00  0.00    +0.203 A 
ATOM     17  N   UNL     1       6.108  -2.026  23.794  0.00  0.00    -0.285 N 
ATOM     18  C   UNL     1       7.255  -1.371  23.452  0.00  0.00    +0.171 A 
ATOM     19  N   UNL     1       8.030  -1.627  22.375  0.00  0.00    -0.196 NA
ENDBRANCH   1  17
BRANCH   2  20
ATOM     20  O   UNL     1       5.696  -4.855  21.338  0.00  0.00    -0.385 OA
ATOM     21  H   UNL     1       6.231  -4.861  20.524  0.00  0.00    +0.210 HD
ENDBRANCH   2  20
BRANCH   3  22
ATOM     22  O   UNL     1       8.286  -5.252  23.574  0.00  0.00    -0.278 OA
BRANCH  22  23
ATOM     23  P   UNL     1       8.704  -4.658  25.144  0.00  0.00    +0.473 P 
ATOM     24  O   UNL     1       9.079  -4.126  26.549  0.00  0.00    -0.228 OA
BRANCH  23  25
ATOM     25  O   UNL     1       9.732  -3.679  24.327  0.00  0.00    -0.303 OA
ATOM     26  H   UNL     1       9.723  -3.867  23.372  0.00  0.00    +0.222 HD
ENDBRANCH  23  25
BRANCH  23  27
ATOM     27  O   UNL     1       9.742  -5.923  25.148  0.00  0.00    -0.303 OA
ATOM     28  H   UNL     1      10.626  -5.545  25.305  0.00  0.00    +0.222 HD
ENDBRANCH  23  27
ENDBRANCH  22  23
ENDBRANCH   3  22
BRANCH   4  29
ATOM     29  C   UNL     1       5.636  -6.008  25.457  0.00  0.00    +0.206 C 
BRANCH  29  30
ATOM     30  O   UNL     1       4.904  -6.847  24.597  0.00  0.00    -0.284 OA
BRANCH  30  31
ATOM     31  P   UNL     1       3.443  -7.274  25.054  0.00  0.00    +0.483 P 
ATOM     32  O   UNL     1       2.867  -8.486  24.418  0.00  0.00    -0.227 OA
BRANCH  31  33
ATOM     33  O   UNL     1       3.609  -7.457  26.640  0.00  0.00    -0.302 OA
ATOM     34  H   UNL     1       2.775  -7.760  27.057  0.00  0.00    +0.222 HD
ENDBRANCH  31  33
BRANCH  31  35
ATOM     35  O   UNL     1       2.575  -5.926  24.948  0.00  0.00    -0.186 OA
BRANCH  35  36
ATOM     36  P   UNL     1       1.674  -6.083  23.479  0.00  0.00    +0.481 P 
ATOM     37  O   UNL     1       0.868  -6.223  22.165  0.00  0.00    -0.227 OA
BRANCH  36  38
ATOM     38  O   UNL     1       3.112  -5.759  22.769  0.00  0.00    -0.302 OA
ATOM     39  H   UNL     1       3.259  -4.798  22.744  0.00  0.00    +0.222 HD
ENDBRANCH  36  38
BRANCH  36  40
ATOM     40  O   UNL     1       1.233  -4.529  23.759  0.00  0.00    -0.302 OA
ATOM     41  H   UNL     1       1.929  -4.055  24.252  0.00  0.00    +0.222 HD
ENDBRANCH  36  40
ENDBRANCH  35  36
ENDBRANCH  31  35
ENDBRANCH  30  31
ENDBRANCH  29  30
ENDBRANCH   4  29
TORSDOF 14
ENDMDL
MODEL 6
REMARK VINA RESULT:      -6.9      2.122      3.696
REMARK  Name = 
REMARK  14 active torsions:
REMARK  status: ('A' for Active; 'I' for Inactive)
REMARK    1  A    between atoms: N_8  and  C_9
REMARK    2  A    between atoms: C_12  and  C_14
REMARK    3  A    between atoms: C_14  and  O_15
REMARK    4  A    between atoms: O_15  and  P_16
REMARK    5  A    between atoms: P_16  and  O_17
REMARK    6  A    between atoms: P_16  and  O_19
REMARK    7  A    between atoms: O_19  and  P_20
REMARK    8  A    between atoms: P_20  and  O_21
REMARK    9  A    between atoms: P_20  and  O_22
REMARK   10  A    between atoms: C_24  and  O_26
REMARK   11  A    between atoms: O_26  and  P_27
REMARK   12  A    between atoms: P_27  and  O_28
REMARK   13  A    between atoms: P_27  and  O_29
REMARK   14  A    between atoms: C_31  and  O_33
REMARK                            x       y       z     vdW  Elec       q    Type
REMARK                         _______ _______ _______ _____ _____    ______ ____
ROOT
ATOM      1  C   UNL     1       8.858  -3.871  24.950  0.00  0.00    +0.253 C 
ATOM      2  C   UNL     1       8.366  -4.859  26.030  0.00  0.00    +0.196 C 
ATOM      3  C   UNL     1       6.921  -5.194  25.646  0.00  0.00    +0.194 C 
ATOM      4  C   UNL     1       6.722  -4.440  24.336  0.00  0.00    +0.179 C 
ATOM      5  O   UNL     1       8.042  -4.229  23.803  0.00  0.00    -0.346 OA
ENDROOT
BRANCH   1  17
ATOM      6  N   UNL     1       9.597  -0.381  21.058  0.00  0.00    -0.329 N 
ATOM      7  H   UNL     1      10.270   0.319  20.766  0.00  0.00    +0.145 HD
ATOM      8  H   UNL     1       9.889  -1.304  20.749  0.00  0.00    +0.145 HD
ATOM      9  C   UNL     1       9.289  -0.395  22.382  0.00  0.00    +0.195 A 
ATOM     10  N   UNL     1       9.290   0.823  23.040  0.00  0.00    -0.293 N 
ATOM     11  H   UNL     1       9.464   1.666  22.528  0.00  0.00    +0.172 HD
ATOM     12  C   UNL     1       9.004   0.989  24.381  0.00  0.00    +0.280 A 
ATOM     13  O   UNL     1       9.010   2.091  24.917  0.00  0.00    -0.265 OA
ATOM     14  C   UNL     1       8.750  -0.278  25.058  0.00  0.00    +0.172 A 
ATOM     15  N   UNL     1       8.497  -0.557  26.371  0.00  0.00    -0.229 NA
ATOM     16  C   UNL     1       8.426  -1.874  26.411  0.00  0.00    +0.203 A 
ATOM     17  N   UNL     1       8.683  -2.449  25.184  0.00  0.00    -0.285 N 
ATOM     18  C   UNL     1       8.807  -1.418  24.298  0.00  0.00    +0.171 A 
ATOM     19  N   UNL     1       9.033  -1.528  22.970  0.00  0.00    -0.196 NA
ENDBRANCH   1  17
BRANCH   2  20
ATOM     20  O   UNL     1       9.098  -6.103  26.010  0.00  0.00    -0.385 OA
ATOM     21  H   UNL     1       8.515  -6.814  25.689  0.00  0.00    +0.210 HD
ENDBRANCH   2  20
BRANCH   3  22
ATOM     22  O   UNL     1       5.961  -4.829  26.642  0.00  0.00    -0.278 OA
BRANCH  22  23
ATOM     23  P   UNL     1       5.765  -6.115  27.783  0.00  0.00    +0.473 P 
ATOM     24  O   UNL     1       5.590  -7.266  28.804  0.00  0.00    -0.228 OA
BRANCH  23  25
ATOM     25  O   UNL     1       5.315  -6.995  26.477  0.00  0.00    -0.303 OA
ATOM     26  H   UNL     1       5.516  -7.940  26.595  0.00  0.00    +0.222 HD
ENDBRANCH  23  25
BRANCH  23  27
ATOM     27  O   UNL     1       4.279  -5.463  27.991  0.00  0.00    -0.303 OA
ATOM     28  H   UNL     1       4.296  -4.602  27.535  0.00  0.00    +0.222 HD
ENDBRANCH  23  27
ENDBRANCH  22  23
ENDBRANCH   3  22
BRANCH   4  29
ATOM     29  C   UNL     1       5.890  -5.205  23.326  0.00  0.00    +0.206 C 
BRANCH  29  30
ATOM     30  O   UNL     1       4.565  -4.739  23.401  0.00  0.00    -0.284 OA
BRANCH  30  31
ATOM     31  P   UNL     1       3.424  -5.811  23.677  0.00  0.00    +0.483 P 
ATOM     32  O   UNL     1       2.297  -5.859  22.710  0.00  0.00    -0.227 OA
BRANCH  31  33
ATOM     33  O   UNL     1       4.238  -7.194  23.710  0.00  0.00    -0.302 OA
ATOM     34  H   UNL     1       4.691  -7.365  22.858  0.00  0.00    +0.222 HD
ENDBRANCH  31  33
BRANCH  31  35
ATOM     35  O   UNL     1       3.034  -5.600  25.223  0.00  0.00    -0.186 OA
BRANCH  35  36
ATOM     36  P   UNL     1       2.201  -4.084  25.275  0.00  0.00    +0.481 P 
ATOM     37  O   UNL     1       1.455  -2.729  25.323  0.00  0.00    -0.227 OA
BRANCH  36  38
ATOM     38  O   UNL     1       3.646  -3.508  25.782  0.00  0.00    -0.302 OA
ATOM     39  H   UNL     1       3.544  -2.597  26.105  0.00  0.00    +0.222 HD
ENDBRANCH  36  38
BRANCH  36  40
ATOM     40  O   UNL     1       1.666  -4.600  26.737  0.00  0.00    -0.302 OA
ATOM     41  H   UNL     1       0.838  -4.145  26.982  0.00  0.00    +0.222 HD
ENDBRANCH  36  40
ENDBRANCH  35  36
ENDBRANCH  31  35
ENDBRANCH  30  31
ENDBRANCH  29  30
ENDBRANCH   4  29
TORSDOF 14
ENDMDL
MODEL 7
REMARK VINA RESULT:      -6.8      4.150      7.546
REMARK  Name = 
REMARK  14 active torsions:
REMARK  status: ('A' for Active; 'I' for Inactive)
REMARK    1  A    between atoms: N_8  and  C_9
REMARK    2  A    between atoms: C_12  and  C_14
REMARK    3  A    between atoms: C_14  and  O_15
REMARK    4  A    between atoms: O_15  and  P_16
REMARK    5  A    between atoms: P_16  and  O_17
REMARK    6  A    between atoms: P_16  and  O_19
REMARK    7  A    between atoms: O_19  and  P_20
REMARK    8  A    between atoms: P_20  and  O_21
REMARK    9  A    between atoms: P_20  and  O_22
REMARK   10  A    between atoms: C_24  and  O_26
REMARK   11  A    between atoms: O_26  and  P_27
REMARK   12  A    between atoms: P_27  and  O_28
REMARK   13  A    between atoms: P_27  and  O_29
REMARK   14  A    between atoms: C_31  and  O_33
REMARK                            x       y       z     vdW  Elec       q    Type
REMARK                         _______ _______ _______ _____ _____    ______ ____
ROOT
ATOM      1  C   UNL     1       8.494  -3.927  26.028  0.00  0.00    +0.253 C 
ATOM      2  C   UNL     1       8.539  -5.252  25.238  0.00  0.00    +0.196 C 
ATOM      3  C   UNL     1       8.091  -4.893  23.817  0.00  0.00    +0.194 C 
ATOM      4  C   UNL     1       7.903  -3.381  23.880  0.00  0.00    +0.179 C 
ATOM      5  O   UNL     1       8.704  -2.935  24.989  0.00  0.00    -0.346 OA
ENDROOT
BRANCH   1  17
ATOM      6  N   UNL     1       5.715  -7.598  28.613  0.00  0.00    -0.329 N 
ATOM      7  H   UNL     1       4.852  -8.121  28.518  0.00  0.00    +0.145 HD
ATOM      8  H   UNL     1       6.459  -8.043  28.083  0.00  0.00    +0.145 HD
ATOM      9  C   UNL     1       5.643  -6.273  28.317  0.00  0.00    +0.195 A 
ATOM     10  N   UNL     1       4.454  -5.628  28.609  0.00  0.00    -0.293 N 
ATOM     11  H   UNL     1       3.715  -6.127  29.065  0.00  0.00    +0.172 HD
ATOM     12  C   UNL     1       4.210  -4.288  28.371  0.00  0.00    +0.280 A 
ATOM     13  O   UNL     1       3.142  -3.761  28.656  0.00  0.00    -0.265 OA
ATOM     14  C   UNL     1       5.334  -3.625  27.718  0.00  0.00    +0.172 A 
ATOM     15  N   UNL     1       5.476  -2.346  27.262  0.00  0.00    -0.229 NA
ATOM     16  C   UNL     1       6.668  -2.337  26.697  0.00  0.00    +0.203 A 
ATOM     17  N   UNL     1       7.269  -3.579  26.724  0.00  0.00    -0.285 N 
ATOM     18  C   UNL     1       6.446  -4.384  27.457  0.00  0.00    +0.171 A 
ATOM     19  N   UNL     1       6.663  -5.682  27.763  0.00  0.00    -0.196 NA
ENDBRANCH   1  17
BRANCH   2  20
ATOM     20  O   UNL     1       9.878  -5.781  25.127  0.00  0.00    -0.385 OA
ATOM     21  H   UNL     1      10.096  -6.275  25.937  0.00  0.00    +0.210 HD
ENDBRANCH   2  20
BRANCH   3  22
ATOM     22  O   UNL     1       6.907  -5.578  23.396  0.00  0.00    -0.278 OA
BRANCH  22  23
ATOM     23  P   UNL     1       5.509  -4.615  23.727  0.00  0.00    +0.473 P 
ATOM     24  O   UNL     1       4.256  -3.754  24.024  0.00  0.00    -0.228 OA
BRANCH  23  25
ATOM     25  O   UNL     1       5.103  -5.835  24.741  0.00  0.00    -0.303 OA
ATOM     26  H   UNL     1       5.173  -5.565  25.674  0.00  0.00    +0.222 HD
ENDBRANCH  23  25
BRANCH  23  27
ATOM     27  O   UNL     1       4.901  -5.367  22.407  0.00  0.00    -0.303 OA
ATOM     28  H   UNL     1       3.977  -5.585  22.623  0.00  0.00    +0.222 HD
ENDBRANCH  23  27
ENDBRANCH  22  23
ENDBRANCH   3  22
BRANCH   4  29
ATOM     29  C   UNL     1       8.350  -2.670  22.620  0.00  0.00    +0.206 C 
BRANCH  29  30
ATOM     30  O   UNL     1       7.995  -1.313  22.728  0.00  0.00    -0.284 OA
BRANCH  30  31
ATOM     31  P   UNL     1       9.114  -0.231  22.401  0.00  0.00    +0.483 P 
ATOM     32  O   UNL     1      10.260  -0.145  23.342  0.00  0.00    -0.227 OA
BRANCH  31  33
ATOM     33  O   UNL     1       9.587  -0.647  20.924  0.00  0.00    -0.302 OA
ATOM     34  H   UNL     1      10.509  -0.368  20.750  0.00  0.00    +0.222 HD
ENDBRANCH  31  33
BRANCH  31  35
ATOM     35  O   UNL     1       8.298   1.128  22.136  0.00  0.00    -0.186 OA
BRANCH  35  36
ATOM     36  P   UNL     1       9.249   2.375  22.867  0.00  0.00    +0.481 P 
ATOM     37  O   UNL     1      10.100   3.491  23.520  0.00  0.00    -0.227 OA
BRANCH  36  38
ATOM     38  O   UNL     1       8.194   3.376  22.116  0.00  0.00    -0.302 OA
ATOM     39  H   UNL     1       7.285   3.161  22.386  0.00  0.00    +0.222 HD
ENDBRANCH  36  38
BRANCH  36  40
ATOM     40  O   UNL     1      10.254   2.149  21.591  0.00  0.00    -0.302 OA
ATOM     41  H   UNL     1       9.759   1.826  20.814  0.00  0.00    +0.222 HD
ENDBRANCH  36  40
ENDBRANCH  35  36
ENDBRANCH  31  35
ENDBRANCH  30  31
ENDBRANCH  29  30
ENDBRANCH   4  29
TORSDOF 14
ENDMDL
MODEL 8
REMARK VINA RESULT:      -6.8      2.275      3.276
REMARK  Name = 
REMARK  14 active torsions:
REMARK  status: ('A' for Active; 'I' for Inactive)
REMARK    1  A    between atoms: N_8  and  C_9
REMARK    2  A    between atoms: C_12  and  C_14
REMARK    3  A    between atoms: C_14  and  O_15
REMARK    4  A    between atoms: O_15  and  P_16
REMARK    5  A    between atoms: P_16  and  O_17
REMARK    6  A    between atoms: P_16  and  O_19
REMARK    7  A    between atoms: O_19  and  P_20
REMARK    8  A    between atoms: P_20  and  O_21
REMARK    9  A    between atoms: P_20  and  O_22
REMARK   10  A    between atoms: C_24  and  O_26
REMARK   11  A    between atoms: O_26  and  P_27
REMARK   12  A    between atoms: P_27  and  O_28
REMARK   13  A    between atoms: P_27  and  O_29
REMARK   14  A    between atoms: C_31  and  O_33
REMARK                            x       y       z     vdW  Elec       q    Type
REMARK                         _______ _______ _______ _____ _____    ______ ____
ROOT
ATOM      1  C   UNL     1       7.449  -3.541  22.258  0.00  0.00    +0.253 C 
ATOM      2  C   UNL     1       7.378  -5.069  22.471  0.00  0.00    +0.196 C 
ATOM      3  C   UNL     1       6.190  -5.292  23.413  0.00  0.00    +0.194 C 
ATOM      4  C   UNL     1       5.623  -3.890  23.602  0.00  0.00    +0.179 C 
ATOM      5  O   UNL     1       6.072  -3.132  22.464  0.00  0.00    -0.346 OA
ENDROOT
BRANCH   1  17
ATOM      6  N   UNL     1       8.671   1.468  21.124  0.00  0.00    -0.329 N 
ATOM      7  H   UNL     1       9.464   2.018  20.813  0.00  0.00    +0.145 HD
ATOM      8  H   UNL     1       8.202   1.043  20.329  0.00  0.00    +0.145 HD
ATOM      9  C   UNL     1       8.930   0.538  22.081  0.00  0.00    +0.195 A 
ATOM     10  N   UNL     1       9.912   0.846  23.006  0.00  0.00    -0.293 N 
ATOM     11  H   UNL     1      10.360   1.741  22.978  0.00  0.00    +0.172 HD
ATOM     12  C   UNL     1      10.302   0.016  24.040  0.00  0.00    +0.280 A 
ATOM     13  O   UNL     1      11.173   0.338  24.839  0.00  0.00    -0.265 OA
ATOM     14  C   UNL     1       9.599  -1.262  24.023  0.00  0.00    +0.172 A 
ATOM     15  N   UNL     1       9.731  -2.366  24.816  0.00  0.00    -0.229 NA
ATOM     16  C   UNL     1       8.895  -3.241  24.290  0.00  0.00    +0.203 A 
ATOM     17  N   UNL     1       8.278  -2.756  23.156  0.00  0.00    -0.285 N 
ATOM     18  C   UNL     1       8.668  -1.454  23.036  0.00  0.00    +0.171 A 
ATOM     19  N   UNL     1       8.275  -0.587  22.077  0.00  0.00    -0.196 NA
ENDBRANCH   1  17
BRANCH   2  20
ATOM     20  O   UNL     1       7.078  -5.780  21.251  0.00  0.00    -0.385 OA
ATOM     21  H   UNL     1       6.141  -5.643  21.022  0.00  0.00    +0.210 HD
ENDBRANCH   2  20
BRANCH   3  22
ATOM     22  O   UNL     1       6.546  -5.914  24.651  0.00  0.00    -0.278 OA
BRANCH  22  23
ATOM     23  P   UNL     1       6.221  -4.845  25.972  0.00  0.00    +0.473 P 
ATOM     24  O   UNL     1       5.929  -3.889  27.155  0.00  0.00    -0.228 OA
BRANCH  23  25
ATOM     25  O   UNL     1       7.473  -5.612  26.696  0.00  0.00    -0.303 OA
ATOM     26  H   UNL     1       7.617  -5.287  27.603  0.00  0.00    +0.222 HD
ENDBRANCH  23  25
BRANCH  23  27
ATOM     27  O   UNL     1       5.133  -5.992  26.397  0.00  0.00    -0.303 OA
ATOM     28  H   UNL     1       4.319  -5.786  25.904  0.00  0.00    +0.222 HD
ENDBRANCH  23  27
ENDBRANCH  22  23
ENDBRANCH   3  22
BRANCH   4  29
ATOM     29  C   UNL     1       4.109  -3.860  23.659  0.00  0.00    +0.206 C 
BRANCH  29  30
ATOM     30  O   UNL     1       3.617  -4.946  22.914  0.00  0.00    -0.284 OA
BRANCH  30  31
ATOM     31  P   UNL     1       2.255  -5.611  23.396  0.00  0.00    +0.483 P 
ATOM     32  O   UNL     1       1.014  -4.820  23.197  0.00  0.00    -0.227 OA
BRANCH  31  33
ATOM     33  O   UNL     1       2.222  -6.987  22.569  0.00  0.00    -0.302 OA
ATOM     34  H   UNL     1       2.400  -6.840  21.618  0.00  0.00    +0.222 HD
ENDBRANCH  31  33
BRANCH  31  35
ATOM     35  O   UNL     1       2.557  -6.111  24.893  0.00  0.00    -0.186 OA
BRANCH  35  36
ATOM     36  P   UNL     1       2.457  -7.837  24.823  0.00  0.00    +0.481 P 
ATOM     37  O   UNL     1       2.369  -9.381  24.759  0.00  0.00    -0.227 OA
BRANCH  36  38
ATOM     38  O   UNL     1       2.678  -7.740  26.441  0.00  0.00    -0.302 OA
ATOM     39  H   UNL     1       3.560  -7.381  26.634  0.00  0.00    +0.222 HD
ENDBRANCH  36  38
BRANCH  36  40
ATOM     40  O   UNL     1       4.039  -7.761  24.399  0.00  0.00    -0.302 OA
ATOM     41  H   UNL     1       4.599  -8.190  25.074  0.00  0.00    +0.222 HD
ENDBRANCH  36  40
ENDBRANCH  35  36
ENDBRANCH  31  35
ENDBRANCH  30  31
ENDBRANCH  29  30
ENDBRANCH   4  29
TORSDOF 14
ENDMDL
MODEL 9
REMARK VINA RESULT:      -6.6      2.355      3.555
REMARK  Name = 
REMARK  14 active torsions:
REMARK  status: ('A' for Active; 'I' for Inactive)
REMARK    1  A    between atoms: N_8  and  C_9
REMARK    2  A    between atoms: C_12  and  C_14
REMARK    3  A    between atoms: C_14  and  O_15
REMARK    4  A    between atoms: O_15  and  P_16
REMARK    5  A    between atoms: P_16  and  O_17
REMARK    6  A    between atoms: P_16  and  O_19
REMARK    7  A    between atoms: O_19  and  P_20
REMARK    8  A    between atoms: P_20  and  O_21
REMARK    9  A    between atoms: P_20  and  O_22
REMARK   10  A    between atoms: C_24  and  O_26
REMARK   11  A    between atoms: O_26  and  P_27
REMARK   12  A    between atoms: P_27  and  O_28
REMARK   13  A    between atoms: P_27  and  O_29
REMARK   14  A    between atoms: C_31  and  O_33
REMARK                            x       y       z     vdW  Elec       q    Type
REMARK                         _______ _______ _______ _____ _____    ______ ____
ROOT
ATOM      1  C   UNL     1       8.923  -3.573  25.010  0.00  0.00    +0.253 C 
ATOM      2  C   UNL     1       8.601  -4.557  26.156  0.00  0.00    +0.196 C 
ATOM      3  C   UNL     1       7.139  -4.961  25.944  0.00  0.00    +0.194 C 
ATOM      4  C   UNL     1       6.759  -4.245  24.653  0.00  0.00    +0.179 C 
ATOM      5  O   UNL     1       7.999  -3.990  23.970  0.00  0.00    -0.346 OA
ENDROOT
BRANCH   1  17
ATOM      6  N   UNL     1       9.488  -0.089  21.083  0.00  0.00    -0.329 N 
ATOM      7  H   UNL     1      10.135   0.627  20.774  0.00  0.00    +0.145 HD
ATOM      8  H   UNL     1       9.800  -1.005  20.774  0.00  0.00    +0.145 HD
ATOM      9  C   UNL     1       9.206  -0.103  22.413  0.00  0.00    +0.195 A 
ATOM     10  N   UNL     1       9.184   1.119  23.063  0.00  0.00    -0.293 N 
ATOM     11  H   UNL     1       9.325   1.963  22.542  0.00  0.00    +0.172 HD
ATOM     12  C   UNL     1       8.919   1.286  24.409  0.00  0.00    +0.280 A 
ATOM     13  O   UNL     1       8.904   2.391  24.937  0.00  0.00    -0.265 OA
ATOM     14  C   UNL     1       8.714   0.016  25.098  0.00  0.00    +0.172 A 
ATOM     15  N   UNL     1       8.494  -0.261  26.417  0.00  0.00    -0.229 NA
ATOM     16  C   UNL     1       8.462  -1.579  26.466  0.00  0.00    +0.203 A 
ATOM     17  N   UNL     1       8.712  -2.154  25.238  0.00  0.00    -0.285 N 
ATOM     18  C   UNL     1       8.789  -1.127  24.344  0.00  0.00    +0.171 A 
ATOM     19  N   UNL     1       8.993  -1.238  23.013  0.00  0.00    -0.196 NA
ENDBRANCH   1  17
BRANCH   2  20
ATOM     20  O   UNL     1       9.382  -5.769  26.073  0.00  0.00    -0.385 OA
ATOM     21  H   UNL     1       8.832  -6.479  25.698  0.00  0.00    +0.210 HD
ENDBRANCH   2  20
BRANCH   3  22
ATOM     22  O   UNL     1       6.282  -4.617  27.037  0.00  0.00    -0.278 OA
BRANCH  22  23
ATOM     23  P   UNL     1       5.826  -6.038  27.911  0.00  0.00    +0.473 P 
ATOM     24  O   UNL     1       5.418  -7.311  28.693  0.00  0.00    -0.228 OA
BRANCH  23  25
ATOM     25  O   UNL     1       7.439  -6.261  28.081  0.00  0.00    -0.303 OA
ATOM     26  H   UNL     1       7.743  -7.056  27.609  0.00  0.00    +0.222 HD
ENDBRANCH  23  25
BRANCH  23  27
ATOM     27  O   UNL     1       5.780  -6.719  26.424  0.00  0.00    -0.303 OA
ATOM     28  H   UNL     1       6.011  -6.011  25.796  0.00  0.00    +0.222 HD
ENDBRANCH  23  27
ENDBRANCH  22  23
ENDBRANCH   3  22
BRANCH   4  29
ATOM     29  C   UNL     1       5.853  -5.067  23.758  0.00  0.00    +0.206 C 
BRANCH  29  30
ATOM     30  O   UNL     1       4.558  -5.054  24.308  0.00  0.00    -0.284 OA
BRANCH  30  31
ATOM     31  P   UNL     1       3.464  -5.989  23.632  0.00  0.00    +0.483 P 
ATOM     32  O   UNL     1       2.098  -5.424  23.481  0.00  0.00    -0.227 OA
BRANCH  31  33
ATOM     33  O   UNL     1       4.124  -6.336  22.211  0.00  0.00    -0.302 OA
ATOM     34  H   UNL     1       4.936  -5.810  22.053  0.00  0.00    +0.222 HD
ENDBRANCH  31  33
BRANCH  31  35
ATOM     35  O   UNL     1       3.581  -7.384  24.421  0.00  0.00    -0.186 OA
BRANCH  35  36
ATOM     36  P   UNL     1       1.951  -7.932  24.615  0.00  0.00    +0.481 P 
ATOM     37  O   UNL     1       0.493  -8.423  24.787  0.00  0.00    -0.227 OA
BRANCH  36  38
ATOM     38  O   UNL     1       2.662  -9.288  25.191  0.00  0.00    -0.302 OA
ATOM     39  H   UNL     1       3.615  -9.138  25.307  0.00  0.00    +0.222 HD
ENDBRANCH  36  38
BRANCH  36  40
ATOM     40  O   UNL     1       2.049  -8.315  23.023  0.00  0.00    -0.302 OA
ATOM     41  H   UNL     1       2.612  -9.101  22.891  0.00  0.00    +0.222 HD
ENDBRANCH  36  40
ENDBRANCH  35  36
ENDBRANCH  31  35
ENDBRANCH  30  31
ENDBRANCH  29  30
ENDBRANCH   4  29
TORSDOF 14
ENDMDL
