MODEL 1
REMARK VINA RESULT:      -5.6      0.000      0.000
REMARK  Name = 
REMARK  10 active torsions:
REMARK  status: ('A' for Active; 'I' for Inactive)
REMARK    1  A    between atoms: C_1  and  C_2
REMARK    2  A    between atoms: C_2  and  C_3
REMARK    3  A    between atoms: C_3  and  C_4
REMARK    4  A    between atoms: N_6  and  C_7
REMARK    5  A    between atoms: C_13  and  C_14
REMARK    6  A    between atoms: C_14  and  C_15
REMARK    7  A    between atoms: C_15  and  C_16
REMARK    8  A    between atoms: C_15  and  C_18
REMARK    9  A    between atoms: C_16  and  C_17
REMARK   10  A    between atoms: C_18  and  O_19
REMARK                            x       y       z     vdW  Elec       q    Type
REMARK                         _______ _______ _______ _____ _____    ______ ____
ROOT
ATOM      1  C   UNL     1       6.738  -1.965  23.715  0.00  0.00    +0.060 A 
ATOM      2  C   UNL     1       6.415  -3.320  23.968  0.00  0.00    +0.040 A 
ATOM      3  I   UNL     1       6.595  -4.722  22.303  0.00  0.00    -0.042 I 
ATOM      4  C   UNL     1       5.683  -3.713  25.114  0.00  0.00    -0.019 A 
ATOM      5  C   UNL     1       5.039  -2.682  25.833  0.00  0.00    +0.019 A 
ATOM      6  I   UNL     1       3.641  -3.011  27.386  0.00  0.00    -0.043 I 
ATOM      7  C   UNL     1       5.236  -1.333  25.506  0.00  0.00    +0.031 A 
ATOM      8  C   UNL     1       6.111  -0.976  24.482  0.00  0.00    +0.037 A 
ATOM      9  I   UNL     1       6.478   1.073  24.196  0.00  0.00    -0.042 I 
ENDROOT
BRANCH   1  11
ATOM     10  C   UNL     1       9.058  -1.553  23.076  0.00  0.00    +0.217 C 
ATOM     11  N   UNL     1       7.709  -1.576  22.755  0.00  0.00    -0.284 N 
ATOM     12  H   UNL     1       7.412  -0.870  22.088  0.00  0.00    +0.155 HD
ATOM     13  O   UNL     1       9.533  -1.855  24.170  0.00  0.00    -0.275 OA
BRANCH  10  14
ATOM     14  C   UNL     1       9.935  -1.022  21.966  0.00  0.00    +0.096 C 
BRANCH  14  16
ATOM     15  C   UNL     1       9.964   1.489  22.041  0.00  0.00    +0.004 C 
ATOM     16  C   UNL     1       9.349   0.262  21.394  0.00  0.00    +0.006 C 
ENDBRANCH  14  16
ENDBRANCH  10  14
ENDBRANCH   1  11
BRANCH   4  17
ATOM     17  C   UNL     1       5.630  -5.167  25.562  0.00  0.00    +0.052 C 
BRANCH  17  18
ATOM     18  C   UNL     1       6.767  -5.630  26.515  0.00  0.00    +0.102 C 
BRANCH  18  19
ATOM     19  C   UNL     1       6.150  -6.066  27.836  0.00  0.00    +0.308 C 
ATOM     20  O   UNL     1       6.299  -5.491  28.900  0.00  0.00    -0.251 OA
BRANCH  19  21
ATOM     21  O   UNL     1       5.404  -7.193  27.731  0.00  0.00    -0.480 OA
ATOM     22  H   UNL     1       4.634  -7.107  27.139  0.00  0.00    +0.295 HD
ENDBRANCH  19  21
ENDBRANCH  18  19
BRANCH  18  23
ATOM     23  C   UNL     1       7.904  -4.621  26.767  0.00  0.00    +0.011 C 
ATOM     24  C   UNL     1       9.189  -4.863  25.991  0.00  0.00    +0.004 C 
ENDBRANCH  18  23
ENDBRANCH  17  18
ENDBRANCH   4  17
TORSDOF 8
ENDMDL
MODEL 2
REMARK VINA RESULT:      -5.2      3.236      6.448
REMARK  Name = 
REMARK  10 active torsions:
REMARK  status: ('A' for Active; 'I' for Inactive)
REMARK    1  A    between atoms: C_1  and  C_2
REMARK    2  A    between atoms: C_2  and  C_3
REMARK    3  A    between atoms: C_3  and  C_4
REMARK    4  A    between atoms: N_6  and  C_7
REMARK    5  A    between atoms: C_13  and  C_14
REMARK    6  A    between atoms: C_14  and  C_15
REMARK    7  A    between atoms: C_15  and  C_16
REMARK    8  A    between atoms: C_15  and  C_18
REMARK    9  A    between atoms: C_16  and  C_17
REMARK   10  A    between atoms: C_18  and  O_19
REMARK                            x       y       z     vdW  Elec       q    Type
REMARK                         _______ _______ _______ _____ _____    ______ ____
ROOT
ATOM      1  C   UNL     1       6.206  -2.344  24.934  0.00  0.00    +0.060 A 
ATOM      2  C   UNL     1       7.356  -1.609  24.557  0.00  0.00    +0.040 A 
ATOM      3  I   UNL     1       9.162  -2.743  24.087  0.00  0.00    -0.042 I 
ATOM      4  C   UNL     1       7.468  -0.219  24.800  0.00  0.00    -0.019 A 
ATOM      5  C   UNL     1       6.525   0.342  25.689  0.00  0.00    +0.019 A 
ATOM      6  I   UNL     1       6.644   2.306  26.464  0.00  0.00    -0.043 I 
ATOM      7  C   UNL     1       5.453  -0.413  26.187  0.00  0.00    +0.031 A 
ATOM      8  C   UNL     1       5.272  -1.734  25.780  0.00  0.00    +0.037 A 
ATOM      9  I   UNL     1       3.535  -2.717  26.436  0.00  0.00    -0.042 I 
ENDROOT
BRANCH   1  11
ATOM     10  C   UNL     1       5.498  -3.847  23.145  0.00  0.00    +0.217 C 
ATOM     11  N   UNL     1       5.939  -3.650  24.445  0.00  0.00    -0.284 N 
ATOM     12  H   UNL     1       5.580  -4.312  25.127  0.00  0.00    +0.155 HD
ATOM     13  O   UNL     1       5.304  -2.957  22.318  0.00  0.00    -0.275 OA
BRANCH  10  14
ATOM     14  C   UNL     1       5.171  -5.288  22.828  0.00  0.00    +0.096 C 
BRANCH  14  16
ATOM     15  C   UNL     1       7.430  -5.971  21.962  0.00  0.00    +0.004 C 
ATOM     16  C   UNL     1       5.966  -5.759  21.617  0.00  0.00    +0.006 C 
ENDBRANCH  14  16
ENDBRANCH  10  14
ENDBRANCH   1  11
BRANCH   4  17
ATOM     17  C   UNL     1       8.527   0.625  24.106  0.00  0.00    +0.052 C 
BRANCH  17  18
ATOM     18  C   UNL     1       8.174   1.128  22.679  0.00  0.00    +0.102 C 
BRANCH  18  19
ATOM     19  C   UNL     1       9.380   0.920  21.775  0.00  0.00    +0.308 C 
ATOM     20  O   UNL     1       9.747  -0.157  21.335  0.00  0.00    -0.251 OA
BRANCH  19  21
ATOM     21  O   UNL     1      10.046   2.068  21.498  0.00  0.00    -0.480 OA
ATOM     22  H   UNL     1      11.009   1.955  21.393  0.00  0.00    +0.295 HD
ENDBRANCH  19  21
ENDBRANCH  18  19
BRANCH  18  23
ATOM     23  C   UNL     1       7.671   2.580  22.569  0.00  0.00    +0.011 C 
ATOM     24  C   UNL     1       6.164   2.754  22.474  0.00  0.00    +0.004 C 
ENDBRANCH  18  23
ENDBRANCH  17  18
ENDBRANCH   4  17
TORSDOF 8
ENDMDL
MODEL 3
REMARK VINA RESULT:      -5.0      1.361      1.951
REMARK  Name = 
REMARK  10 active torsions:
REMARK  status: ('A' for Active; 'I' for Inactive)
REMARK    1  A    between atoms: C_1  and  C_2
REMARK    2  A    between atoms: C_2  and  C_3
REMARK    3  A    between atoms: C_3  and  C_4
REMARK    4  A    between atoms: N_6  and  C_7
REMARK    5  A    between atoms: C_13  and  C_14
REMARK    6  A    between atoms: C_14  and  C_15
REMARK    7  A    between atoms: C_15  and  C_16
REMARK    8  A    between atoms: C_15  and  C_18
REMARK    9  A    between atoms: C_16  and  C_17
REMARK   10  A    between atoms: C_18  and  O_19
REMARK                            x       y       z     vdW  Elec       q    Type
REMARK                         _______ _______ _______ _____ _____    ______ ____
ROOT
ATOM      1  C   UNL     1       6.735  -0.962  23.801  0.00  0.00    +0.060 A 
ATOM      2  C   UNL     1       6.499  -2.323  24.113  0.00  0.00    +0.040 A 
ATOM      3  I   UNL     1       6.737  -3.778  22.502  0.00  0.00    -0.042 I 
ATOM      4  C   UNL     1       5.811  -2.712  25.288  0.00  0.00    -0.019 A 
ATOM      5  C   UNL     1       5.117  -1.694  25.977  0.00  0.00    +0.019 A 
ATOM      6  I   UNL     1       3.768  -2.042  27.567  0.00  0.00    -0.043 I 
ATOM      7  C   UNL     1       5.227  -0.349  25.593  0.00  0.00    +0.031 A 
ATOM      8  C   UNL     1       6.062   0.018  24.540  0.00  0.00    +0.037 A 
ATOM      9  I   UNL     1       6.300   2.072  24.166  0.00  0.00    -0.042 I 
ENDROOT
BRANCH   1  11
ATOM     10  C   UNL     1       9.025  -0.513  23.081  0.00  0.00    +0.217 C 
ATOM     11  N   UNL     1       7.665  -0.556  22.808  0.00  0.00    -0.284 N 
ATOM     12  H   UNL     1       7.334   0.148  22.154  0.00  0.00    +0.155 HD
ATOM     13  O   UNL     1       9.543  -0.810  24.156  0.00  0.00    -0.275 OA
BRANCH  10  14
ATOM     14  C   UNL     1       9.853   0.035  21.943  0.00  0.00    +0.096 C 
BRANCH  14  16
ATOM     15  C   UNL     1      10.313   2.322  22.879  0.00  0.00    +0.004 C 
ATOM     16  C   UNL     1       9.616   1.532  21.785  0.00  0.00    +0.006 C 
ENDBRANCH  14  16
ENDBRANCH  10  14
ENDBRANCH   1  11
BRANCH   4  17
ATOM     17  C   UNL     1       5.854  -4.147  25.793  0.00  0.00    +0.052 C 
BRANCH  17  18
ATOM     18  C   UNL     1       6.754  -4.408  27.033  0.00  0.00    +0.102 C 
BRANCH  18  19
ATOM     19  C   UNL     1       8.183  -4.629  26.560  0.00  0.00    +0.308 C 
ATOM     20  O   UNL     1       8.958  -3.743  26.238  0.00  0.00    -0.251 OA
BRANCH  19  21
ATOM     21  O   UNL     1       8.536  -5.937  26.512  0.00  0.00    -0.480 OA
ATOM     22  H   UNL     1       8.148  -6.427  25.763  0.00  0.00    +0.295 HD
ENDBRANCH  19  21
ENDBRANCH  18  19
BRANCH  18  23
ATOM     23  C   UNL     1       6.320  -5.554  27.966  0.00  0.00    +0.011 C 
ATOM     24  C   UNL     1       5.081  -6.324  27.539  0.00  0.00    +0.004 C 
ENDBRANCH  18  23
ENDBRANCH  17  18
ENDBRANCH   4  17
TORSDOF 8
ENDMDL
MODEL 4
REMARK VINA RESULT:      -4.8      2.462      7.028
REMARK  Name = 
REMARK  10 active torsions:
REMARK  status: ('A' for Active; 'I' for Inactive)
REMARK    1  A    between atoms: C_1  and  C_2
REMARK    2  A    between atoms: C_2  and  C_3
REMARK    3  A    between atoms: C_3  and  C_4
REMARK    4  A    between atoms: N_6  and  C_7
REMARK    5  A    between atoms: C_13  and  C_14
REMARK    6  A    between atoms: C_14  and  C_15
REMARK    7  A    between atoms: C_15  and  C_16
REMARK    8  A    between atoms: C_15  and  C_18
REMARK    9  A    between atoms: C_16  and  C_17
REMARK   10  A    between atoms: C_18  and  O_19
REMARK                            x       y       z     vdW  Elec       q    Type
REMARK                         _______ _______ _______ _____ _____    ______ ____
ROOT
ATOM      1  C   UNL     1       5.432  -4.882  26.217  0.00  0.00    +0.060 A 
ATOM      2  C   UNL     1       6.493  -4.152  25.629  0.00  0.00    +0.040 A 
ATOM      3  I   UNL     1       6.986  -2.215  26.507  0.00  0.00    -0.042 I 
ATOM      4  C   UNL     1       6.990  -4.464  24.340  0.00  0.00    -0.019 A 
ATOM      5  C   UNL     1       6.199  -5.329  23.553  0.00  0.00    +0.019 A 
ATOM      6  I   UNL     1       6.540  -5.712  21.501  0.00  0.00    -0.043 I 
ATOM      7  C   UNL     1       5.059  -5.954  24.078  0.00  0.00    +0.031 A 
ATOM      8  C   UNL     1       4.702  -5.764  25.412  0.00  0.00    +0.037 A 
ATOM      9  I   UNL     1       3.088  -6.890  26.149  0.00  0.00    -0.042 I 
ENDROOT
BRANCH   1  11
ATOM     10  C   UNL     1       5.887  -5.450  28.548  0.00  0.00    +0.217 C 
ATOM     11  N   UNL     1       5.117  -4.794  27.599  0.00  0.00    -0.284 N 
ATOM     12  H   UNL     1       4.129  -4.717  27.823  0.00  0.00    +0.155 HD
ATOM     13  O   UNL     1       6.876  -6.141  28.306  0.00  0.00    -0.275 OA
BRANCH  10  14
ATOM     14  C   UNL     1       5.350  -5.326  29.955  0.00  0.00    +0.096 C 
BRANCH  14  16
ATOM     15  C   UNL     1       3.440  -6.937  30.225  0.00  0.00    +0.004 C 
ATOM     16  C   UNL     1       3.836  -5.495  29.962  0.00  0.00    +0.006 C 
ENDBRANCH  14  16
ENDBRANCH  10  14
ENDBRANCH   1  11
BRANCH   4  17
ATOM     17  C   UNL     1       8.326  -3.921  23.853  0.00  0.00    +0.052 C 
BRANCH  17  18
ATOM     18  C   UNL     1       8.257  -2.787  22.793  0.00  0.00    +0.102 C 
BRANCH  18  19
ATOM     19  C   UNL     1       9.521  -1.945  22.896  0.00  0.00    +0.308 C 
ATOM     20  O   UNL     1       9.999  -1.526  23.937  0.00  0.00    -0.251 OA
BRANCH  19  21
ATOM     21  O   UNL     1      10.086  -1.678  21.692  0.00  0.00    -0.480 OA
ATOM     22  H   UNL     1      10.867  -2.226  21.490  0.00  0.00    +0.295 HD
ENDBRANCH  19  21
ENDBRANCH  18  19
BRANCH  18  23
ATOM     23  C   UNL     1       7.011  -1.882  22.836  0.00  0.00    +0.011 C 
ATOM     24  C   UNL     1       7.279  -0.386  22.859  0.00  0.00    +0.004 C 
ENDBRANCH  18  23
ENDBRANCH  17  18
ENDBRANCH   4  17
TORSDOF 8
ENDMDL
MODEL 5
REMARK VINA RESULT:      -4.8      2.186      2.773
REMARK  Name = 
REMARK  10 active torsions:
REMARK  status: ('A' for Active; 'I' for Inactive)
REMARK    1  A    between atoms: C_1  and  C_2
REMARK    2  A    between atoms: C_2  and  C_3
REMARK    3  A    between atoms: C_3  and  C_4
REMARK    4  A    between atoms: N_6  and  C_7
REMARK    5  A    between atoms: C_13  and  C_14
REMARK    6  A    between atoms: C_14  and  C_15
REMARK    7  A    between atoms: C_15  and  C_16
REMARK    8  A    between atoms: C_15  and  C_18
REMARK    9  A    between atoms: C_16  and  C_17
REMARK   10  A    between atoms: C_18  and  O_19
REMARK                            x       y       z     vdW  Elec       q    Type
REMARK                         _______ _______ _______ _____ _____    ______ ____
ROOT
ATOM      1  C   UNL     1       7.866   0.200  24.373  0.00  0.00    +0.060 A 
ATOM      2  C   UNL     1       8.166  -1.144  24.700  0.00  0.00    +0.040 A 
ATOM      3  I   UNL     1       9.819  -2.091  23.632  0.00  0.00    -0.042 I 
ATOM      4  C   UNL     1       7.255  -1.963  25.410  0.00  0.00    -0.019 A 
ATOM      5  C   UNL     1       5.932  -1.483  25.518  0.00  0.00    +0.019 A 
ATOM      6  I   UNL     1       4.309  -2.627  26.247  0.00  0.00    -0.043 I 
ATOM      7  C   UNL     1       5.581  -0.201  25.069  0.00  0.00    +0.031 A 
ATOM      8  C   UNL     1       6.550   0.649  24.539  0.00  0.00    +0.037 A 
ATOM      9  I   UNL     1       5.961   2.611  24.070  0.00  0.00    -0.042 I 
ENDROOT
BRANCH   1  11
ATOM     10  C   UNL     1       9.068   1.351  22.585  0.00  0.00    +0.217 C 
ATOM     11  N   UNL     1       8.855   1.121  23.937  0.00  0.00    -0.284 N 
ATOM     12  H   UNL     1       9.682   1.190  24.522  0.00  0.00    +0.155 HD
ATOM     13  O   UNL     1       8.453   0.810  21.667  0.00  0.00    -0.275 OA
BRANCH  10  14
ATOM     14  C   UNL     1      10.222   2.284  22.305  0.00  0.00    +0.096 C 
BRANCH  14  16
ATOM     15  C   UNL     1      11.665   4.097  23.278  0.00  0.00    +0.004 C 
ATOM     16  C   UNL     1      10.607   3.047  23.566  0.00  0.00    +0.006 C 
ENDBRANCH  14  16
ENDBRANCH  10  14
ENDBRANCH   1  11
BRANCH   4  17
ATOM     17  C   UNL     1       7.697  -3.270  26.051  0.00  0.00    +0.052 C 
BRANCH  17  18
ATOM     18  C   UNL     1       7.167  -4.571  25.388  0.00  0.00    +0.102 C 
BRANCH  18  19
ATOM     19  C   UNL     1       6.963  -5.623  26.468  0.00  0.00    +0.308 C 
ATOM     20  O   UNL     1       5.992  -6.355  26.556  0.00  0.00    -0.251 OA
BRANCH  19  21
ATOM     21  O   UNL     1       7.979  -5.673  27.365  0.00  0.00    -0.480 OA
ATOM     22  H   UNL     1       7.760  -5.293  28.236  0.00  0.00    +0.295 HD
ENDBRANCH  19  21
ENDBRANCH  18  19
BRANCH  18  23
ATOM     23  C   UNL     1       8.013  -5.148  24.237  0.00  0.00    +0.011 C 
ATOM     24  C   UNL     1       7.302  -5.301  22.903  0.00  0.00    +0.004 C 
ENDBRANCH  18  23
ENDBRANCH  17  18
ENDBRANCH   4  17
TORSDOF 8
ENDMDL
MODEL 6
REMARK VINA RESULT:      -4.8      2.677      6.904
REMARK  Name = 
REMARK  10 active torsions:
REMARK  status: ('A' for Active; 'I' for Inactive)
REMARK    1  A    between atoms: C_1  and  C_2
REMARK    2  A    between atoms: C_2  and  C_3
REMARK    3  A    between atoms: C_3  and  C_4
REMARK    4  A    between atoms: N_6  and  C_7
REMARK    5  A    between atoms: C_13  and  C_14
REMARK    6  A    between atoms: C_14  and  C_15
REMARK    7  A    between atoms: C_15  and  C_16
REMARK    8  A    between atoms: C_15  and  C_18
REMARK    9  A    between atoms: C_16  and  C_17
REMARK   10  A    between atoms: C_18  and  O_19
REMARK                            x       y       z     vdW  Elec       q    Type
REMARK                         _______ _______ _______ _____ _____    ______ ____
ROOT
ATOM      1  C   UNL     1       6.396  -3.777  24.483  0.00  0.00    +0.060 A 
ATOM      2  C   UNL     1       6.903  -2.596  25.078  0.00  0.00    +0.040 A 
ATOM      3  I   UNL     1       5.687  -1.651  26.626  0.00  0.00    -0.042 I 
ATOM      4  C   UNL     1       7.954  -1.854  24.488  0.00  0.00    -0.019 A 
ATOM      5  C   UNL     1       8.272  -2.169  23.149  0.00  0.00    +0.019 A 
ATOM      6  I   UNL     1       9.572  -1.024  21.935  0.00  0.00    -0.043 I 
ATOM      7  C   UNL     1       7.673  -3.254  22.493  0.00  0.00    +0.031 A 
ATOM      8  C   UNL     1       6.773  -4.076  23.169  0.00  0.00    +0.037 A 
ATOM      9  I   UNL     1       6.077  -5.781  22.157  0.00  0.00    -0.042 I 
ENDROOT
BRANCH   1  11
ATOM     10  C   UNL     1       6.116  -5.643  26.034  0.00  0.00    +0.217 C 
ATOM     11  N   UNL     1       5.567  -4.692  25.185  0.00  0.00    -0.284 N 
ATOM     12  H   UNL     1       4.722  -4.981  24.703  0.00  0.00    +0.155 HD
ATOM     13  O   UNL     1       7.317  -5.786  26.259  0.00  0.00    -0.275 OA
BRANCH  10  14
ATOM     14  C   UNL     1       5.097  -6.592  26.618  0.00  0.00    +0.096 C 
BRANCH  14  16
ATOM     15  C   UNL     1       3.308  -7.490  25.098  0.00  0.00    +0.004 C 
ATOM     16  C   UNL     1       3.725  -6.344  26.003  0.00  0.00    +0.006 C 
ENDBRANCH  14  16
ENDBRANCH  10  14
ENDBRANCH   1  11
BRANCH   4  17
ATOM     17  C   UNL     1       8.720  -0.801  25.275  0.00  0.00    +0.052 C 
BRANCH  17  18
ATOM     18  C   UNL     1       8.427   0.679  24.902  0.00  0.00    +0.102 C 
BRANCH  18  19
ATOM     19  C   UNL     1       9.750   1.393  24.662  0.00  0.00    +0.308 C 
ATOM     20  O   UNL     1       9.876   2.445  24.059  0.00  0.00    -0.251 OA
BRANCH  19  21
ATOM     21  O   UNL     1      10.815   0.735  25.182  0.00  0.00    -0.480 OA
ATOM     22  H   UNL     1      10.816  -0.224  25.004  0.00  0.00    +0.295 HD
ENDBRANCH  19  21
ENDBRANCH  18  19
BRANCH  18  23
ATOM     23  C   UNL     1       7.564   1.479  25.896  0.00  0.00    +0.011 C 
ATOM     24  C   UNL     1       6.661   2.539  25.286  0.00  0.00    +0.004 C 
ENDBRANCH  18  23
ENDBRANCH  17  18
ENDBRANCH   4  17
TORSDOF 8
ENDMDL
MODEL 7
REMARK VINA RESULT:      -4.7      3.081      4.298
REMARK  Name = 
REMARK  10 active torsions:
REMARK  status: ('A' for Active; 'I' for Inactive)
REMARK    1  A    between atoms: C_1  and  C_2
REMARK    2  A    between atoms: C_2  and  C_3
REMARK    3  A    between atoms: C_3  and  C_4
REMARK    4  A    between atoms: N_6  and  C_7
REMARK    5  A    between atoms: C_13  and  C_14
REMARK    6  A    between atoms: C_14  and  C_15
REMARK    7  A    between atoms: C_15  and  C_16
REMARK    8  A    between atoms: C_15  and  C_18
REMARK    9  A    between atoms: C_16  and  C_17
REMARK   10  A    between atoms: C_18  and  O_19
REMARK                            x       y       z     vdW  Elec       q    Type
REMARK                         _______ _______ _______ _____ _____    ______ ____
ROOT
ATOM      1  C   UNL     1       7.650  -0.147  24.975  0.00  0.00    +0.060 A 
ATOM      2  C   UNL     1       6.649  -1.096  25.296  0.00  0.00    +0.040 A 
ATOM      3  I   UNL     1       4.960  -0.405  26.496  0.00  0.00    -0.042 I 
ATOM      4  C   UNL     1       6.869  -2.488  25.166  0.00  0.00    -0.019 A 
ATOM      5  C   UNL     1       8.208  -2.899  24.989  0.00  0.00    +0.019 A 
ATOM      6  I   UNL     1       8.855  -4.911  25.077  0.00  0.00    -0.043 I 
ATOM      7  C   UNL     1       9.240  -1.966  24.810  0.00  0.00    +0.031 A 
ATOM      8  C   UNL     1       8.956  -0.603  24.762  0.00  0.00    +0.037 A 
ATOM      9  I   UNL     1      10.542   0.698  24.302  0.00  0.00    -0.042 I 
ENDROOT
BRANCH   1  11
ATOM     10  C   UNL     1       6.930   1.730  23.588  0.00  0.00    +0.217 C 
ATOM     11  N   UNL     1       7.369   1.235  24.808  0.00  0.00    -0.284 N 
ATOM     12  H   UNL     1       7.946   1.871  25.349  0.00  0.00    +0.155 HD
ATOM     13  O   UNL     1       6.744   1.058  22.574  0.00  0.00    -0.275 OA
BRANCH  10  14
ATOM     14  C   UNL     1       6.775   3.233  23.566  0.00  0.00    +0.096 C 
BRANCH  14  16
ATOM     15  C   UNL     1       7.236   5.307  22.224  0.00  0.00    +0.004 C 
ATOM     16  C   UNL     1       7.192   3.789  22.211  0.00  0.00    +0.006 C 
ENDBRANCH  14  16
ENDBRANCH  10  14
ENDBRANCH   1  11
BRANCH   4  17
ATOM     17  C   UNL     1       5.713  -3.478  25.179  0.00  0.00    +0.052 C 
BRANCH  17  18
ATOM     18  C   UNL     1       4.857  -3.547  23.884  0.00  0.00    +0.102 C 
BRANCH  18  19
ATOM     19  C   UNL     1       4.333  -4.966  23.720  0.00  0.00    +0.308 C 
ATOM     20  O   UNL     1       4.800  -5.951  24.267  0.00  0.00    -0.251 OA
BRANCH  19  21
ATOM     21  O   UNL     1       3.275  -5.052  22.876  0.00  0.00    -0.480 OA
ATOM     22  H   UNL     1       3.199  -5.911  22.420  0.00  0.00    +0.295 HD
ENDBRANCH  19  21
ENDBRANCH  18  19
BRANCH  18  23
ATOM     23  C   UNL     1       5.541  -3.079  22.585  0.00  0.00    +0.011 C 
ATOM     24  C   UNL     1       6.454  -4.093  21.915  0.00  0.00    +0.004 C 
ENDBRANCH  18  23
ENDBRANCH  17  18
ENDBRANCH   4  17
TORSDOF 8
ENDMDL
MODEL 8
REMARK VINA RESULT:      -4.7      2.855      4.142
REMARK  Name = 
REMARK  10 active torsions:
REMARK  status: ('A' for Active; 'I' for Inactive)
REMARK    1  A    between atoms: C_1  and  C_2
REMARK    2  A    between atoms: C_2  and  C_3
REMARK    3  A    between atoms: C_3  and  C_4
REMARK    4  A    between atoms: N_6  and  C_7
REMARK    5  A    between atoms: C_13  and  C_14
REMARK    6  A    between atoms: C_14  and  C_15
REMARK    7  A    between atoms: C_15  and  C_16
REMARK    8  A    between atoms: C_15  and  C_18
REMARK    9  A    between atoms: C_16  and  C_17
REMARK   10  A    between atoms: C_18  and  O_19
REMARK                            x       y       z     vdW  Elec       q    Type
REMARK                         _______ _______ _______ _____ _____    ______ ____
ROOT
ATOM      1  C   UNL     1       7.258  -1.425  23.950  0.00  0.00    +0.060 A 
ATOM      2  C   UNL     1       6.124  -2.207  24.279  0.00  0.00    +0.040 A 
ATOM      3  I   UNL     1       5.261  -1.935  26.266  0.00  0.00    -0.042 I 
ATOM      4  C   UNL     1       5.760  -3.350  23.528  0.00  0.00    -0.019 A 
ATOM      5  C   UNL     1       6.729  -3.847  22.629  0.00  0.00    +0.019 A 
ATOM      6  I   UNL     1       6.576  -5.699  21.620  0.00  0.00    -0.043 I 
ATOM      7  C   UNL     1       7.928  -3.157  22.395  0.00  0.00    +0.031 A 
ATOM      8  C   UNL     1       8.171  -1.935  23.019  0.00  0.00    +0.037 A 
ATOM      9  I   UNL     1       9.907  -0.893  22.458  0.00  0.00    -0.042 I 
ENDROOT
BRANCH   1  11
ATOM     10  C   UNL     1       7.040   1.003  23.808  0.00  0.00    +0.217 C 
ATOM     11  N   UNL     1       7.475  -0.128  24.485  0.00  0.00    -0.284 N 
ATOM     12  H   UNL     1       8.329  -0.008  25.021  0.00  0.00    +0.155 HD
ATOM     13  O   UNL     1       6.449   1.002  22.729  0.00  0.00    -0.275 OA
BRANCH  10  14
ATOM     14  C   UNL     1       7.442   2.298  24.474  0.00  0.00    +0.096 C 
BRANCH  14  16
ATOM     15  C   UNL     1       9.386   3.821  24.011  0.00  0.00    +0.004 C 
ATOM     16  C   UNL     1       8.958   2.443  24.484  0.00  0.00    +0.006 C 
ENDBRANCH  14  16
ENDBRANCH  10  14
ENDBRANCH   1  11
BRANCH   4  17
ATOM     17  C   UNL     1       4.382  -3.981  23.661  0.00  0.00    +0.052 C 
BRANCH  17  18
ATOM     18  C   UNL     1       4.344  -5.429  24.226  0.00  0.00    +0.102 C 
BRANCH  18  19
ATOM     19  C   UNL     1       3.300  -6.226  23.458  0.00  0.00    +0.308 C 
ATOM     20  O   UNL     1       2.428  -5.742  22.756  0.00  0.00    -0.251 OA
BRANCH  19  21
ATOM     21  O   UNL     1       3.415  -7.566  23.632  0.00  0.00    -0.480 OA
ATOM     22  H   UNL     1       2.646  -8.075  23.313  0.00  0.00    +0.295 HD
ENDBRANCH  19  21
ENDBRANCH  18  19
BRANCH  18  23
ATOM     23  C   UNL     1       4.109  -5.568  25.742  0.00  0.00    +0.011 C 
ATOM     24  C   UNL     1       5.146  -6.380  26.502  0.00  0.00    +0.004 C 
ENDBRANCH  18  23
ENDBRANCH  17  18
ENDBRANCH   4  17
TORSDOF 8
ENDMDL
MODEL 9
REMARK VINA RESULT:      -4.7      3.644      7.029
REMARK  Name = 
REMARK  10 active torsions:
REMARK  status: ('A' for Active; 'I' for Inactive)
REMARK    1  A    between atoms: C_1  and  C_2
REMARK    2  A    between atoms: C_2  and  C_3
REMARK    3  A    between atoms: C_3  and  C_4
REMARK    4  A    between atoms: N_6  and  C_7
REMARK    5  A    between atoms: C_13  and  C_14
REMARK    6  A    between atoms: C_14  and  C_15
REMARK    7  A    between atoms: C_15  and  C_16
REMARK    8  A    between atoms: C_15  and  C_18
REMARK    9  A    between atoms: C_16  and  C_17
REMARK   10  A    between atoms: C_18  and  O_19
REMARK                            x       y       z     vdW  Elec       q    Type
REMARK                         _______ _______ _______ _____ _____    ______ ____
ROOT
ATOM      1  C   UNL     1       7.752  -0.999  25.120  0.00  0.00    +0.060 A 
ATOM      2  C   UNL     1       8.488   0.163  24.784  0.00  0.00    +0.040 A 
ATOM      3  I   UNL     1      10.501  -0.121  23.986  0.00  0.00    -0.042 I 
ATOM      4  C   UNL     1       8.114   1.446  25.251  0.00  0.00    -0.019 A 
ATOM      5  C   UNL     1       7.162   1.483  26.293  0.00  0.00    +0.019 A 
ATOM      6  I   UNL     1       6.657   3.226  27.379  0.00  0.00    -0.043 I 
ATOM      7  C   UNL     1       6.523   0.317  26.739  0.00  0.00    +0.031 A 
ATOM      8  C   UNL     1       6.785  -0.907  26.128  0.00  0.00    +0.037 A 
ATOM      9  I   UNL     1       5.638  -2.558  26.743  0.00  0.00    -0.042 I 
ENDROOT
BRANCH   1  11
ATOM     10  C   UNL     1       7.238  -2.492  23.257  0.00  0.00    +0.217 C 
ATOM     11  N   UNL     1       7.918  -2.234  24.439  0.00  0.00    -0.284 N 
ATOM     12  H   UNL     1       8.083  -3.044  25.027  0.00  0.00    +0.155 HD
ATOM     13  O   UNL     1       6.460  -1.718  22.701  0.00  0.00    -0.275 OA
BRANCH  10  14
ATOM     14  C   UNL     1       7.460  -3.888  22.725  0.00  0.00    +0.096 C 
BRANCH  14  16
ATOM     15  C   UNL     1       5.980  -5.755  21.922  0.00  0.00    +0.004 C 
ATOM     16  C   UNL     1       6.265  -4.776  23.048  0.00  0.00    +0.006 C 
ENDBRANCH  14  16
ENDBRANCH  10  14
ENDBRANCH   1  11
BRANCH   4  17
ATOM     17  C   UNL     1       8.683   2.713  24.629  0.00  0.00    +0.052 C 
BRANCH  17  18
ATOM     18  C   UNL     1       7.830   3.367  23.507  0.00  0.00    +0.102 C 
BRANCH  18  19
ATOM     19  C   UNL     1       7.986   2.548  22.234  0.00  0.00    +0.308 C 
ATOM     20  O   UNL     1       7.119   1.846  21.744  0.00  0.00    -0.251 OA
BRANCH  19  21
ATOM     21  O   UNL     1       9.217   2.657  21.676  0.00  0.00    -0.480 OA
ATOM     22  H   UNL     1       9.221   3.095  20.804  0.00  0.00    +0.295 HD
ENDBRANCH  19  21
ENDBRANCH  18  19
BRANCH  18  23
ATOM     23  C   UNL     1       8.101   4.856  23.218  0.00  0.00    +0.011 C 
ATOM     24  C   UNL     1       7.213   5.499  22.166  0.00  0.00    +0.004 C 
ENDBRANCH  18  23
ENDBRANCH  17  18
ENDBRANCH   4  17
TORSDOF 8
ENDMDL
