MODEL 1
REMARK VINA RESULT:      -5.6      0.000      0.000
REMARK  Name = 
REMARK  8 active torsions:
REMARK  status: ('A' for Active; 'I' for Inactive)
REMARK    1  A    between atoms: C_1  and  N_2
REMARK    2  A    between atoms: N_2  and  C_3
REMARK    3  A    between atoms: N_2  and  C_4
REMARK    4  A    between atoms: C_4  and  C_5
REMARK    5  A    between atoms: C_5  and  C_6
REMARK    6  A    between atoms: C_6  and  O_7
REMARK    7  A    between atoms: C_6  and  C_8
REMARK    8  A    between atoms: C_6  and  C_14
REMARK                            x       y       z     vdW  Elec       q    Type
REMARK                         _______ _______ _______ _____ _____    ______ ____
ROOT
ATOM      1  C   UNL     1       7.372  -2.261  23.670  0.00  0.00    +0.118 C 
ENDROOT
BRANCH   1   2
ATOM      2  C   UNL     1       8.407  -1.112  23.652  0.00  0.00    +0.007 A 
ATOM      3  C   UNL     1       8.788  -0.392  24.806  0.00  0.00    +0.047 A 
ATOM      4 CL   UNL     1       8.134  -0.688  26.383  0.00  0.00    -0.083 Cl
ATOM      5  C   UNL     1       9.771   0.610  24.742  0.00  0.00    +0.020 A 
ATOM      6  C   UNL     1      10.415   0.905  23.544  0.00  0.00    +0.001 A 
ATOM      7  C   UNL     1      10.075   0.205  22.398  0.00  0.00    +0.000 A 
ATOM      8  C   UNL     1       9.084  -0.781  22.452  0.00  0.00    +0.008 A 
ENDBRANCH   1   2
BRANCH   1   9
ATOM      9  C   UNL     1       7.818  -3.370  24.646  0.00  0.00    -0.012 A 
ATOM     10  C   UNL     1       9.112  -3.921  24.642  0.00  0.00    +0.007 A 
ATOM     11  C   UNL     1       9.491  -4.878  25.589  0.00  0.00    +0.000 A 
ATOM     12  C   UNL     1       8.578  -5.328  26.538  0.00  0.00    +0.000 A 
ATOM     13  C   UNL     1       7.280  -4.831  26.537  0.00  0.00    +0.000 A 
ATOM     14  C   UNL     1       6.907  -3.863  25.603  0.00  0.00    +0.007 A 
ENDBRANCH   1   9
BRANCH   1  15
ATOM     15  O   UNL     1       6.103  -1.680  24.009  0.00  0.00    -0.379 OA
ATOM     16  H   UNL     1       6.014  -0.838  23.540  0.00  0.00    +0.211 HD
ENDBRANCH   1  15
BRANCH   1  17
ATOM     17  C   UNL     1       7.114  -2.873  22.251  0.00  0.00    +0.060 C 
BRANCH  17  18
ATOM     18  C   UNL     1       5.648  -3.274  21.981  0.00  0.00    +0.087 C 
BRANCH  18  20
ATOM     19  C   UNL     1       6.777  -5.370  21.632  0.00  0.00    +0.104 C 
ATOM     20  N   UNL     1       5.466  -4.730  21.801  0.00  0.00    -0.308 NA
ATOM     21  C   UNL     1       4.763  -5.344  22.927  0.00  0.00    +0.104 C 
ENDBRANCH  18  20
ENDBRANCH  17  18
ENDBRANCH   1  17
TORSDOF 6
ENDMDL
MODEL 2
REMARK VINA RESULT:      -5.5      2.042      3.494
REMARK  Name = 
REMARK  8 active torsions:
REMARK  status: ('A' for Active; 'I' for Inactive)
REMARK    1  A    between atoms: C_1  and  N_2
REMARK    2  A    between atoms: N_2  and  C_3
REMARK    3  A    between atoms: N_2  and  C_4
REMARK    4  A    between atoms: C_4  and  C_5
REMARK    5  A    between atoms: C_5  and  C_6
REMARK    6  A    between atoms: C_6  and  O_7
REMARK    7  A    between atoms: C_6  and  C_8
REMARK    8  A    between atoms: C_6  and  C_14
REMARK                            x       y       z     vdW  Elec       q    Type
REMARK                         _______ _______ _______ _____ _____    ______ ____
ROOT
ATOM      1  C   UNL     1       8.829  -3.672  24.782  0.00  0.00    +0.118 C 
ENDROOT
BRANCH   1   2
ATOM      2  C   UNL     1       9.311  -2.266  24.350  0.00  0.00    +0.007 A 
ATOM      3  C   UNL     1       9.256  -1.134  25.192  0.00  0.00    +0.047 A 
ATOM      4 CL   UNL     1       8.625  -1.165  26.805  0.00  0.00    -0.083 Cl
ATOM      5  C   UNL     1       9.754   0.109  24.766  0.00  0.00    +0.020 A 
ATOM      6  C   UNL     1      10.339   0.254  23.512  0.00  0.00    +0.001 A 
ATOM      7  C   UNL     1      10.423  -0.843  22.669  0.00  0.00    +0.000 A 
ATOM      8  C   UNL     1       9.913  -2.078  23.080  0.00  0.00    +0.008 A 
ENDBRANCH   1   2
BRANCH   1   9
ATOM      9  C   UNL     1       7.693  -4.157  23.859  0.00  0.00    -0.012 A 
ATOM     10  C   UNL     1       7.761  -5.352  23.121  0.00  0.00    +0.007 A 
ATOM     11  C   UNL     1       6.679  -5.784  22.348  0.00  0.00    +0.000 A 
ATOM     12  C   UNL     1       5.519  -5.018  22.269  0.00  0.00    +0.000 A 
ATOM     13  C   UNL     1       5.443  -3.812  22.954  0.00  0.00    +0.000 A 
ATOM     14  C   UNL     1       6.516  -3.388  23.741  0.00  0.00    +0.007 A 
ENDBRANCH   1   9
BRANCH   1  15
ATOM     15  O   UNL     1       9.979  -4.533  24.773  0.00  0.00    -0.379 OA
ATOM     16  H   UNL     1       9.696  -5.428  25.008  0.00  0.00    +0.211 HD
ENDBRANCH   1  15
BRANCH   1  17
ATOM     17  C   UNL     1       8.360  -3.723  26.277  0.00  0.00    +0.060 C 
BRANCH  17  18
ATOM     18  C   UNL     1       8.000  -5.133  26.789  0.00  0.00    +0.087 C 
BRANCH  18  20
ATOM     19  C   UNL     1       6.019  -3.905  27.387  0.00  0.00    +0.104 C 
ATOM     20  N   UNL     1       6.598  -5.248  27.243  0.00  0.00    -0.308 NA
ATOM     21  C   UNL     1       5.780  -6.036  26.322  0.00  0.00    +0.104 C 
ENDBRANCH  18  20
ENDBRANCH  17  18
ENDBRANCH   1  17
TORSDOF 6
ENDMDL
MODEL 3
REMARK VINA RESULT:      -5.5      1.306      4.275
REMARK  Name = 
REMARK  8 active torsions:
REMARK  status: ('A' for Active; 'I' for Inactive)
REMARK    1  A    between atoms: C_1  and  N_2
REMARK    2  A    between atoms: N_2  and  C_3
REMARK    3  A    between atoms: N_2  and  C_4
REMARK    4  A    between atoms: C_4  and  C_5
REMARK    5  A    between atoms: C_5  and  C_6
REMARK    6  A    between atoms: C_6  and  O_7
REMARK    7  A    between atoms: C_6  and  C_8
REMARK    8  A    between atoms: C_6  and  C_14
REMARK                            x       y       z     vdW  Elec       q    Type
REMARK                         _______ _______ _______ _____ _____    ______ ____
ROOT
ATOM      1  C   UNL     1       7.802  -2.252  23.448  0.00  0.00    +0.118 C 
ENDROOT
BRANCH   1   2
ATOM      2  C   UNL     1       7.970  -3.245  24.623  0.00  0.00    +0.007 A 
ATOM      3  C   UNL     1       7.353  -3.069  25.881  0.00  0.00    +0.047 A 
ATOM      4 CL   UNL     1       6.348  -1.714  26.279  0.00  0.00    -0.083 Cl
ATOM      5  C   UNL     1       7.497  -4.027  26.898  0.00  0.00    +0.020 A 
ATOM      6  C   UNL     1       8.232  -5.190  26.687  0.00  0.00    +0.001 A 
ATOM      7  C   UNL     1       8.835  -5.399  25.458  0.00  0.00    +0.000 A 
ATOM      8  C   UNL     1       8.710  -4.440  24.447  0.00  0.00    +0.008 A 
ENDBRANCH   1   2
BRANCH   1   9
ATOM      9  C   UNL     1       8.447  -0.895  23.796  0.00  0.00    -0.012 A 
ATOM     10  C   UNL     1       7.791   0.336  23.612  0.00  0.00    +0.007 A 
ATOM     11  C   UNL     1       8.391   1.537  24.003  0.00  0.00    +0.000 A 
ATOM     12  C   UNL     1       9.669   1.539  24.556  0.00  0.00    +0.000 A 
ATOM     13  C   UNL     1      10.355   0.340  24.709  0.00  0.00    +0.000 A 
ATOM     14  C   UNL     1       9.750  -0.861  24.335  0.00  0.00    +0.007 A 
ENDBRANCH   1   9
BRANCH   1  15
ATOM     15  O   UNL     1       8.374  -2.875  22.286  0.00  0.00    -0.379 OA
ATOM     16  H   UNL     1       8.677  -3.762  22.530  0.00  0.00    +0.211 HD
ENDBRANCH   1  15
BRANCH   1  17
ATOM     17  C   UNL     1       6.305  -2.042  23.036  0.00  0.00    +0.060 C 
BRANCH  17  18
ATOM     18  C   UNL     1       5.795  -3.014  21.952  0.00  0.00    +0.087 C 
BRANCH  18  20
ATOM     19  C   UNL     1       5.607  -5.347  22.509  0.00  0.00    +0.104 C 
ATOM     20  N   UNL     1       4.897  -4.061  22.484  0.00  0.00    -0.308 NA
ATOM     21  C   UNL     1       4.410  -3.745  23.826  0.00  0.00    +0.104 C 
ENDBRANCH  18  20
ENDBRANCH  17  18
ENDBRANCH   1  17
TORSDOF 6
ENDMDL
MODEL 4
REMARK VINA RESULT:      -5.5      2.265      3.676
REMARK  Name = 
REMARK  8 active torsions:
REMARK  status: ('A' for Active; 'I' for Inactive)
REMARK    1  A    between atoms: C_1  and  N_2
REMARK    2  A    between atoms: N_2  and  C_3
REMARK    3  A    between atoms: N_2  and  C_4
REMARK    4  A    between atoms: C_4  and  C_5
REMARK    5  A    between atoms: C_5  and  C_6
REMARK    6  A    between atoms: C_6  and  O_7
REMARK    7  A    between atoms: C_6  and  C_8
REMARK    8  A    between atoms: C_6  and  C_14
REMARK                            x       y       z     vdW  Elec       q    Type
REMARK                         _______ _______ _______ _____ _____    ______ ____
ROOT
ATOM      1  C   UNL     1       7.611  -1.785  24.185  0.00  0.00    +0.118 C 
ENDROOT
BRANCH   1   2
ATOM      2  C   UNL     1       7.930  -0.581  23.267  0.00  0.00    +0.007 A 
ATOM      3  C   UNL     1       9.104  -0.489  22.488  0.00  0.00    +0.047 A 
ATOM      4 CL   UNL     1      10.346  -1.697  22.474  0.00  0.00    -0.083 Cl
ATOM      5  C   UNL     1       9.321   0.604  21.632  0.00  0.00    +0.020 A 
ATOM      6  C   UNL     1       8.372   1.615  21.509  0.00  0.00    +0.001 A 
ATOM      7  C   UNL     1       7.203   1.545  22.247  0.00  0.00    +0.000 A 
ATOM      8  C   UNL     1       6.989   0.468  23.115  0.00  0.00    +0.008 A 
ENDBRANCH   1   2
BRANCH   1   9
ATOM      9  C   UNL     1       7.311  -3.040  23.339  0.00  0.00    -0.012 A 
ATOM     10  C   UNL     1       7.927  -4.284  23.566  0.00  0.00    +0.007 A 
ATOM     11  C   UNL     1       7.575  -5.410  22.815  0.00  0.00    +0.000 A 
ATOM     12  C   UNL     1       6.626  -5.312  21.802  0.00  0.00    +0.000 A 
ATOM     13  C   UNL     1       6.034  -4.085  21.529  0.00  0.00    +0.000 A 
ATOM     14  C   UNL     1       6.372  -2.964  22.290  0.00  0.00    +0.007 A 
ENDBRANCH   1   9
BRANCH   1  15
ATOM     15  O   UNL     1       8.731  -1.948  25.070  0.00  0.00    -0.379 OA
ATOM     16  H   UNL     1       9.087  -1.073  25.280  0.00  0.00    +0.211 HD
ENDBRANCH   1  15
BRANCH   1  17
ATOM     17  C   UNL     1       6.421  -1.507  25.165  0.00  0.00    +0.060 C 
BRANCH  17  18
ATOM     18  C   UNL     1       6.697  -1.888  26.635  0.00  0.00    +0.087 C 
BRANCH  18  20
ATOM     19  C   UNL     1       4.860  -3.366  26.155  0.00  0.00    +0.104 C 
ATOM     20  N   UNL     1       5.986  -3.112  27.063  0.00  0.00    -0.308 NA
ATOM     21  C   UNL     1       6.864  -4.281  27.093  0.00  0.00    +0.104 C 
ENDBRANCH  18  20
ENDBRANCH  17  18
ENDBRANCH   1  17
TORSDOF 6
ENDMDL
MODEL 5
REMARK VINA RESULT:      -5.4      2.260      4.044
REMARK  Name = 
REMARK  8 active torsions:
REMARK  status: ('A' for Active; 'I' for Inactive)
REMARK    1  A    between atoms: C_1  and  N_2
REMARK    2  A    between atoms: N_2  and  C_3
REMARK    3  A    between atoms: N_2  and  C_4
REMARK    4  A    between atoms: C_4  and  C_5
REMARK    5  A    between atoms: C_5  and  C_6
REMARK    6  A    between atoms: C_6  and  O_7
REMARK    7  A    between atoms: C_6  and  C_8
REMARK    8  A    between atoms: C_6  and  C_14
REMARK                            x       y       z     vdW  Elec       q    Type
REMARK                         _______ _______ _______ _____ _____    ______ ____
ROOT
ATOM      1  C   UNL     1       8.165  -3.433  25.212  0.00  0.00    +0.118 C 
ENDROOT
BRANCH   1   2
ATOM      2  C   UNL     1       8.471  -1.916  25.195  0.00  0.00    +0.007 A 
ATOM      3  C   UNL     1       9.367  -1.316  24.283  0.00  0.00    +0.047 A 
ATOM      4 CL   UNL     1      10.254  -2.198  23.084  0.00  0.00    -0.083 Cl
ATOM      5  C   UNL     1       9.570   0.074  24.278  0.00  0.00    +0.020 A 
ATOM      6  C   UNL     1       8.875   0.903  25.153  0.00  0.00    +0.001 A 
ATOM      7  C   UNL     1       7.976   0.346  26.048  0.00  0.00    +0.000 A 
ATOM      8  C   UNL     1       7.783  -1.040  26.071  0.00  0.00    +0.008 A 
ENDBRANCH   1   2
BRANCH   1   9
ATOM      9  C   UNL     1       7.398  -3.840  23.937  0.00  0.00    -0.012 A 
ATOM     10  C   UNL     1       6.351  -3.075  23.393  0.00  0.00    +0.007 A 
ATOM     11  C   UNL     1       5.728  -3.451  22.199  0.00  0.00    +0.000 A 
ATOM     12  C   UNL     1       6.116  -4.614  21.539  0.00  0.00    +0.000 A 
ATOM     13  C   UNL     1       7.120  -5.410  22.077  0.00  0.00    +0.000 A 
ATOM     14  C   UNL     1       7.754  -5.026  23.260  0.00  0.00    +0.007 A 
ENDBRANCH   1   9
BRANCH   1  15
ATOM     15  O   UNL     1       9.420  -4.113  25.365  0.00  0.00    -0.379 OA
ATOM     16  H   UNL     1       9.448  -4.853  24.741  0.00  0.00    +0.211 HD
ENDBRANCH   1  15
BRANCH   1  17
ATOM     17  C   UNL     1       7.362  -3.878  26.482  0.00  0.00    +0.060 C 
BRANCH  17  18
ATOM     18  C   UNL     1       7.694  -5.299  26.985  0.00  0.00    +0.087 C 
BRANCH  18  20
ATOM     19  C   UNL     1       5.840  -5.520  28.503  0.00  0.00    +0.104 C 
ATOM     20  N   UNL     1       6.493  -6.094  27.319  0.00  0.00    -0.308 NA
ATOM     21  C   UNL     1       5.538  -6.148  26.213  0.00  0.00    +0.104 C 
ENDBRANCH  18  20
ENDBRANCH  17  18
ENDBRANCH   1  17
TORSDOF 6
ENDMDL
MODEL 6
REMARK VINA RESULT:      -5.3      2.535      5.198
REMARK  Name = 
REMARK  8 active torsions:
REMARK  status: ('A' for Active; 'I' for Inactive)
REMARK    1  A    between atoms: C_1  and  N_2
REMARK    2  A    between atoms: N_2  and  C_3
REMARK    3  A    between atoms: N_2  and  C_4
REMARK    4  A    between atoms: C_4  and  C_5
REMARK    5  A    between atoms: C_5  and  C_6
REMARK    6  A    between atoms: C_6  and  O_7
REMARK    7  A    between atoms: C_6  and  C_8
REMARK    8  A    between atoms: C_6  and  C_14
REMARK                            x       y       z     vdW  Elec       q    Type
REMARK                         _______ _______ _______ _____ _____    ______ ____
ROOT
ATOM      1  C   UNL     1       8.648  -2.696  23.637  0.00  0.00    +0.118 C 
ENDROOT
BRANCH   1   2
ATOM      2  C   UNL     1       7.607  -3.776  23.258  0.00  0.00    +0.007 A 
ATOM      3  C   UNL     1       7.125  -4.742  24.169  0.00  0.00    +0.047 A 
ATOM      4 CL   UNL     1       7.649  -4.857  25.817  0.00  0.00    -0.083 Cl
ATOM      5  C   UNL     1       6.141  -5.669  23.787  0.00  0.00    +0.020 A 
ATOM      6  C   UNL     1       5.595  -5.646  22.507  0.00  0.00    +0.001 A 
ATOM      7  C   UNL     1       6.036  -4.700  21.596  0.00  0.00    +0.000 A 
ATOM      8  C   UNL     1       7.028  -3.786  21.965  0.00  0.00    +0.008 A 
ENDBRANCH   1   2
BRANCH   1   9
ATOM      9  C   UNL     1       8.063  -1.731  24.689  0.00  0.00    -0.012 A 
ATOM     10  C   UNL     1       6.865  -1.020  24.495  0.00  0.00    +0.007 A 
ATOM     11  C   UNL     1       6.339  -0.206  25.504  0.00  0.00    +0.000 A 
ATOM     12  C   UNL     1       7.012  -0.061  26.714  0.00  0.00    +0.000 A 
ATOM     13  C   UNL     1       8.219  -0.719  26.914  0.00  0.00    +0.000 A 
ATOM     14  C   UNL     1       8.736  -1.546  25.915  0.00  0.00    +0.007 A 
ENDBRANCH   1   9
BRANCH   1  15
ATOM     15  O   UNL     1       9.825  -3.386  24.088  0.00  0.00    -0.379 OA
ATOM     16  H   UNL     1       9.555  -4.105  24.676  0.00  0.00    +0.211 HD
ENDBRANCH   1  15
BRANCH   1  17
ATOM     17  C   UNL     1       9.165  -1.886  22.399  0.00  0.00    +0.060 C 
BRANCH  17  18
ATOM     18  C   UNL     1      10.408  -1.015  22.676  0.00  0.00    +0.087 C 
BRANCH  18  20
ATOM     19  C   UNL     1       9.003   0.582  21.550  0.00  0.00    +0.104 C 
ATOM     20  N   UNL     1      10.185   0.422  22.408  0.00  0.00    -0.308 NA
ATOM     21  C   UNL     1      10.004   1.194  23.637  0.00  0.00    +0.104 C 
ENDBRANCH  18  20
ENDBRANCH  17  18
ENDBRANCH   1  17
TORSDOF 6
ENDMDL
MODEL 7
REMARK VINA RESULT:      -5.3      2.753      4.351
REMARK  Name = 
REMARK  8 active torsions:
REMARK  status: ('A' for Active; 'I' for Inactive)
REMARK    1  A    between atoms: C_1  and  N_2
REMARK    2  A    between atoms: N_2  and  C_3
REMARK    3  A    between atoms: N_2  and  C_4
REMARK    4  A    between atoms: C_4  and  C_5
REMARK    5  A    between atoms: C_5  and  C_6
REMARK    6  A    between atoms: C_6  and  O_7
REMARK    7  A    between atoms: C_6  and  C_8
REMARK    8  A    between atoms: C_6  and  C_14
REMARK                            x       y       z     vdW  Elec       q    Type
REMARK                         _______ _______ _______ _____ _____    ______ ____
ROOT
ATOM      1  C   UNL     1       7.413  -1.604  24.204  0.00  0.00    +0.118 C 
ENDROOT
BRANCH   1   2
ATOM      2  C   UNL     1       7.883  -0.486  23.243  0.00  0.00    +0.007 A 
ATOM      3  C   UNL     1       9.122  -0.516  22.565  0.00  0.00    +0.047 A 
ATOM      4 CL   UNL     1      10.281  -1.793  22.735  0.00  0.00    -0.083 Cl
ATOM      5  C   UNL     1       9.478   0.501  21.663  0.00  0.00    +0.020 A 
ATOM      6  C   UNL     1       8.610   1.555  21.394  0.00  0.00    +0.001 A 
ATOM      7  C   UNL     1       7.380   1.604  22.031  0.00  0.00    +0.000 A 
ATOM      8  C   UNL     1       7.028   0.603  22.943  0.00  0.00    +0.008 A 
ENDBRANCH   1   2
BRANCH   1   9
ATOM      9  C   UNL     1       7.176  -2.915  23.427  0.00  0.00    -0.012 A 
ATOM     10  C   UNL     1       6.353  -2.995  22.289  0.00  0.00    +0.007 A 
ATOM     11  C   UNL     1       6.220  -4.192  21.579  0.00  0.00    +0.000 A 
ATOM     12  C   UNL     1       6.878  -5.341  22.007  0.00  0.00    +0.000 A 
ATOM     13  C   UNL     1       7.663  -5.300  23.153  0.00  0.00    +0.000 A 
ATOM     14  C   UNL     1       7.811  -4.101  23.852  0.00  0.00    +0.007 A 
ENDBRANCH   1   9
BRANCH   1  15
ATOM     15  O   UNL     1       8.410  -1.722  25.232  0.00  0.00    -0.379 OA
ATOM     16  H   UNL     1       8.099  -2.360  25.890  0.00  0.00    +0.211 HD
ENDBRANCH   1  15
BRANCH   1  17
ATOM     17  C   UNL     1       6.122  -1.217  25.004  0.00  0.00    +0.060 C 
BRANCH  17  18
ATOM     18  C   UNL     1       6.361  -0.910  26.497  0.00  0.00    +0.087 C 
BRANCH  18  20
ATOM     19  C   UNL     1       5.716   1.403  26.329  0.00  0.00    +0.104 C 
ATOM     20  N   UNL     1       6.786   0.485  26.745  0.00  0.00    -0.308 NA
ATOM     21  C   UNL     1       7.116   0.723  28.149  0.00  0.00    +0.104 C 
ENDBRANCH  18  20
ENDBRANCH  17  18
ENDBRANCH   1  17
TORSDOF 6
ENDMDL
MODEL 8
REMARK VINA RESULT:      -5.2      2.400      4.858
REMARK  Name = 
REMARK  8 active torsions:
REMARK  status: ('A' for Active; 'I' for Inactive)
REMARK    1  A    between atoms: C_1  and  N_2
REMARK    2  A    between atoms: N_2  and  C_3
REMARK    3  A    between atoms: N_2  and  C_4
REMARK    4  A    between atoms: C_4  and  C_5
REMARK    5  A    between atoms: C_5  and  C_6
REMARK    6  A    between atoms: C_6  and  O_7
REMARK    7  A    between atoms: C_6  and  C_8
REMARK    8  A    between atoms: C_6  and  C_14
REMARK                            x       y       z     vdW  Elec       q    Type
REMARK                         _______ _______ _______ _____ _____    ______ ____
ROOT
ATOM      1  C   UNL     1       7.682  -4.684  25.171  0.00  0.00    +0.118 C 
ENDROOT
BRANCH   1   2
ATOM      2  C   UNL     1       7.078  -4.773  23.749  0.00  0.00    +0.007 A 
ATOM      3  C   UNL     1       6.094  -3.882  23.267  0.00  0.00    +0.047 A 
ATOM      4 CL   UNL     1       5.422  -2.590  24.207  0.00  0.00    -0.083 Cl
ATOM      5  C   UNL     1       5.616  -3.976  21.949  0.00  0.00    +0.020 A 
ATOM      6  C   UNL     1       6.116  -4.934  21.073  0.00  0.00    +0.001 A 
ATOM      7  C   UNL     1       7.094  -5.812  21.511  0.00  0.00    +0.000 A 
ATOM      8  C   UNL     1       7.561  -5.735  22.828  0.00  0.00    +0.008 A 
ENDBRANCH   1   2
BRANCH   1   9
ATOM      9  C   UNL     1       6.604  -4.990  26.231  0.00  0.00    -0.012 A 
ATOM     10  C   UNL     1       6.394  -4.186  27.366  0.00  0.00    +0.007 A 
ATOM     11  C   UNL     1       5.362  -4.467  28.267  0.00  0.00    +0.000 A 
ATOM     12  C   UNL     1       4.538  -5.572  28.072  0.00  0.00    +0.000 A 
ATOM     13  C   UNL     1       4.752  -6.406  26.981  0.00  0.00    +0.000 A 
ATOM     14  C   UNL     1       5.771  -6.117  26.072  0.00  0.00    +0.007 A 
ENDBRANCH   1   9
BRANCH   1  15
ATOM     15  O   UNL     1       8.796  -5.589  25.212  0.00  0.00    -0.379 OA
ATOM     16  H   UNL     1       9.174  -5.654  24.323  0.00  0.00    +0.211 HD
ENDBRANCH   1  15
BRANCH   1  17
ATOM     17  C   UNL     1       8.342  -3.294  25.467  0.00  0.00    +0.060 C 
BRANCH  17  18
ATOM     18  C   UNL     1       9.419  -2.865  24.448  0.00  0.00    +0.087 C 
BRANCH  18  20
ATOM     19  C   UNL     1      10.053  -0.581  24.034  0.00  0.00    +0.104 C 
ATOM     20  N   UNL     1       9.070  -1.626  23.719  0.00  0.00    -0.308 NA
ATOM     21  C   UNL     1       9.020  -1.830  22.272  0.00  0.00    +0.104 C 
ENDBRANCH  18  20
ENDBRANCH  17  18
ENDBRANCH   1  17
TORSDOF 6
ENDMDL
MODEL 9
REMARK VINA RESULT:      -5.2      1.909      4.711
REMARK  Name = 
REMARK  8 active torsions:
REMARK  status: ('A' for Active; 'I' for Inactive)
REMARK    1  A    between atoms: C_1  and  N_2
REMARK    2  A    between atoms: N_2  and  C_3
REMARK    3  A    between atoms: N_2  and  C_4
REMARK    4  A    between atoms: C_4  and  C_5
REMARK    5  A    between atoms: C_5  and  C_6
REMARK    6  A    between atoms: C_6  and  O_7
REMARK    7  A    between atoms: C_6  and  C_8
REMARK    8  A    between atoms: C_6  and  C_14
REMARK                            x       y       z     vdW  Elec       q    Type
REMARK                         _______ _______ _______ _____ _____    ______ ____
ROOT
ATOM      1  C   UNL     1       6.981  -1.984  24.106  0.00  0.00    +0.118 C 
ENDROOT
BRANCH   1   2
ATOM      2  C   UNL     1       6.992  -3.283  23.265  0.00  0.00    +0.007 A 
ATOM      3  C   UNL     1       7.832  -4.383  23.547  0.00  0.00    +0.047 A 
ATOM      4 CL   UNL     1       8.970  -4.414  24.853  0.00  0.00    -0.083 Cl
ATOM      5  C   UNL     1       7.765  -5.559  22.781  0.00  0.00    +0.020 A 
ATOM      6  C   UNL     1       6.852  -5.683  21.738  0.00  0.00    +0.001 A 
ATOM      7  C   UNL     1       6.003  -4.627  21.448  0.00  0.00    +0.000 A 
ATOM      8  C   UNL     1       6.077  -3.447  22.195  0.00  0.00    +0.008 A 
ENDBRANCH   1   2
BRANCH   1   9
ATOM      9  C   UNL     1       8.305  -1.215  23.923  0.00  0.00    -0.012 A 
ATOM     10  C   UNL     1       8.873  -0.954  22.663  0.00  0.00    +0.007 A 
ATOM     11  C   UNL     1      10.042  -0.196  22.544  0.00  0.00    +0.000 A 
ATOM     12  C   UNL     1      10.686   0.290  23.678  0.00  0.00    +0.000 A 
ATOM     13  C   UNL     1      10.169   0.009  24.937  0.00  0.00    +0.000 A 
ATOM     14  C   UNL     1       8.992  -0.732  25.057  0.00  0.00    +0.007 A 
ENDBRANCH   1   9
BRANCH   1  15
ATOM     15  O   UNL     1       5.824  -1.233  23.705  0.00  0.00    -0.379 OA
ATOM     16  H   UNL     1       5.488  -1.603  22.877  0.00  0.00    +0.211 HD
ENDBRANCH   1  15
BRANCH   1  17
ATOM     17  C   UNL     1       6.723  -2.246  25.630  0.00  0.00    +0.060 C 
BRANCH  17  18
ATOM     18  C   UNL     1       5.262  -2.597  25.982  0.00  0.00    +0.087 C 
BRANCH  18  20
ATOM     19  C   UNL     1       4.775  -4.927  25.630  0.00  0.00    +0.104 C 
ATOM     20  N   UNL     1       5.121  -3.915  26.637  0.00  0.00    -0.308 NA
ATOM     21  C   UNL     1       6.339  -4.320  27.338  0.00  0.00    +0.104 C 
ENDBRANCH  18  20
ENDBRANCH  17  18
ENDBRANCH   1  17
TORSDOF 6
ENDMDL
