MODEL 1
REMARK VINA RESULT:      -6.9      0.000      0.000
REMARK  Name = 
REMARK  18 active torsions:
REMARK  status: ('A' for Active; 'I' for Inactive)
REMARK    1  A    between atoms: O_1  and  C_2
REMARK    2  A    between atoms: C_2  and  C_3
REMARK    3  A    between atoms: C_3  and  C_4
REMARK    4  A    between atoms: C_5  and  C_6
REMARK    5  A    between atoms: C_7  and  C_8
REMARK    6  A    between atoms: C_8  and  C_9
REMARK    7  A    between atoms: C_10  and  C_11
REMARK    8  A    between atoms: C_12  and  C_13
REMARK    9  A    between atoms: C_14  and  C_15
REMARK   10  A    between atoms: C_14  and  C_16
REMARK   11  A    between atoms: C_17  and  C_18
REMARK   12  A    between atoms: C_19  and  C_20
REMARK   13  A    between atoms: C_19  and  C_21
REMARK   14  A    between atoms: C_22  and  C_23
REMARK   15  A    between atoms: C_24  and  C_25
REMARK   16  A    between atoms: C_27  and  O_29
REMARK   17  A    between atoms: C_31  and  C_32
REMARK   18  A    between atoms: C_31  and  C_33
REMARK                            x       y       z     vdW  Elec       q    Type
REMARK                         _______ _______ _______ _____ _____    ______ ____
ROOT
ATOM      1  C   UNL     1       6.506   3.925  23.121  0.00  0.00    +0.003 C 
ATOM      2  C   UNL     1       6.030   2.728  22.750  0.00  0.00    +0.001 C 
ENDROOT
BRANCH   1   4
ATOM      3  C   UNL     1       6.588   6.331  22.616  0.00  0.00    +0.003 C 
ATOM      4  C   UNL     1       5.889   5.187  22.730  0.00  0.00    -0.050 C 
ATOM      5  C   UNL     1       4.398   5.173  22.522  0.00  0.00    +0.044 C 
BRANCH   3   7
ATOM      6  C   UNL     1       8.613   6.378  23.960  0.00  0.00    +0.000 C 
ATOM      7  C   UNL     1       8.018   6.452  22.764  0.00  0.00    +0.000 C 
BRANCH   6   9
ATOM      8  C   UNL     1      10.966   5.579  23.749  0.00  0.00    -0.050 C 
ATOM      9  C   UNL     1      10.042   6.490  24.117  0.00  0.00    +0.003 C 
ATOM     10  C   UNL     1      12.408   5.921  24.045  0.00  0.00    +0.044 C 
BRANCH   8  12
ATOM     11  C   UNL     1      10.658   3.096  23.599  0.00  0.00    +0.000 C 
ATOM     12  C   UNL     1      10.613   4.331  23.076  0.00  0.00    +0.003 C 
BRANCH  11  14
ATOM     13  C   UNL     1      10.303   0.654  23.388  0.00  0.00    -0.048 C 
ATOM     14  C   UNL     1      10.299   1.898  22.868  0.00  0.00    +0.001 C 
ATOM     15  C   UNL     1      10.691   0.358  24.814  0.00  0.00    +0.041 C 
BRANCH  13  16
ATOM     16  C   UNL     1       9.889  -0.534  22.566  0.00  0.00    +0.186 C 
BRANCH  16  17
ATOM     17  O   UNL     1      10.238  -1.719  23.262  0.00  0.00    -0.391 OA
ATOM     18  H   UNL     1      10.867  -1.460  23.955  0.00  0.00    +0.210 HD
ENDBRANCH  16  17
ENDBRANCH  13  16
ENDBRANCH  11  14
ENDBRANCH   8  12
ENDBRANCH   6   9
ENDBRANCH   3   7
ENDBRANCH   1   4
BRANCH   2  19
ATOM     19  C   UNL     1       6.624   1.464  23.142  0.00  0.00    +0.003 C 
ATOM     20  C   UNL     1       6.329   0.746  24.249  0.00  0.00    -0.050 C 
ATOM     21  C   UNL     1       5.278   1.142  25.261  0.00  0.00    +0.044 C 
BRANCH  20  22
ATOM     22  C   UNL     1       7.035  -0.523  24.488  0.00  0.00    +0.003 C 
ATOM     23  C   UNL     1       6.471  -1.745  24.498  0.00  0.00    +0.004 C 
BRANCH  23  24
ATOM     24  C   UNL     1       7.188  -3.014  24.665  0.00  0.00    -0.043 C 
ATOM     25  C   UNL     1       7.587  -3.378  26.110  0.00  0.00    -0.008 C 
ATOM     26  C   UNL     1       8.484  -2.260  26.695  0.00  0.00    +0.016 C 
ATOM     27  C   UNL     1       6.320  -3.480  27.005  0.00  0.00    +0.016 C 
ATOM     28  C   UNL     1       8.331  -4.742  26.277  0.00  0.00    +0.042 C 
ATOM     29  C   UNL     1       8.838  -5.449  25.027  0.00  0.00    +0.119 C 
ATOM     30  C   UNL     1       8.076  -5.176  23.736  0.00  0.00    +0.062 C 
ATOM     31  C   UNL     1       7.393  -3.838  23.612  0.00  0.00    -0.067 C 
ATOM     32  C   UNL     1       6.900  -3.579  22.203  0.00  0.00    +0.039 C 
BRANCH  29  33
ATOM     33  O   UNL     1      10.227  -5.160  24.851  0.00  0.00    -0.391 OA
ATOM     34  H   UNL     1      10.399  -5.121  23.899  0.00  0.00    +0.210 HD
ENDBRANCH  29  33
ENDBRANCH  23  24
ENDBRANCH  20  22
ENDBRANCH   2  19
TORSDOF 11
ENDMDL
MODEL 2
REMARK VINA RESULT:      -6.7      2.809      8.754
REMARK  Name = 
REMARK  18 active torsions:
REMARK  status: ('A' for Active; 'I' for Inactive)
REMARK    1  A    between atoms: O_1  and  C_2
REMARK    2  A    between atoms: C_2  and  C_3
REMARK    3  A    between atoms: C_3  and  C_4
REMARK    4  A    between atoms: C_5  and  C_6
REMARK    5  A    between atoms: C_7  and  C_8
REMARK    6  A    between atoms: C_8  and  C_9
REMARK    7  A    between atoms: C_10  and  C_11
REMARK    8  A    between atoms: C_12  and  C_13
REMARK    9  A    between atoms: C_14  and  C_15
REMARK   10  A    between atoms: C_14  and  C_16
REMARK   11  A    between atoms: C_17  and  C_18
REMARK   12  A    between atoms: C_19  and  C_20
REMARK   13  A    between atoms: C_19  and  C_21
REMARK   14  A    between atoms: C_22  and  C_23
REMARK   15  A    between atoms: C_24  and  C_25
REMARK   16  A    between atoms: C_27  and  O_29
REMARK   17  A    between atoms: C_31  and  C_32
REMARK   18  A    between atoms: C_31  and  C_33
REMARK                            x       y       z     vdW  Elec       q    Type
REMARK                         _______ _______ _______ _____ _____    ______ ____
ROOT
ATOM      1  C   UNL     1       3.324  -4.884  24.029  0.00  0.00    +0.003 C 
ATOM      2  C   UNL     1       4.196  -4.756  23.018  0.00  0.00    +0.001 C 
ENDROOT
BRANCH   1   4
ATOM      3  C   UNL     1       2.052  -6.607  25.238  0.00  0.00    +0.003 C 
ATOM      4  C   UNL     1       2.331  -5.949  24.098  0.00  0.00    -0.050 C 
ATOM      5  C   UNL     1       1.666  -6.337  22.804  0.00  0.00    +0.044 C 
BRANCH   3   7
ATOM      6  C   UNL     1       2.481  -5.086  27.086  0.00  0.00    +0.000 C 
ATOM      7  C   UNL     1       2.605  -6.299  26.535  0.00  0.00    +0.000 C 
BRANCH   6   9
ATOM      8  C   UNL     1       4.308  -4.904  28.773  0.00  0.00    -0.050 C 
ATOM      9  C   UNL     1       3.024  -4.772  28.384  0.00  0.00    +0.003 C 
ATOM     10  C   UNL     1       4.624  -4.530  30.202  0.00  0.00    +0.044 C 
BRANCH   8  12
ATOM     11  C   UNL     1       5.851  -4.695  26.809  0.00  0.00    +0.000 C 
ATOM     12  C   UNL     1       5.359  -5.360  27.866  0.00  0.00    +0.003 C 
BRANCH  11  14
ATOM     13  C   UNL     1       8.090  -4.623  25.752  0.00  0.00    -0.048 C 
ATOM     14  C   UNL     1       6.893  -5.214  25.946  0.00  0.00    +0.001 C 
ATOM     15  C   UNL     1       8.489  -3.332  26.418  0.00  0.00    +0.041 C 
BRANCH  13  16
ATOM     16  C   UNL     1       9.127  -5.244  24.858  0.00  0.00    +0.186 C 
BRANCH  16  17
ATOM     17  O   UNL     1      10.241  -5.630  25.647  0.00  0.00    -0.391 OA
ATOM     18  H   UNL     1      10.632  -4.812  25.995  0.00  0.00    +0.210 HD
ENDBRANCH  16  17
ENDBRANCH  13  16
ENDBRANCH  11  14
ENDBRANCH   8  12
ENDBRANCH   6   9
ENDBRANCH   3   7
ENDBRANCH   1   4
BRANCH   2  19
ATOM     19  C   UNL     1       5.199  -3.711  22.943  0.00  0.00    +0.003 C 
ATOM     20  C   UNL     1       6.453  -3.833  22.451  0.00  0.00    -0.050 C 
ATOM     21  C   UNL     1       7.008  -5.106  21.854  0.00  0.00    +0.044 C 
BRANCH  20  22
ATOM     22  C   UNL     1       7.339  -2.659  22.454  0.00  0.00    +0.003 C 
ATOM     23  C   UNL     1       7.349  -1.685  23.382  0.00  0.00    +0.004 C 
BRANCH  23  24
ATOM     24  C   UNL     1       8.281  -0.552  23.422  0.00  0.00    -0.043 C 
ATOM     25  C   UNL     1       7.643   0.839  23.612  0.00  0.00    -0.008 C 
ATOM     26  C   UNL     1       6.638   1.109  22.466  0.00  0.00    +0.016 C 
ATOM     27  C   UNL     1       6.855   0.887  24.951  0.00  0.00    +0.016 C 
ATOM     28  C   UNL     1       8.649   2.034  23.674  0.00  0.00    +0.042 C 
ATOM     29  C   UNL     1      10.097   1.785  23.275  0.00  0.00    +0.119 C 
ATOM     30  C   UNL     1      10.621   0.368  23.472  0.00  0.00    +0.062 C 
ATOM     31  C   UNL     1       9.617  -0.754  23.382  0.00  0.00    -0.067 C 
ATOM     32  C   UNL     1      10.285  -2.112  23.329  0.00  0.00    +0.039 C 
BRANCH  29  33
ATOM     33  O   UNL     1      10.293   2.200  21.921  0.00  0.00    -0.391 OA
ATOM     34  H   UNL     1       9.452   2.555  21.599  0.00  0.00    +0.210 HD
ENDBRANCH  29  33
ENDBRANCH  23  24
ENDBRANCH  20  22
ENDBRANCH   2  19
TORSDOF 11
ENDMDL
MODEL 3
REMARK VINA RESULT:      -6.6      1.683      4.170
REMARK  Name = 
REMARK  18 active torsions:
REMARK  status: ('A' for Active; 'I' for Inactive)
REMARK    1  A    between atoms: O_1  and  C_2
REMARK    2  A    between atoms: C_2  and  C_3
REMARK    3  A    between atoms: C_3  and  C_4
REMARK    4  A    between atoms: C_5  and  C_6
REMARK    5  A    between atoms: C_7  and  C_8
REMARK    6  A    between atoms: C_8  and  C_9
REMARK    7  A    between atoms: C_10  and  C_11
REMARK    8  A    between atoms: C_12  and  C_13
REMARK    9  A    between atoms: C_14  and  C_15
REMARK   10  A    between atoms: C_14  and  C_16
REMARK   11  A    between atoms: C_17  and  C_18
REMARK   12  A    between atoms: C_19  and  C_20
REMARK   13  A    between atoms: C_19  and  C_21
REMARK   14  A    between atoms: C_22  and  C_23
REMARK   15  A    between atoms: C_24  and  C_25
REMARK   16  A    between atoms: C_27  and  O_29
REMARK   17  A    between atoms: C_31  and  C_32
REMARK   18  A    between atoms: C_31  and  C_33
REMARK                            x       y       z     vdW  Elec       q    Type
REMARK                         _______ _______ _______ _____ _____    ______ ____
ROOT
ATOM      1  C   UNL     1      10.397   3.926  24.011  0.00  0.00    +0.003 C 
ATOM      2  C   UNL     1      10.534   2.943  23.109  0.00  0.00    +0.001 C 
ENDROOT
BRANCH   1   4
ATOM      3  C   UNL     1       9.808   6.258  23.496  0.00  0.00    +0.003 C 
ATOM      4  C   UNL     1      10.739   5.316  23.735  0.00  0.00    -0.050 C 
ATOM      5  C   UNL     1      12.205   5.650  23.661  0.00  0.00    +0.044 C 
BRANCH   3   7
ATOM      6  C   UNL     1       7.716   5.360  22.639  0.00  0.00    +0.000 C 
ATOM      7  C   UNL     1       8.380   6.057  23.570  0.00  0.00    +0.000 C 
BRANCH   6   9
ATOM      8  C   UNL     1       5.663   4.082  23.245  0.00  0.00    -0.050 C 
ATOM      9  C   UNL     1       6.292   5.148  22.709  0.00  0.00    +0.003 C 
ATOM     10  C   UNL     1       4.154   4.081  23.173  0.00  0.00    +0.044 C 
BRANCH   8  12
ATOM     11  C   UNL     1       6.793   2.937  25.167  0.00  0.00    +0.000 C 
ATOM     12  C   UNL     1       6.385   2.987  23.889  0.00  0.00    +0.003 C 
BRANCH  11  14
ATOM     13  C   UNL     1       6.957   0.868  26.517  0.00  0.00    -0.048 C 
ATOM     14  C   UNL     1       7.514   1.817  25.737  0.00  0.00    +0.001 C 
ATOM     15  C   UNL     1       5.499   0.862  26.895  0.00  0.00    +0.041 C 
BRANCH  13  16
ATOM     16  C   UNL     1       7.773  -0.279  27.048  0.00  0.00    +0.186 C 
BRANCH  16  17
ATOM     17  O   UNL     1       9.116  -0.124  26.619  0.00  0.00    -0.391 OA
ATOM     18  H   UNL     1       9.526  -1.003  26.668  0.00  0.00    +0.210 HD
ENDBRANCH  16  17
ENDBRANCH  13  16
ENDBRANCH  11  14
ENDBRANCH   8  12
ENDBRANCH   6   9
ENDBRANCH   3   7
ENDBRANCH   1   4
BRANCH   2  19
ATOM     19  C   UNL     1      10.184   1.559  23.363  0.00  0.00    +0.003 C 
ATOM     20  C   UNL     1       9.300   0.811  22.665  0.00  0.00    -0.050 C 
ATOM     21  C   UNL     1       8.542   1.306  21.455  0.00  0.00    +0.044 C 
BRANCH  20  22
ATOM     22  C   UNL     1       9.070  -0.586  23.067  0.00  0.00    +0.003 C 
ATOM     23  C   UNL     1       7.896  -1.101  23.478  0.00  0.00    +0.004 C 
BRANCH  23  24
ATOM     24  C   UNL     1       7.652  -2.509  23.810  0.00  0.00    -0.043 C 
ATOM     25  C   UNL     1       6.189  -2.984  23.696  0.00  0.00    -0.008 C 
ATOM     26  C   UNL     1       5.293  -2.129  24.625  0.00  0.00    +0.016 C 
ATOM     27  C   UNL     1       5.676  -2.791  22.241  0.00  0.00    +0.016 C 
ATOM     28  C   UNL     1       5.946  -4.491  24.032  0.00  0.00    +0.042 C 
ATOM     29  C   UNL     1       7.070  -5.278  24.691  0.00  0.00    +0.119 C 
ATOM     30  C   UNL     1       8.489  -4.805  24.403  0.00  0.00    +0.062 C 
ATOM     31  C   UNL     1       8.677  -3.339  24.106  0.00  0.00    -0.067 C 
ATOM     32  C   UNL     1      10.140  -2.942  24.098  0.00  0.00    +0.039 C 
BRANCH  29  33
ATOM     33  O   UNL     1       6.845  -5.332  26.102  0.00  0.00    -0.391 OA
ATOM     34  H   UNL     1       6.558  -4.452  26.387  0.00  0.00    +0.210 HD
ENDBRANCH  29  33
ENDBRANCH  23  24
ENDBRANCH  20  22
ENDBRANCH   2  19
TORSDOF 11
ENDMDL
MODEL 4
REMARK VINA RESULT:      -6.5      3.118      9.284
REMARK  Name = 
REMARK  18 active torsions:
REMARK  status: ('A' for Active; 'I' for Inactive)
REMARK    1  A    between atoms: O_1  and  C_2
REMARK    2  A    between atoms: C_2  and  C_3
REMARK    3  A    between atoms: C_3  and  C_4
REMARK    4  A    between atoms: C_5  and  C_6
REMARK    5  A    between atoms: C_7  and  C_8
REMARK    6  A    between atoms: C_8  and  C_9
REMARK    7  A    between atoms: C_10  and  C_11
REMARK    8  A    between atoms: C_12  and  C_13
REMARK    9  A    between atoms: C_14  and  C_15
REMARK   10  A    between atoms: C_14  and  C_16
REMARK   11  A    between atoms: C_17  and  C_18
REMARK   12  A    between atoms: C_19  and  C_20
REMARK   13  A    between atoms: C_19  and  C_21
REMARK   14  A    between atoms: C_22  and  C_23
REMARK   15  A    between atoms: C_24  and  C_25
REMARK   16  A    between atoms: C_27  and  O_29
REMARK   17  A    between atoms: C_31  and  C_32
REMARK   18  A    between atoms: C_31  and  C_33
REMARK                            x       y       z     vdW  Elec       q    Type
REMARK                         _______ _______ _______ _____ _____    ______ ____
ROOT
ATOM      1  C   UNL     1       5.910  -4.763  27.730  0.00  0.00    +0.003 C 
ATOM      2  C   UNL     1       6.637  -4.940  26.617  0.00  0.00    +0.001 C 
ENDROOT
BRANCH   1   4
ATOM      3  C   UNL     1       3.957  -6.160  28.260  0.00  0.00    +0.003 C 
ATOM      4  C   UNL     1       5.255  -5.855  28.439  0.00  0.00    -0.050 C 
ATOM      5  C   UNL     1       6.087  -6.599  29.450  0.00  0.00    +0.044 C 
BRANCH   3   7
ATOM      6  C   UNL     1       2.158  -6.235  26.626  0.00  0.00    +0.000 C 
ATOM      7  C   UNL     1       3.078  -5.535  27.301  0.00  0.00    +0.000 C 
BRANCH   6   9
ATOM      8  C   UNL     1       1.552  -5.317  24.388  0.00  0.00    -0.050 C 
ATOM      9  C   UNL     1       1.270  -5.618  25.672  0.00  0.00    +0.003 C 
ATOM     10  C   UNL     1       0.456  -4.647  23.594  0.00  0.00    +0.044 C 
BRANCH   8  12
ATOM     11  C   UNL     1       3.940  -4.873  23.767  0.00  0.00    +0.000 C 
ATOM     12  C   UNL     1       2.838  -5.639  23.771  0.00  0.00    +0.003 C 
BRANCH  11  14
ATOM     13  C   UNL     1       5.967  -4.416  22.420  0.00  0.00    -0.048 C 
ATOM     14  C   UNL     1       5.182  -5.255  23.126  0.00  0.00    +0.001 C 
ATOM     15  C   UNL     1       5.638  -2.961  22.208  0.00  0.00    +0.041 C 
BRANCH  13  16
ATOM     16  C   UNL     1       7.257  -4.888  21.809  0.00  0.00    +0.186 C 
BRANCH  16  17
ATOM     17  O   UNL     1       7.462  -6.247  22.161  0.00  0.00    -0.391 OA
ATOM     18  H   UNL     1       6.626  -6.709  21.985  0.00  0.00    +0.210 HD
ENDBRANCH  16  17
ENDBRANCH  13  16
ENDBRANCH  11  14
ENDBRANCH   8  12
ENDBRANCH   6   9
ENDBRANCH   3   7
ENDBRANCH   1   4
BRANCH   2  19
ATOM     19  C   UNL     1       7.307  -3.866  25.909  0.00  0.00    +0.003 C 
ATOM     20  C   UNL     1       8.471  -3.954  25.227  0.00  0.00    -0.050 C 
ATOM     21  C   UNL     1       9.260  -5.232  25.063  0.00  0.00    +0.044 C 
BRANCH  20  22
ATOM     22  C   UNL     1       9.005  -2.754  24.565  0.00  0.00    +0.003 C 
ATOM     23  C   UNL     1       8.296  -1.658  24.236  0.00  0.00    +0.004 C 
BRANCH  23  24
ATOM     24  C   UNL     1       8.844  -0.434  23.640  0.00  0.00    -0.043 C 
ATOM     25  C   UNL     1       9.130   0.722  24.620  0.00  0.00    -0.008 C 
ATOM     26  C   UNL     1       7.824   1.112  25.356  0.00  0.00    +0.016 C 
ATOM     27  C   UNL     1      10.158   0.271  25.695  0.00  0.00    +0.016 C 
ATOM     28  C   UNL     1       9.733   2.012  23.976  0.00  0.00    +0.042 C 
ATOM     29  C   UNL     1       9.731   2.134  22.459  0.00  0.00    +0.119 C 
ATOM     30  C   UNL     1       9.768   0.830  21.672  0.00  0.00    +0.062 C 
ATOM     31  C   UNL     1       9.154  -0.382  22.325  0.00  0.00    -0.067 C 
ATOM     32  C   UNL     1       9.013  -1.540  21.358  0.00  0.00    +0.039 C 
BRANCH  29  33
ATOM     33  O   UNL     1       8.613   2.926  22.049  0.00  0.00    -0.391 OA
ATOM     34  H   UNL     1       8.959   3.752  21.680  0.00  0.00    +0.210 HD
ENDBRANCH  29  33
ENDBRANCH  23  24
ENDBRANCH  20  22
ENDBRANCH   2  19
TORSDOF 11
ENDMDL
MODEL 5
REMARK VINA RESULT:      -6.5      2.961      8.730
REMARK  Name = 
REMARK  18 active torsions:
REMARK  status: ('A' for Active; 'I' for Inactive)
REMARK    1  A    between atoms: O_1  and  C_2
REMARK    2  A    between atoms: C_2  and  C_3
REMARK    3  A    between atoms: C_3  and  C_4
REMARK    4  A    between atoms: C_5  and  C_6
REMARK    5  A    between atoms: C_7  and  C_8
REMARK    6  A    between atoms: C_8  and  C_9
REMARK    7  A    between atoms: C_10  and  C_11
REMARK    8  A    between atoms: C_12  and  C_13
REMARK    9  A    between atoms: C_14  and  C_15
REMARK   10  A    between atoms: C_14  and  C_16
REMARK   11  A    between atoms: C_17  and  C_18
REMARK   12  A    between atoms: C_19  and  C_20
REMARK   13  A    between atoms: C_19  and  C_21
REMARK   14  A    between atoms: C_22  and  C_23
REMARK   15  A    between atoms: C_24  and  C_25
REMARK   16  A    between atoms: C_27  and  O_29
REMARK   17  A    between atoms: C_31  and  C_32
REMARK   18  A    between atoms: C_31  and  C_33
REMARK                            x       y       z     vdW  Elec       q    Type
REMARK                         _______ _______ _______ _____ _____    ______ ____
ROOT
ATOM      1  C   UNL     1       3.314  -4.411  24.093  0.00  0.00    +0.003 C 
ATOM      2  C   UNL     1       3.574  -3.422  24.960  0.00  0.00    +0.001 C 
ENDROOT
BRANCH   1   4
ATOM      3  C   UNL     1       2.183  -6.368  25.061  0.00  0.00    +0.003 C 
ATOM      4  C   UNL     1       2.176  -5.313  24.227  0.00  0.00    -0.050 C 
ATOM      5  C   UNL     1       0.997  -5.051  23.329  0.00  0.00    +0.044 C 
BRANCH   3   7
ATOM      6  C   UNL     1       3.290  -6.177  27.218  0.00  0.00    +0.000 C 
ATOM      7  C   UNL     1       3.244  -6.695  25.985  0.00  0.00    +0.000 C 
BRANCH   6   9
ATOM      8  C   UNL     1       5.634  -6.130  28.067  0.00  0.00    -0.050 C 
ATOM      9  C   UNL     1       4.341  -6.503  28.150  0.00  0.00    +0.003 C 
ATOM     10  C   UNL     1       6.551  -6.623  29.162  0.00  0.00    +0.044 C 
BRANCH   8  12
ATOM     11  C   UNL     1       6.913  -5.644  25.967  0.00  0.00    +0.000 C 
ATOM     12  C   UNL     1       6.136  -5.272  26.996  0.00  0.00    +0.003 C 
BRANCH  11  14
ATOM     13  C   UNL     1       7.079  -4.837  23.632  0.00  0.00    -0.048 C 
ATOM     14  C   UNL     1       7.381  -4.734  24.942  0.00  0.00    +0.001 C 
ATOM     15  C   UNL     1       6.207  -5.931  23.071  0.00  0.00    +0.041 C 
BRANCH  13  16
ATOM     16  C   UNL     1       7.585  -3.832  22.635  0.00  0.00    +0.186 C 
BRANCH  16  17
ATOM     17  O   UNL     1       6.503  -3.407  21.821  0.00  0.00    -0.391 OA
ATOM     18  H   UNL     1       6.764  -2.556  21.433  0.00  0.00    +0.210 HD
ENDBRANCH  16  17
ENDBRANCH  13  16
ENDBRANCH  11  14
ENDBRANCH   8  12
ENDBRANCH   6   9
ENDBRANCH   3   7
ENDBRANCH   1   4
BRANCH   2  19
ATOM     19  C   UNL     1       4.693  -2.508  24.832  0.00  0.00    +0.003 C 
ATOM     20  C   UNL     1       5.288  -1.819  25.831  0.00  0.00    -0.050 C 
ATOM     21  C   UNL     1       4.891  -1.924  27.286  0.00  0.00    +0.044 C 
BRANCH  20  22
ATOM     22  C   UNL     1       6.418  -0.932  25.514  0.00  0.00    +0.003 C 
ATOM     23  C   UNL     1       6.848  -0.618  24.278  0.00  0.00    +0.004 C 
BRANCH  23  24
ATOM     24  C   UNL     1       7.929   0.322  23.962  0.00  0.00    -0.043 C 
ATOM     25  C   UNL     1       7.500   1.783  23.716  0.00  0.00    -0.008 C 
ATOM     26  C   UNL     1       6.488   1.835  22.545  0.00  0.00    +0.016 C 
ATOM     27  C   UNL     1       6.792   2.352  24.976  0.00  0.00    +0.016 C 
ATOM     28  C   UNL     1       8.664   2.778  23.401  0.00  0.00    +0.042 C 
ATOM     29  C   UNL     1      10.042   2.209  23.095  0.00  0.00    +0.119 C 
ATOM     30  C   UNL     1      10.373   0.859  23.718  0.00  0.00    +0.062 C 
ATOM     31  C   UNL     1       9.221  -0.076  23.982  0.00  0.00    -0.067 C 
ATOM     32  C   UNL     1       9.690  -1.469  24.349  0.00  0.00    +0.039 C 
BRANCH  29  33
ATOM     33  O   UNL     1      10.229   2.157  21.677  0.00  0.00    -0.391 OA
ATOM     34  H   UNL     1      11.175   2.037  21.512  0.00  0.00    +0.210 HD
ENDBRANCH  29  33
ENDBRANCH  23  24
ENDBRANCH  20  22
ENDBRANCH   2  19
TORSDOF 11
ENDMDL
MODEL 6
REMARK VINA RESULT:      -6.4      1.055      1.930
REMARK  Name = 
REMARK  18 active torsions:
REMARK  status: ('A' for Active; 'I' for Inactive)
REMARK    1  A    between atoms: O_1  and  C_2
REMARK    2  A    between atoms: C_2  and  C_3
REMARK    3  A    between atoms: C_3  and  C_4
REMARK    4  A    between atoms: C_5  and  C_6
REMARK    5  A    between atoms: C_7  and  C_8
REMARK    6  A    between atoms: C_8  and  C_9
REMARK    7  A    between atoms: C_10  and  C_11
REMARK    8  A    between atoms: C_12  and  C_13
REMARK    9  A    between atoms: C_14  and  C_15
REMARK   10  A    between atoms: C_14  and  C_16
REMARK   11  A    between atoms: C_17  and  C_18
REMARK   12  A    between atoms: C_19  and  C_20
REMARK   13  A    between atoms: C_19  and  C_21
REMARK   14  A    between atoms: C_22  and  C_23
REMARK   15  A    between atoms: C_24  and  C_25
REMARK   16  A    between atoms: C_27  and  O_29
REMARK   17  A    between atoms: C_31  and  C_32
REMARK   18  A    between atoms: C_31  and  C_33
REMARK                            x       y       z     vdW  Elec       q    Type
REMARK                         _______ _______ _______ _____ _____    ______ ____
ROOT
ATOM      1  C   UNL     1       6.118   4.295  23.244  0.00  0.00    +0.003 C 
ATOM      2  C   UNL     1       6.268   3.233  22.439  0.00  0.00    +0.001 C 
ENDROOT
BRANCH   1   4
ATOM      3  C   UNL     1       6.460   6.646  22.607  0.00  0.00    +0.003 C 
ATOM      4  C   UNL     1       5.642   5.591  22.776  0.00  0.00    -0.050 C 
ATOM      5  C   UNL     1       4.160   5.724  22.550  0.00  0.00    +0.044 C 
BRANCH   3   7
ATOM      6  C   UNL     1       8.470   6.459  23.963  0.00  0.00    +0.000 C 
ATOM      7  C   UNL     1       7.895   6.623  22.765  0.00  0.00    +0.000 C 
BRANCH   6   9
ATOM      8  C   UNL     1      10.738   5.452  23.719  0.00  0.00    -0.050 C 
ATOM      9  C   UNL     1       9.902   6.427  24.130  0.00  0.00    +0.003 C 
ATOM     10  C   UNL     1      12.203   5.639  24.036  0.00  0.00    +0.044 C 
BRANCH   8  12
ATOM     11  C   UNL     1      10.674   3.010  23.156  0.00  0.00    +0.000 C 
ATOM     12  C   UNL     1      10.273   4.279  22.981  0.00  0.00    +0.003 C 
BRANCH  11  14
ATOM     13  C   UNL     1      10.148   0.616  22.807  0.00  0.00    -0.048 C 
ATOM     14  C   UNL     1      10.173   1.894  22.379  0.00  0.00    +0.001 C 
ATOM     15  C   UNL     1      10.648   0.190  24.163  0.00  0.00    +0.041 C 
BRANCH  13  16
ATOM     16  C   UNL     1       9.585  -0.481  21.946  0.00  0.00    +0.186 C 
BRANCH  16  17
ATOM     17  O   UNL     1      10.518  -1.548  21.892  0.00  0.00    -0.391 OA
ATOM     18  H   UNL     1      10.161  -2.199  21.267  0.00  0.00    +0.210 HD
ENDBRANCH  16  17
ENDBRANCH  13  16
ENDBRANCH  11  14
ENDBRANCH   8  12
ENDBRANCH   6   9
ENDBRANCH   3   7
ENDBRANCH   1   4
BRANCH   2  19
ATOM     19  C   UNL     1       6.726   1.934  22.892  0.00  0.00    +0.003 C 
ATOM     20  C   UNL     1       6.294   1.263  23.984  0.00  0.00    -0.050 C 
ATOM     21  C   UNL     1       5.209   1.764  24.910  0.00  0.00    +0.044 C 
BRANCH  20  22
ATOM     22  C   UNL     1       6.874  -0.053  24.292  0.00  0.00    +0.003 C 
ATOM     23  C   UNL     1       6.181  -1.157  24.629  0.00  0.00    +0.004 C 
BRANCH  23  24
ATOM     24  C   UNL     1       6.755  -2.486  24.866  0.00  0.00    -0.043 C 
ATOM     25  C   UNL     1       6.245  -3.614  23.947  0.00  0.00    -0.008 C 
ATOM     26  C   UNL     1       4.708  -3.743  24.090  0.00  0.00    +0.016 C 
ATOM     27  C   UNL     1       6.551  -3.273  22.462  0.00  0.00    +0.016 C 
ATOM     28  C   UNL     1       6.880  -5.020  24.195  0.00  0.00    +0.042 C 
ATOM     29  C   UNL     1       7.709  -5.229  25.455  0.00  0.00    +0.119 C 
ATOM     30  C   UNL     1       8.398  -3.996  26.027  0.00  0.00    +0.062 C 
ATOM     31  C   UNL     1       7.735  -2.664  25.780  0.00  0.00    -0.067 C 
ATOM     32  C   UNL     1       8.356  -1.558  26.608  0.00  0.00    +0.039 C 
BRANCH  29  33
ATOM     33  O   UNL     1       6.900  -5.851  26.457  0.00  0.00    -0.391 OA
ATOM     34  H   UNL     1       7.444  -6.521  26.897  0.00  0.00    +0.210 HD
ENDBRANCH  29  33
ENDBRANCH  23  24
ENDBRANCH  20  22
ENDBRANCH   2  19
TORSDOF 11
ENDMDL
MODEL 7
REMARK VINA RESULT:      -6.4      1.962      2.679
REMARK  Name = 
REMARK  18 active torsions:
REMARK  status: ('A' for Active; 'I' for Inactive)
REMARK    1  A    between atoms: O_1  and  C_2
REMARK    2  A    between atoms: C_2  and  C_3
REMARK    3  A    between atoms: C_3  and  C_4
REMARK    4  A    between atoms: C_5  and  C_6
REMARK    5  A    between atoms: C_7  and  C_8
REMARK    6  A    between atoms: C_8  and  C_9
REMARK    7  A    between atoms: C_10  and  C_11
REMARK    8  A    between atoms: C_12  and  C_13
REMARK    9  A    between atoms: C_14  and  C_15
REMARK   10  A    between atoms: C_14  and  C_16
REMARK   11  A    between atoms: C_17  and  C_18
REMARK   12  A    between atoms: C_19  and  C_20
REMARK   13  A    between atoms: C_19  and  C_21
REMARK   14  A    between atoms: C_22  and  C_23
REMARK   15  A    between atoms: C_24  and  C_25
REMARK   16  A    between atoms: C_27  and  O_29
REMARK   17  A    between atoms: C_31  and  C_32
REMARK   18  A    between atoms: C_31  and  C_33
REMARK                            x       y       z     vdW  Elec       q    Type
REMARK                         _______ _______ _______ _____ _____    ______ ____
ROOT
ATOM      1  C   UNL     1       7.735   4.437  25.975  0.00  0.00    +0.003 C 
ATOM      2  C   UNL     1       6.983   3.501  26.572  0.00  0.00    +0.001 C 
ENDROOT
BRANCH   1   4
ATOM      3  C   UNL     1       8.394   6.804  25.884  0.00  0.00    +0.003 C 
ATOM      4  C   UNL     1       7.447   5.864  26.053  0.00  0.00    -0.050 C 
ATOM      5  C   UNL     1       6.035   6.249  26.405  0.00  0.00    +0.044 C 
BRANCH   3   7
ATOM      6  C   UNL     1      10.129   6.342  24.244  0.00  0.00    +0.000 C 
ATOM      7  C   UNL     1       9.766   6.550  25.516  0.00  0.00    +0.000 C 
BRANCH   6   9
ATOM      8  C   UNL     1      11.993   4.960  23.333  0.00  0.00    -0.050 C 
ATOM      9  C   UNL     1      11.498   6.095  23.866  0.00  0.00    +0.003 C 
ATOM     10  C   UNL     1      13.476   4.938  23.045  0.00  0.00    +0.044 C 
BRANCH   8  12
ATOM     11  C   UNL     1      10.403   3.101  23.880  0.00  0.00    +0.000 C 
ATOM     12  C   UNL     1      11.150   3.808  23.018  0.00  0.00    +0.003 C 
BRANCH  11  14
ATOM     13  C   UNL     1       8.384   2.046  22.908  0.00  0.00    -0.048 C 
ATOM     14  C   UNL     1       9.594   1.961  23.497  0.00  0.00    +0.001 C 
ATOM     15  C   UNL     1       7.720   3.357  22.575  0.00  0.00    +0.041 C 
BRANCH  13  16
ATOM     16  C   UNL     1       7.622   0.811  22.517  0.00  0.00    +0.186 C 
BRANCH  16  17
ATOM     17  O   UNL     1       6.242   1.131  22.431  0.00  0.00    -0.391 OA
ATOM     18  H   UNL     1       5.758   0.292  22.494  0.00  0.00    +0.210 HD
ENDBRANCH  16  17
ENDBRANCH  13  16
ENDBRANCH  11  14
ENDBRANCH   8  12
ENDBRANCH   6   9
ENDBRANCH   3   7
ENDBRANCH   1   4
BRANCH   2  19
ATOM     19  C   UNL     1       7.265   2.080  26.516  0.00  0.00    +0.003 C 
ATOM     20  C   UNL     1       6.413   1.104  26.129  0.00  0.00    -0.050 C 
ATOM     21  C   UNL     1       5.002   1.354  25.647  0.00  0.00    +0.044 C 
BRANCH  20  22
ATOM     22  C   UNL     1       6.875  -0.293  26.134  0.00  0.00    +0.003 C 
ATOM     23  C   UNL     1       6.620  -1.207  25.180  0.00  0.00    +0.004 C 
BRANCH  23  24
ATOM     24  C   UNL     1       7.140  -2.579  25.151  0.00  0.00    -0.043 C 
ATOM     25  C   UNL     1       6.106  -3.697  25.397  0.00  0.00    -0.008 C 
ATOM     26  C   UNL     1       5.435  -3.487  26.777  0.00  0.00    +0.016 C 
ATOM     27  C   UNL     1       4.990  -3.639  24.317  0.00  0.00    +0.016 C 
ATOM     28  C   UNL     1       6.669  -5.154  25.343  0.00  0.00    +0.042 C 
ATOM     29  C   UNL     1       8.179  -5.348  25.334  0.00  0.00    +0.119 C 
ATOM     30  C   UNL     1       9.006  -4.214  24.741  0.00  0.00    +0.062 C 
ATOM     31  C   UNL     1       8.432  -2.823  24.837  0.00  0.00    -0.067 C 
ATOM     32  C   UNL     1       9.445  -1.762  24.460  0.00  0.00    +0.039 C 
BRANCH  29  33
ATOM     33  O   UNL     1       8.627  -5.643  26.660  0.00  0.00    -0.391 OA
ATOM     34  H   UNL     1       9.445  -5.147  26.810  0.00  0.00    +0.210 HD
ENDBRANCH  29  33
ENDBRANCH  23  24
ENDBRANCH  20  22
ENDBRANCH   2  19
TORSDOF 11
ENDMDL
MODEL 8
REMARK VINA RESULT:      -6.3      2.676      8.706
REMARK  Name = 
REMARK  18 active torsions:
REMARK  status: ('A' for Active; 'I' for Inactive)
REMARK    1  A    between atoms: O_1  and  C_2
REMARK    2  A    between atoms: C_2  and  C_3
REMARK    3  A    between atoms: C_3  and  C_4
REMARK    4  A    between atoms: C_5  and  C_6
REMARK    5  A    between atoms: C_7  and  C_8
REMARK    6  A    between atoms: C_8  and  C_9
REMARK    7  A    between atoms: C_10  and  C_11
REMARK    8  A    between atoms: C_12  and  C_13
REMARK    9  A    between atoms: C_14  and  C_15
REMARK   10  A    between atoms: C_14  and  C_16
REMARK   11  A    between atoms: C_17  and  C_18
REMARK   12  A    between atoms: C_19  and  C_20
REMARK   13  A    between atoms: C_19  and  C_21
REMARK   14  A    between atoms: C_22  and  C_23
REMARK   15  A    between atoms: C_24  and  C_25
REMARK   16  A    between atoms: C_27  and  O_29
REMARK   17  A    between atoms: C_31  and  C_32
REMARK   18  A    between atoms: C_31  and  C_33
REMARK                            x       y       z     vdW  Elec       q    Type
REMARK                         _______ _______ _______ _____ _____    ______ ____
ROOT
ATOM      1  C   UNL     1       6.337  -3.581  22.436  0.00  0.00    +0.003 C 
ATOM      2  C   UNL     1       7.414  -2.879  22.818  0.00  0.00    +0.001 C 
ENDROOT
BRANCH   1   4
ATOM      3  C   UNL     1       5.571  -5.664  23.495  0.00  0.00    +0.003 C 
ATOM      4  C   UNL     1       6.257  -5.034  22.525  0.00  0.00    -0.050 C 
ATOM      5  C   UNL     1       7.044  -5.816  21.507  0.00  0.00    +0.044 C 
BRANCH   3   7
ATOM      6  C   UNL     1       3.540  -4.543  24.224  0.00  0.00    +0.000 C 
ATOM      7  C   UNL     1       4.761  -5.017  24.499  0.00  0.00    +0.000 C 
BRANCH   6   9
ATOM      8  C   UNL     1       3.073  -2.864  26.007  0.00  0.00    -0.050 C 
ATOM      9  C   UNL     1       2.720  -3.902  25.222  0.00  0.00    +0.003 C 
ATOM     10  C   UNL     1       2.039  -2.384  26.999  0.00  0.00    +0.044 C 
BRANCH   8  12
ATOM     11  C   UNL     1       5.142  -1.777  26.914  0.00  0.00    +0.000 C 
ATOM     12  C   UNL     1       4.373  -2.205  25.900  0.00  0.00    +0.003 C 
BRANCH  11  14
ATOM     13  C   UNL     1       7.587  -1.770  26.520  0.00  0.00    -0.048 C 
ATOM     14  C   UNL     1       6.422  -1.124  26.732  0.00  0.00    +0.001 C 
ATOM     15  C   UNL     1       7.695  -3.271  26.449  0.00  0.00    +0.041 C 
BRANCH  13  16
ATOM     16  C   UNL     1       8.869  -1.013  26.314  0.00  0.00    +0.186 C 
BRANCH  16  17
ATOM     17  O   UNL     1       9.272  -0.446  27.551  0.00  0.00    -0.391 OA
ATOM     18  H   UNL     1       8.459  -0.215  28.029  0.00  0.00    +0.210 HD
ENDBRANCH  16  17
ENDBRANCH  13  16
ENDBRANCH  11  14
ENDBRANCH   8  12
ENDBRANCH   6   9
ENDBRANCH   3   7
ENDBRANCH   1   4
BRANCH   2  19
ATOM     19  C   UNL     1       7.502  -1.433  22.750  0.00  0.00    +0.003 C 
ATOM     20  C   UNL     1       8.632  -0.700  22.635  0.00  0.00    -0.050 C 
ATOM     21  C   UNL     1      10.018  -1.293  22.520  0.00  0.00    +0.044 C 
BRANCH  20  22
ATOM     22  C   UNL     1       8.531   0.767  22.580  0.00  0.00    +0.003 C 
ATOM     23  C   UNL     1       8.320   1.579  23.632  0.00  0.00    +0.004 C 
BRANCH  23  24
ATOM     24  C   UNL     1       8.290   3.045  23.586  0.00  0.00    -0.043 C 
ATOM     25  C   UNL     1       6.895   3.695  23.686  0.00  0.00    -0.008 C 
ATOM     26  C   UNL     1       6.000   3.179  22.533  0.00  0.00    +0.016 C 
ATOM     27  C   UNL     1       6.214   3.294  25.025  0.00  0.00    +0.016 C 
ATOM     28  C   UNL     1       6.879   5.257  23.657  0.00  0.00    +0.042 C 
ATOM     29  C   UNL     1       8.156   5.988  23.265  0.00  0.00    +0.119 C 
ATOM     30  C   UNL     1       9.467   5.267  23.553  0.00  0.00    +0.062 C 
ATOM     31  C   UNL     1       9.437   3.760  23.548  0.00  0.00    -0.067 C 
ATOM     32  C   UNL     1      10.829   3.163  23.583  0.00  0.00    +0.039 C 
BRANCH  29  33
ATOM     33  O   UNL     1       8.087   6.353  21.883  0.00  0.00    -0.391 OA
ATOM     34  H   UNL     1       8.361   7.278  21.812  0.00  0.00    +0.210 HD
ENDBRANCH  29  33
ENDBRANCH  23  24
ENDBRANCH  20  22
ENDBRANCH   2  19
TORSDOF 11
ENDMDL
MODEL 9
REMARK VINA RESULT:      -6.3      1.959      4.174
REMARK  Name = 
REMARK  18 active torsions:
REMARK  status: ('A' for Active; 'I' for Inactive)
REMARK    1  A    between atoms: O_1  and  C_2
REMARK    2  A    between atoms: C_2  and  C_3
REMARK    3  A    between atoms: C_3  and  C_4
REMARK    4  A    between atoms: C_5  and  C_6
REMARK    5  A    between atoms: C_7  and  C_8
REMARK    6  A    between atoms: C_8  and  C_9
REMARK    7  A    between atoms: C_10  and  C_11
REMARK    8  A    between atoms: C_12  and  C_13
REMARK    9  A    between atoms: C_14  and  C_15
REMARK   10  A    between atoms: C_14  and  C_16
REMARK   11  A    between atoms: C_17  and  C_18
REMARK   12  A    between atoms: C_19  and  C_20
REMARK   13  A    between atoms: C_19  and  C_21
REMARK   14  A    between atoms: C_22  and  C_23
REMARK   15  A    between atoms: C_24  and  C_25
REMARK   16  A    between atoms: C_27  and  O_29
REMARK   17  A    between atoms: C_31  and  C_32
REMARK   18  A    between atoms: C_31  and  C_33
REMARK                            x       y       z     vdW  Elec       q    Type
REMARK                         _______ _______ _______ _____ _____    ______ ____
ROOT
ATOM      1  C   UNL     1       9.295   4.321  24.241  0.00  0.00    +0.003 C 
ATOM      2  C   UNL     1       9.904   3.271  23.672  0.00  0.00    +0.001 C 
ENDROOT
BRANCH   1   4
ATOM      3  C   UNL     1       8.696   6.350  22.988  0.00  0.00    +0.003 C 
ATOM      4  C   UNL     1       9.523   5.699  23.826  0.00  0.00    -0.050 C 
ATOM      5  C   UNL     1      10.782   6.356  24.326  0.00  0.00    +0.044 C 
BRANCH   3   7
ATOM      6  C   UNL     1       6.288   6.030  23.103  0.00  0.00    +0.000 C 
ATOM      7  C   UNL     1       7.452   5.830  22.473  0.00  0.00    +0.000 C 
BRANCH   6   9
ATOM      8  C   UNL     1       4.367   4.442  23.040  0.00  0.00    -0.050 C 
ATOM      9  C   UNL     1       5.040   5.521  22.592  0.00  0.00    +0.003 C 
ATOM     10  C   UNL     1       3.087   4.095  22.318  0.00  0.00    +0.044 C 
BRANCH   8  12
ATOM     11  C   UNL     1       5.803   2.731  24.178  0.00  0.00    +0.000 C 
ATOM     12  C   UNL     1       4.825   3.650  24.180  0.00  0.00    +0.003 C 
BRANCH  11  14
ATOM     13  C   UNL     1       6.669   2.524  26.489  0.00  0.00    -0.048 C 
ATOM     14  C   UNL     1       6.200   1.976  25.349  0.00  0.00    +0.001 C 
ATOM     15  C   UNL     1       6.841   4.008  26.680  0.00  0.00    +0.041 C 
BRANCH  13  16
ATOM     16  C   UNL     1       7.033   1.668  27.670  0.00  0.00    +0.186 C 
BRANCH  16  17
ATOM     17  O   UNL     1       7.567   2.496  28.690  0.00  0.00    -0.391 OA
ATOM     18  H   UNL     1       6.820   2.770  29.246  0.00  0.00    +0.210 HD
ENDBRANCH  16  17
ENDBRANCH  13  16
ENDBRANCH  11  14
ENDBRANCH   8  12
ENDBRANCH   6   9
ENDBRANCH   3   7
ENDBRANCH   1   4
BRANCH   2  19
ATOM     19  C   UNL     1       9.675   1.893  24.064  0.00  0.00    +0.003 C 
ATOM     20  C   UNL     1       9.081   0.933  23.320  0.00  0.00    -0.050 C 
ATOM     21  C   UNL     1       8.580   1.143  21.910  0.00  0.00    +0.044 C 
BRANCH  20  22
ATOM     22  C   UNL     1       8.934  -0.419  23.883  0.00  0.00    +0.003 C 
ATOM     23  C   UNL     1       7.768  -1.052  24.111  0.00  0.00    +0.004 C 
BRANCH  23  24
ATOM     24  C   UNL     1       7.625  -2.426  24.605  0.00  0.00    -0.043 C 
ATOM     25  C   UNL     1       7.468  -2.580  26.131  0.00  0.00    -0.008 C 
ATOM     26  C   UNL     1       8.695  -1.959  26.843  0.00  0.00    +0.016 C 
ATOM     27  C   UNL     1       6.205  -1.816  26.619  0.00  0.00    +0.016 C 
ATOM     28  C   UNL     1       7.295  -4.047  26.642  0.00  0.00    +0.042 C 
ATOM     29  C   UNL     1       7.566  -5.189  25.673  0.00  0.00    +0.119 C 
ATOM     30  C   UNL     1       7.349  -4.891  24.194  0.00  0.00    +0.062 C 
ATOM     31  C   UNL     1       7.549  -3.466  23.745  0.00  0.00    -0.067 C 
ATOM     32  C   UNL     1       7.565  -3.343  22.235  0.00  0.00    +0.039 C 
BRANCH  29  33
ATOM     33  O   UNL     1       8.890  -5.687  25.886  0.00  0.00    -0.391 OA
ATOM     34  H   UNL     1       8.968  -6.525  25.407  0.00  0.00    +0.210 HD
ENDBRANCH  29  33
ENDBRANCH  23  24
ENDBRANCH  20  22
ENDBRANCH   2  19
TORSDOF 11
ENDMDL
