MODEL 1
REMARK VINA RESULT:      -5.5      0.000      0.000
REMARK  Name = 
REMARK  12 active torsions:
REMARK  status: ('A' for Active; 'I' for Inactive)
REMARK    1  A    between atoms: C_1  and  C_2
REMARK    2  A    between atoms: C_2  and  C_3
REMARK    3  A    between atoms: C_3  and  O_5
REMARK    4  A    between atoms: C_3  and  C_6
REMARK    5  A    between atoms: C_6  and  C_7
REMARK    6  A    between atoms: C_6  and  C_14
REMARK    7  A    between atoms: C_6  and  C_20
REMARK    8  A    between atoms: C_7  and  C_8
REMARK    9  A    between atoms: C_8  and  C_10
REMARK   10  A    between atoms: C_8  and  N_11
REMARK   11  A    between atoms: N_11  and  C_12
REMARK   12  A    between atoms: N_11  and  C_13
REMARK                            x       y       z     vdW  Elec       q    Type
REMARK                         _______ _______ _______ _____ _____    ______ ____
ROOT
ATOM      1  C   UNL     1       7.875  -2.598  23.877  0.00  0.00    +0.048 C 
ENDROOT
BRANCH   1   2
ATOM      2  C   UNL     1       7.055  -1.824  24.997  0.00  0.00    -0.034 A 
ATOM      3  C   UNL     1       7.718  -1.326  26.139  0.00  0.00    +0.004 A 
ATOM      4  C   UNL     1       7.031  -0.655  27.156  0.00  0.00    +0.000 A 
ATOM      5  C   UNL     1       5.657  -0.459  27.064  0.00  0.00    +0.000 A 
ATOM      6  C   UNL     1       4.971  -0.943  25.953  0.00  0.00    +0.000 A 
ATOM      7  C   UNL     1       5.662  -1.615  24.938  0.00  0.00    +0.004 A 
ENDBRANCH   1   2
BRANCH   1   8
ATOM      8  C   UNL     1       7.062  -3.852  23.402  0.00  0.00    -0.034 A 
ATOM      9  C   UNL     1       6.184  -4.549  24.263  0.00  0.00    +0.004 A 
ATOM     10  C   UNL     1       5.448  -5.658  23.836  0.00  0.00    +0.000 A 
ATOM     11  C   UNL     1       5.539  -6.079  22.518  0.00  0.00    +0.000 A 
ATOM     12  C   UNL     1       6.385  -5.408  21.639  0.00  0.00    +0.000 A 
ATOM     13  C   UNL     1       7.153  -4.323  22.079  0.00  0.00    +0.004 A 
ENDBRANCH   1   8
BRANCH   1  14
ATOM     14  C   UNL     1       9.274  -3.048  24.520  0.00  0.00    +0.129 C 
BRANCH  14  16
ATOM     15  C   UNL     1       9.092  -4.623  26.508  0.00  0.00    +0.006 C 
ATOM     16  C   UNL     1       9.379  -4.505  25.008  0.00  0.00    +0.029 C 
ENDBRANCH  14  16
BRANCH  14  17
ATOM     17  O   UNL     1      10.352  -2.813  23.591  0.00  0.00    -0.391 OA
ATOM     18  H   UNL     1      10.916  -3.599  23.537  0.00  0.00    +0.210 HD
ENDBRANCH  14  17
ENDBRANCH   1  14
BRANCH   1  19
ATOM     19  C   UNL     1       8.131  -1.613  22.640  0.00  0.00    +0.037 C 
BRANCH  19  20
ATOM     20  C   UNL     1       8.633  -0.132  22.786  0.00  0.00    +0.054 C 
ATOM     21  C   UNL     1       9.746   0.166  21.769  0.00  0.00    +0.024 C 
BRANCH  20  22
ATOM     22  N   UNL     1       7.512   0.854  22.562  0.00  0.00    -0.306 NA
ATOM     23  C   UNL     1       7.832   1.871  21.545  0.00  0.00    +0.104 C 
ATOM     24  C   UNL     1       7.090   1.558  23.779  0.00  0.00    +0.104 C 
ENDBRANCH  20  22
ENDBRANCH  19  20
ENDBRANCH   1  19
TORSDOF 8
ENDMDL
MODEL 2
REMARK VINA RESULT:      -5.4      3.794      6.927
REMARK  Name = 
REMARK  12 active torsions:
REMARK  status: ('A' for Active; 'I' for Inactive)
REMARK    1  A    between atoms: C_1  and  C_2
REMARK    2  A    between atoms: C_2  and  C_3
REMARK    3  A    between atoms: C_3  and  O_5
REMARK    4  A    between atoms: C_3  and  C_6
REMARK    5  A    between atoms: C_6  and  C_7
REMARK    6  A    between atoms: C_6  and  C_14
REMARK    7  A    between atoms: C_6  and  C_20
REMARK    8  A    between atoms: C_7  and  C_8
REMARK    9  A    between atoms: C_8  and  C_10
REMARK   10  A    between atoms: C_8  and  N_11
REMARK   11  A    between atoms: N_11  and  C_12
REMARK   12  A    between atoms: N_11  and  C_13
REMARK                            x       y       z     vdW  Elec       q    Type
REMARK                         _______ _______ _______ _____ _____    ______ ____
ROOT
ATOM      1  C   UNL     1       8.616   3.033  23.751  0.00  0.00    +0.048 C 
ENDROOT
BRANCH   1   2
ATOM      2  C   UNL     1       9.791   4.102  23.823  0.00  0.00    -0.034 A 
ATOM      3  C   UNL     1      11.057   3.795  23.280  0.00  0.00    +0.004 A 
ATOM      4  C   UNL     1      12.122   4.699  23.338  0.00  0.00    +0.000 A 
ATOM      5  C   UNL     1      11.956   5.942  23.940  0.00  0.00    +0.000 A 
ATOM      6  C   UNL     1      10.720   6.274  24.491  0.00  0.00    +0.000 A 
ATOM      7  C   UNL     1       9.658   5.366  24.432  0.00  0.00    +0.004 A 
ENDBRANCH   1   2
BRANCH   1   8
ATOM      8  C   UNL     1       9.170   1.682  23.180  0.00  0.00    -0.034 A 
ATOM      9  C   UNL     1       9.930   0.788  23.966  0.00  0.00    +0.004 A 
ATOM     10  C   UNL     1      10.411  -0.424  23.462  0.00  0.00    +0.000 A 
ATOM     11  C   UNL     1      10.110  -0.796  22.161  0.00  0.00    +0.000 A 
ATOM     12  C   UNL     1       9.352   0.055  21.361  0.00  0.00    +0.000 A 
ATOM     13  C   UNL     1       8.907   1.287  21.854  0.00  0.00    +0.004 A 
ENDBRANCH   1   8
BRANCH   1  14
ATOM     14  C   UNL     1       7.477   3.624  22.789  0.00  0.00    +0.129 C 
BRANCH  14  16
ATOM     15  C   UNL     1       4.934   3.633  22.775  0.00  0.00    +0.006 C 
ATOM     16  C   UNL     1       6.198   4.151  23.468  0.00  0.00    +0.029 C 
ENDBRANCH  14  16
BRANCH  14  17
ATOM     17  O   UNL     1       8.012   4.682  21.969  0.00  0.00    -0.391 OA
ATOM     18  H   UNL     1       8.321   4.319  21.125  0.00  0.00    +0.210 HD
ENDBRANCH  14  17
ENDBRANCH   1  14
BRANCH   1  19
ATOM     19  C   UNL     1       8.027   2.802  25.223  0.00  0.00    +0.037 C 
BRANCH  19  20
ATOM     20  C   UNL     1       7.449   1.433  25.731  0.00  0.00    +0.054 C 
ATOM     21  C   UNL     1       7.090   1.518  27.223  0.00  0.00    +0.024 C 
BRANCH  20  22
ATOM     22  N   UNL     1       6.207   1.042  24.968  0.00  0.00    -0.306 NA
ATOM     23  C   UNL     1       4.986   1.087  25.791  0.00  0.00    +0.104 C 
ATOM     24  C   UNL     1       6.282  -0.289  24.354  0.00  0.00    +0.104 C 
ENDBRANCH  20  22
ENDBRANCH  19  20
ENDBRANCH   1  19
TORSDOF 8
ENDMDL
MODEL 3
REMARK VINA RESULT:      -5.4      4.513      7.811
REMARK  Name = 
REMARK  12 active torsions:
REMARK  status: ('A' for Active; 'I' for Inactive)
REMARK    1  A    between atoms: C_1  and  C_2
REMARK    2  A    between atoms: C_2  and  C_3
REMARK    3  A    between atoms: C_3  and  O_5
REMARK    4  A    between atoms: C_3  and  C_6
REMARK    5  A    between atoms: C_6  and  C_7
REMARK    6  A    between atoms: C_6  and  C_14
REMARK    7  A    between atoms: C_6  and  C_20
REMARK    8  A    between atoms: C_7  and  C_8
REMARK    9  A    between atoms: C_8  and  C_10
REMARK   10  A    between atoms: C_8  and  N_11
REMARK   11  A    between atoms: N_11  and  C_12
REMARK   12  A    between atoms: N_11  and  C_13
REMARK                            x       y       z     vdW  Elec       q    Type
REMARK                         _______ _______ _______ _____ _____    ______ ____
ROOT
ATOM      1  C   UNL     1       8.814   3.209  23.704  0.00  0.00    +0.048 C 
ENDROOT
BRANCH   1   2
ATOM      2  C   UNL     1       9.290   1.775  23.212  0.00  0.00    -0.034 A 
ATOM      3  C   UNL     1       9.062   1.375  21.877  0.00  0.00    +0.004 A 
ATOM      4  C   UNL     1       9.450   0.115  21.409  0.00  0.00    +0.000 A 
ATOM      5  C   UNL     1      10.079  -0.786  22.260  0.00  0.00    +0.000 A 
ATOM      6  C   UNL     1      10.314  -0.426  23.585  0.00  0.00    +0.000 A 
ATOM      7  C   UNL     1       9.924   0.834  24.050  0.00  0.00    +0.004 A 
ENDBRANCH   1   2
BRANCH   1   8
ATOM      8  C   UNL     1      10.041   4.184  23.750  0.00  0.00    -0.034 A 
ATOM      9  C   UNL     1       9.955   5.477  24.314  0.00  0.00    +0.004 A 
ATOM     10  C   UNL     1      11.052   6.340  24.370  0.00  0.00    +0.000 A 
ATOM     11  C   UNL     1      12.284   5.918  23.894  0.00  0.00    +0.000 A 
ATOM     12  C   UNL     1      12.410   4.646  23.343  0.00  0.00    +0.000 A 
ATOM     13  C   UNL     1      11.299   3.798  23.250  0.00  0.00    +0.004 A 
ENDBRANCH   1   8
BRANCH   1  14
ATOM     14  C   UNL     1       8.178   3.037  25.167  0.00  0.00    +0.129 C 
BRANCH  14  16
ATOM     15  C   UNL     1       6.905   4.078  27.106  0.00  0.00    +0.006 C 
ATOM     16  C   UNL     1       7.878   4.329  25.950  0.00  0.00    +0.029 C 
ENDBRANCH  14  16
BRANCH  14  17
ATOM     17  O   UNL     1       6.962   2.267  25.098  0.00  0.00    -0.391 OA
ATOM     18  H   UNL     1       7.167   1.323  25.175  0.00  0.00    +0.210 HD
ENDBRANCH  14  17
ENDBRANCH   1  14
BRANCH   1  19
ATOM     19  C   UNL     1       7.710   3.771  22.688  0.00  0.00    +0.037 C 
BRANCH  19  20
ATOM     20  C   UNL     1       6.890   5.090  22.925  0.00  0.00    +0.054 C 
ATOM     21  C   UNL     1       7.251   6.149  21.872  0.00  0.00    +0.024 C 
BRANCH  20  22
ATOM     22  N   UNL     1       5.404   4.836  22.849  0.00  0.00    -0.306 NA
ATOM     23  C   UNL     1       4.701   5.135  24.109  0.00  0.00    +0.104 C 
ATOM     24  C   UNL     1       5.056   3.465  22.458  0.00  0.00    +0.104 C 
ENDBRANCH  20  22
ENDBRANCH  19  20
ENDBRANCH   1  19
TORSDOF 8
ENDMDL
MODEL 4
REMARK VINA RESULT:      -5.4      4.827      6.757
REMARK  Name = 
REMARK  12 active torsions:
REMARK  status: ('A' for Active; 'I' for Inactive)
REMARK    1  A    between atoms: C_1  and  C_2
REMARK    2  A    between atoms: C_2  and  C_3
REMARK    3  A    between atoms: C_3  and  O_5
REMARK    4  A    between atoms: C_3  and  C_6
REMARK    5  A    between atoms: C_6  and  C_7
REMARK    6  A    between atoms: C_6  and  C_14
REMARK    7  A    between atoms: C_6  and  C_20
REMARK    8  A    between atoms: C_7  and  C_8
REMARK    9  A    between atoms: C_8  and  C_10
REMARK   10  A    between atoms: C_8  and  N_11
REMARK   11  A    between atoms: N_11  and  C_12
REMARK   12  A    between atoms: N_11  and  C_13
REMARK                            x       y       z     vdW  Elec       q    Type
REMARK                         _______ _______ _______ _____ _____    ______ ____
ROOT
ATOM      1  C   UNL     1       9.033   3.899  23.675  0.00  0.00    +0.048 C 
ENDROOT
BRANCH   1   2
ATOM      2  C   UNL     1       8.283   3.898  25.076  0.00  0.00    -0.034 A 
ATOM      3  C   UNL     1       7.641   2.726  25.531  0.00  0.00    +0.004 A 
ATOM      4  C   UNL     1       6.955   2.688  26.749  0.00  0.00    +0.000 A 
ATOM      5  C   UNL     1       6.889   3.821  27.553  0.00  0.00    +0.000 A 
ATOM      6  C   UNL     1       7.506   4.995  27.131  0.00  0.00    +0.000 A 
ATOM      7  C   UNL     1       8.190   5.030  25.911  0.00  0.00    +0.004 A 
ENDBRANCH   1   2
BRANCH   1   8
ATOM      8  C   UNL     1       9.487   2.441  23.320  0.00  0.00    -0.034 A 
ATOM      9  C   UNL     1      10.167   1.618  24.247  0.00  0.00    +0.004 A 
ATOM     10  C   UNL     1      10.559   0.313  23.937  0.00  0.00    +0.000 A 
ATOM     11  C   UNL     1      10.245  -0.223  22.698  0.00  0.00    +0.000 A 
ATOM     12  C   UNL     1       9.566   0.554  21.764  0.00  0.00    +0.000 A 
ATOM     13  C   UNL     1       9.211   1.876  22.061  0.00  0.00    +0.004 A 
ENDBRANCH   1   8
BRANCH   1  14
ATOM     14  C   UNL     1      10.306   4.867  23.803  0.00  0.00    +0.129 C 
BRANCH  14  16
ATOM     15  C   UNL     1      12.747   5.372  23.300  0.00  0.00    +0.006 C 
ATOM     16  C   UNL     1      11.665   4.290  23.364  0.00  0.00    +0.029 C 
ENDBRANCH  14  16
BRANCH  14  17
ATOM     17  O   UNL     1      10.084   6.088  23.068  0.00  0.00    -0.391 OA
ATOM     18  H   UNL     1      10.149   6.847  23.667  0.00  0.00    +0.210 HD
ENDBRANCH  14  17
ENDBRANCH   1  14
BRANCH   1  19
ATOM     19  C   UNL     1       8.037   4.449  22.547  0.00  0.00    +0.037 C 
BRANCH  19  20
ATOM     20  C   UNL     1       6.851   5.440  22.831  0.00  0.00    +0.054 C 
ATOM     21  C   UNL     1       6.833   6.574  21.794  0.00  0.00    +0.024 C 
BRANCH  20  22
ATOM     22  N   UNL     1       5.519   4.732  22.781  0.00  0.00    -0.306 NA
ATOM     23  C   UNL     1       4.774   4.812  24.050  0.00  0.00    +0.104 C 
ATOM     24  C   UNL     1       5.613   3.316  22.408  0.00  0.00    +0.104 C 
ENDBRANCH  20  22
ENDBRANCH  19  20
ENDBRANCH   1  19
TORSDOF 8
ENDMDL
MODEL 5
REMARK VINA RESULT:      -5.3      2.107      4.696
REMARK  Name = 
REMARK  12 active torsions:
REMARK  status: ('A' for Active; 'I' for Inactive)
REMARK    1  A    between atoms: C_1  and  C_2
REMARK    2  A    between atoms: C_2  and  C_3
REMARK    3  A    between atoms: C_3  and  O_5
REMARK    4  A    between atoms: C_3  and  C_6
REMARK    5  A    between atoms: C_6  and  C_7
REMARK    6  A    between atoms: C_6  and  C_14
REMARK    7  A    between atoms: C_6  and  C_20
REMARK    8  A    between atoms: C_7  and  C_8
REMARK    9  A    between atoms: C_8  and  C_10
REMARK   10  A    between atoms: C_8  and  N_11
REMARK   11  A    between atoms: N_11  and  C_12
REMARK   12  A    between atoms: N_11  and  C_13
REMARK                            x       y       z     vdW  Elec       q    Type
REMARK                         _______ _______ _______ _____ _____    ______ ____
ROOT
ATOM      1  C   UNL     1       6.997  -2.688  23.412  0.00  0.00    +0.048 C 
ENDROOT
BRANCH   1   2
ATOM      2  C   UNL     1       8.067  -1.569  23.055  0.00  0.00    -0.034 A 
ATOM      3  C   UNL     1       8.240  -0.460  23.911  0.00  0.00    +0.004 A 
ATOM      4  C   UNL     1       9.157   0.556  23.624  0.00  0.00    +0.000 A 
ATOM      5  C   UNL     1       9.934   0.496  22.472  0.00  0.00    +0.000 A 
ATOM      6  C   UNL     1       9.784  -0.582  21.603  0.00  0.00    +0.000 A 
ATOM      7  C   UNL     1       8.864  -1.595  21.892  0.00  0.00    +0.004 A 
ENDBRANCH   1   2
BRANCH   1   8
ATOM      8  C   UNL     1       7.593  -3.662  24.487  0.00  0.00    -0.034 A 
ATOM      9  C   UNL     1       6.779  -4.523  25.256  0.00  0.00    +0.004 A 
ATOM     10  C   UNL     1       7.311  -5.402  26.204  0.00  0.00    +0.000 A 
ATOM     11  C   UNL     1       8.684  -5.471  26.383  0.00  0.00    +0.000 A 
ATOM     12  C   UNL     1       9.518  -4.646  25.634  0.00  0.00    +0.000 A 
ATOM     13  C   UNL     1       8.980  -3.737  24.715  0.00  0.00    +0.004 A 
ENDBRANCH   1   8
BRANCH   1  14
ATOM     14  C   UNL     1       6.655  -3.485  22.062  0.00  0.00    +0.129 C 
BRANCH  14  16
ATOM     15  C   UNL     1       6.074  -5.955  21.898  0.00  0.00    +0.006 C 
ATOM     16  C   UNL     1       7.202  -4.920  21.945  0.00  0.00    +0.029 C 
ENDBRANCH  14  16
BRANCH  14  17
ATOM     17  O   UNL     1       5.228  -3.536  21.858  0.00  0.00    -0.391 OA
ATOM     18  H   UNL     1       5.035  -3.600  20.910  0.00  0.00    +0.210 HD
ENDBRANCH  14  17
ENDBRANCH   1  14
BRANCH   1  19
ATOM     19  C   UNL     1       5.676  -1.987  23.985  0.00  0.00    +0.037 C 
BRANCH  19  20
ATOM     20  C   UNL     1       5.233  -2.047  25.491  0.00  0.00    +0.054 C 
ATOM     21  C   UNL     1       5.574  -0.731  26.209  0.00  0.00    +0.024 C 
BRANCH  20  22
ATOM     22  N   UNL     1       3.748  -2.283  25.620  0.00  0.00    -0.306 NA
ATOM     23  C   UNL     1       3.275  -2.243  27.014  0.00  0.00    +0.104 C 
ATOM     24  C   UNL     1       3.296  -3.550  25.032  0.00  0.00    +0.104 C 
ENDBRANCH  20  22
ENDBRANCH  19  20
ENDBRANCH   1  19
TORSDOF 8
ENDMDL
MODEL 6
REMARK VINA RESULT:      -5.3      2.026      3.973
REMARK  Name = 
REMARK  12 active torsions:
REMARK  status: ('A' for Active; 'I' for Inactive)
REMARK    1  A    between atoms: C_1  and  C_2
REMARK    2  A    between atoms: C_2  and  C_3
REMARK    3  A    between atoms: C_3  and  O_5
REMARK    4  A    between atoms: C_3  and  C_6
REMARK    5  A    between atoms: C_6  and  C_7
REMARK    6  A    between atoms: C_6  and  C_14
REMARK    7  A    between atoms: C_6  and  C_20
REMARK    8  A    between atoms: C_7  and  C_8
REMARK    9  A    between atoms: C_8  and  C_10
REMARK   10  A    between atoms: C_8  and  N_11
REMARK   11  A    between atoms: N_11  and  C_12
REMARK   12  A    between atoms: N_11  and  C_13
REMARK                            x       y       z     vdW  Elec       q    Type
REMARK                         _______ _______ _______ _____ _____    ______ ____
ROOT
ATOM      1  C   UNL     1       5.935  -4.075  23.625  0.00  0.00    +0.048 C 
ENDROOT
BRANCH   1   2
ATOM      2  C   UNL     1       7.082  -4.330  24.694  0.00  0.00    -0.034 A 
ATOM      3  C   UNL     1       8.432  -4.377  24.283  0.00  0.00    +0.004 A 
ATOM      4  C   UNL     1       9.470  -4.617  25.189  0.00  0.00    +0.000 A 
ATOM      5  C   UNL     1       9.193  -4.816  26.537  0.00  0.00    +0.000 A 
ATOM      6  C   UNL     1       7.872  -4.782  26.975  0.00  0.00    +0.000 A 
ATOM      7  C   UNL     1       6.836  -4.544  26.066  0.00  0.00    +0.004 A 
ENDBRANCH   1   2
BRANCH   1   8
ATOM      8  C   UNL     1       4.794  -5.134  23.815  0.00  0.00    -0.034 A 
ATOM      9  C   UNL     1       5.021  -6.380  24.444  0.00  0.00    +0.004 A 
ATOM     10  C   UNL     1       4.002  -7.318  24.627  0.00  0.00    +0.000 A 
ATOM     11  C   UNL     1       2.711  -7.019  24.220  0.00  0.00    +0.000 A 
ATOM     12  C   UNL     1       2.448  -5.797  23.608  0.00  0.00    +0.000 A 
ATOM     13  C   UNL     1       3.479  -4.875  23.387  0.00  0.00    +0.004 A 
ENDBRANCH   1   8
BRANCH   1  14
ATOM     14  C   UNL     1       6.589  -4.211  22.166  0.00  0.00    +0.129 C 
BRANCH  14  16
ATOM     15  C   UNL     1       6.073  -6.024  20.458  0.00  0.00    +0.006 C 
ATOM     16  C   UNL     1       6.913  -5.637  21.680  0.00  0.00    +0.029 C 
ENDBRANCH  14  16
BRANCH  14  17
ATOM     17  O   UNL     1       5.745  -3.587  21.178  0.00  0.00    -0.391 OA
ATOM     18  H   UNL     1       4.951  -4.125  21.037  0.00  0.00    +0.210 HD
ENDBRANCH  14  17
ENDBRANCH   1  14
BRANCH   1  19
ATOM     19  C   UNL     1       5.348  -2.599  23.828  0.00  0.00    +0.037 C 
BRANCH  19  20
ATOM     20  C   UNL     1       6.195  -1.381  24.345  0.00  0.00    +0.054 C 
ATOM     21  C   UNL     1       6.928  -0.697  23.180  0.00  0.00    +0.024 C 
BRANCH  20  22
ATOM     22  N   UNL     1       5.323  -0.352  25.023  0.00  0.00    -0.306 NA
ATOM     23  C   UNL     1       5.702   1.033  24.695  0.00  0.00    +0.104 C 
ATOM     24  C   UNL     1       5.292  -0.472  26.485  0.00  0.00    +0.104 C 
ENDBRANCH  20  22
ENDBRANCH  19  20
ENDBRANCH   1  19
TORSDOF 8
ENDMDL
MODEL 7
REMARK VINA RESULT:      -5.3      2.483      4.963
REMARK  Name = 
REMARK  12 active torsions:
REMARK  status: ('A' for Active; 'I' for Inactive)
REMARK    1  A    between atoms: C_1  and  C_2
REMARK    2  A    between atoms: C_2  and  C_3
REMARK    3  A    between atoms: C_3  and  O_5
REMARK    4  A    between atoms: C_3  and  C_6
REMARK    5  A    between atoms: C_6  and  C_7
REMARK    6  A    between atoms: C_6  and  C_14
REMARK    7  A    between atoms: C_6  and  C_20
REMARK    8  A    between atoms: C_7  and  C_8
REMARK    9  A    between atoms: C_8  and  C_10
REMARK   10  A    between atoms: C_8  and  N_11
REMARK   11  A    between atoms: N_11  and  C_12
REMARK   12  A    between atoms: N_11  and  C_13
REMARK                            x       y       z     vdW  Elec       q    Type
REMARK                         _______ _______ _______ _____ _____    ______ ____
ROOT
ATOM      1  C   UNL     1       6.936  -2.547  24.590  0.00  0.00    +0.048 C 
ENDROOT
BRANCH   1   2
ATOM      2  C   UNL     1       8.204  -1.769  24.032  0.00  0.00    -0.034 A 
ATOM      3  C   UNL     1       9.053  -1.075  24.920  0.00  0.00    +0.004 A 
ATOM      4  C   UNL     1      10.169  -0.363  24.468  0.00  0.00    +0.000 A 
ATOM      5  C   UNL     1      10.474  -0.323  23.112  0.00  0.00    +0.000 A 
ATOM      6  C   UNL     1       9.653  -0.993  22.207  0.00  0.00    +0.000 A 
ATOM      7  C   UNL     1       8.537  -1.702  22.663  0.00  0.00    +0.004 A 
ENDBRANCH   1   2
BRANCH   1   8
ATOM      8  C   UNL     1       6.629  -3.781  23.672  0.00  0.00    -0.034 A 
ATOM      9  C   UNL     1       7.649  -4.634  23.193  0.00  0.00    +0.004 A 
ATOM     10  C   UNL     1       7.376  -5.742  22.387  0.00  0.00    +0.000 A 
ATOM     11  C   UNL     1       6.063  -6.053  22.067  0.00  0.00    +0.000 A 
ATOM     12  C   UNL     1       5.031  -5.242  22.532  0.00  0.00    +0.000 A 
ATOM     13  C   UNL     1       5.311  -4.108  23.305  0.00  0.00    +0.004 A 
ENDBRANCH   1   8
BRANCH   1  14
ATOM     14  C   UNL     1       5.698  -1.526  24.589  0.00  0.00    +0.129 C 
BRANCH  14  16
ATOM     15  C   UNL     1       5.838   0.529  26.080  0.00  0.00    +0.006 C 
ATOM     16  C   UNL     1       5.311  -0.903  25.944  0.00  0.00    +0.029 C 
ENDBRANCH  14  16
BRANCH  14  17
ATOM     17  O   UNL     1       5.934  -0.452  23.657  0.00  0.00    -0.391 OA
ATOM     18  H   UNL     1       6.149   0.360  24.140  0.00  0.00    +0.210 HD
ENDBRANCH  14  17
ENDBRANCH   1  14
BRANCH   1  19
ATOM     19  C   UNL     1       7.239  -3.041  26.083  0.00  0.00    +0.037 C 
BRANCH  19  20
ATOM     20  C   UNL     1       7.062  -4.524  26.570  0.00  0.00    +0.054 C 
ATOM     21  C   UNL     1       8.426  -5.222  26.687  0.00  0.00    +0.024 C 
BRANCH  20  22
ATOM     22  N   UNL     1       6.385  -4.584  27.918  0.00  0.00    -0.306 NA
ATOM     23  C   UNL     1       6.276  -5.953  28.450  0.00  0.00    +0.104 C 
ATOM     24  C   UNL     1       5.042  -3.991  27.934  0.00  0.00    +0.104 C 
ENDBRANCH  20  22
ENDBRANCH  19  20
ENDBRANCH   1  19
TORSDOF 8
ENDMDL
MODEL 8
REMARK VINA RESULT:      -5.3      2.063      4.427
REMARK  Name = 
REMARK  12 active torsions:
REMARK  status: ('A' for Active; 'I' for Inactive)
REMARK    1  A    between atoms: C_1  and  C_2
REMARK    2  A    between atoms: C_2  and  C_3
REMARK    3  A    between atoms: C_3  and  O_5
REMARK    4  A    between atoms: C_3  and  C_6
REMARK    5  A    between atoms: C_6  and  C_7
REMARK    6  A    between atoms: C_6  and  C_14
REMARK    7  A    between atoms: C_6  and  C_20
REMARK    8  A    between atoms: C_7  and  C_8
REMARK    9  A    between atoms: C_8  and  C_10
REMARK   10  A    between atoms: C_8  and  N_11
REMARK   11  A    between atoms: N_11  and  C_12
REMARK   12  A    between atoms: N_11  and  C_13
REMARK                            x       y       z     vdW  Elec       q    Type
REMARK                         _______ _______ _______ _____ _____    ______ ____
ROOT
ATOM      1  C   UNL     1       7.029  -2.678  23.626  0.00  0.00    +0.048 C 
ENDROOT
BRANCH   1   2
ATOM      2  C   UNL     1       8.288  -1.732  23.407  0.00  0.00    -0.034 A 
ATOM      3  C   UNL     1       8.705  -1.404  22.099  0.00  0.00    +0.004 A 
ATOM      4  C   UNL     1       9.818  -0.590  21.863  0.00  0.00    +0.000 A 
ATOM      5  C   UNL     1      10.550  -0.076  22.927  0.00  0.00    +0.000 A 
ATOM      6  C   UNL     1      10.168  -0.384  24.231  0.00  0.00    +0.000 A 
ATOM      7  C   UNL     1       9.056  -1.200  24.463  0.00  0.00    +0.004 A 
ENDBRANCH   1   2
BRANCH   1   8
ATOM      8  C   UNL     1       7.348  -3.726  24.747  0.00  0.00    -0.034 A 
ATOM      9  C   UNL     1       8.672  -4.041  25.128  0.00  0.00    +0.004 A 
ATOM     10  C   UNL     1       8.957  -4.964  26.139  0.00  0.00    +0.000 A 
ATOM     11  C   UNL     1       7.919  -5.573  26.826  0.00  0.00    +0.000 A 
ATOM     12  C   UNL     1       6.602  -5.278  26.486  0.00  0.00    +0.000 A 
ATOM     13  C   UNL     1       6.318  -4.384  25.446  0.00  0.00    +0.004 A 
ENDBRANCH   1   8
BRANCH   1  14
ATOM     14  C   UNL     1       6.728  -3.419  22.235  0.00  0.00    +0.129 C 
BRANCH  14  16
ATOM     15  C   UNL     1       6.096  -5.779  21.531  0.00  0.00    +0.006 C 
ATOM     16  C   UNL     1       7.193  -4.882  22.112  0.00  0.00    +0.029 C 
ENDBRANCH  14  16
BRANCH  14  17
ATOM     17  O   UNL     1       5.318  -3.374  21.938  0.00  0.00    -0.391 OA
ATOM     18  H   UNL     1       5.106  -4.027  21.254  0.00  0.00    +0.210 HD
ENDBRANCH  14  17
ENDBRANCH   1  14
BRANCH   1  19
ATOM     19  C   UNL     1       5.771  -1.785  24.055  0.00  0.00    +0.037 C 
BRANCH  19  20
ATOM     20  C   UNL     1       5.828  -0.655  25.146  0.00  0.00    +0.054 C 
ATOM     21  C   UNL     1       5.992   0.724  24.489  0.00  0.00    +0.024 C 
BRANCH  20  22
ATOM     22  N   UNL     1       4.571  -0.634  25.983  0.00  0.00    -0.306 NA
ATOM     23  C   UNL     1       4.392   0.627  26.724  0.00  0.00    +0.104 C 
ATOM     24  C   UNL     1       4.483  -1.736  26.948  0.00  0.00    +0.104 C 
ENDBRANCH  20  22
ENDBRANCH  19  20
ENDBRANCH   1  19
TORSDOF 8
ENDMDL
MODEL 9
REMARK VINA RESULT:      -5.3      2.572      3.882
REMARK  Name = 
REMARK  12 active torsions:
REMARK  status: ('A' for Active; 'I' for Inactive)
REMARK    1  A    between atoms: C_1  and  C_2
REMARK    2  A    between atoms: C_2  and  C_3
REMARK    3  A    between atoms: C_3  and  O_5
REMARK    4  A    between atoms: C_3  and  C_6
REMARK    5  A    between atoms: C_6  and  C_7
REMARK    6  A    between atoms: C_6  and  C_14
REMARK    7  A    between atoms: C_6  and  C_20
REMARK    8  A    between atoms: C_7  and  C_8
REMARK    9  A    between atoms: C_8  and  C_10
REMARK   10  A    between atoms: C_8  and  N_11
REMARK   11  A    between atoms: N_11  and  C_12
REMARK   12  A    between atoms: N_11  and  C_13
REMARK                            x       y       z     vdW  Elec       q    Type
REMARK                         _______ _______ _______ _____ _____    ______ ____
ROOT
ATOM      1  C   UNL     1       6.635  -4.626  25.799  0.00  0.00    +0.048 C 
ENDROOT
BRANCH   1   2
ATOM      2  C   UNL     1       5.354  -5.037  26.646  0.00  0.00    -0.034 A 
ATOM      3  C   UNL     1       4.862  -6.359  26.584  0.00  0.00    +0.004 A 
ATOM      4  C   UNL     1       3.728  -6.757  27.299  0.00  0.00    +0.000 A 
ATOM      5  C   UNL     1       3.049  -5.847  28.101  0.00  0.00    +0.000 A 
ATOM      6  C   UNL     1       3.504  -4.533  28.180  0.00  0.00    +0.000 A 
ATOM      7  C   UNL     1       4.638  -4.138  27.463  0.00  0.00    +0.004 A 
ENDBRANCH   1   2
BRANCH   1   8
ATOM      8  C   UNL     1       6.419  -5.018  24.296  0.00  0.00    -0.034 A 
ATOM      9  C   UNL     1       7.476  -5.485  23.482  0.00  0.00    +0.004 A 
ATOM     10  C   UNL     1       7.281  -5.849  22.147  0.00  0.00    +0.000 A 
ATOM     11  C   UNL     1       6.010  -5.793  21.596  0.00  0.00    +0.000 A 
ATOM     12  C   UNL     1       4.943  -5.349  22.373  0.00  0.00    +0.000 A 
ATOM     13  C   UNL     1       5.147  -4.945  23.698  0.00  0.00    +0.004 A 
ENDBRANCH   1   8
BRANCH   1  14
ATOM     14  C   UNL     1       7.895  -5.410  26.408  0.00  0.00    +0.129 C 
BRANCH  14  16
ATOM     15  C   UNL     1      10.215  -5.045  25.432  0.00  0.00    +0.006 C 
ATOM     16  C   UNL     1       9.216  -4.625  26.515  0.00  0.00    +0.029 C 
ENDBRANCH  14  16
BRANCH  14  17
ATOM     17  O   UNL     1       7.580  -5.927  27.717  0.00  0.00    -0.391 OA
ATOM     18  H   UNL     1       8.369  -6.328  28.110  0.00  0.00    +0.210 HD
ENDBRANCH  14  17
ENDBRANCH   1  14
BRANCH   1  19
ATOM     19  C   UNL     1       6.859  -3.045  25.923  0.00  0.00    +0.037 C 
BRANCH  19  20
ATOM     20  C   UNL     1       7.217  -2.112  24.711  0.00  0.00    +0.054 C 
ATOM     21  C   UNL     1       5.980  -1.322  24.252  0.00  0.00    +0.024 C 
BRANCH  20  22
ATOM     22  N   UNL     1       8.299  -1.124  25.076  0.00  0.00    -0.306 NA
ATOM     23  C   UNL     1       9.572  -1.379  24.381  0.00  0.00    +0.104 C 
ATOM     24  C   UNL     1       8.581  -1.060  26.515  0.00  0.00    +0.104 C 
ENDBRANCH  20  22
ENDBRANCH  19  20
ENDBRANCH   1  19
TORSDOF 8
ENDMDL
