MODEL 1
REMARK VINA RESULT:      -5.9      0.000      0.000
REMARK  Name = 
REMARK  16 active torsions:
REMARK  status: ('A' for Active; 'I' for Inactive)
REMARK    1  A    between atoms: C_1  and  C_2
REMARK    2  A    between atoms: C_2  and  C_4
REMARK    3  A    between atoms: C_2  and  O_21
REMARK    4  A    between atoms: C_4  and  N_5
REMARK    5  A    between atoms: N_5  and  C_6
REMARK    6  A    between atoms: C_6  and  C_7
REMARK    7  A    between atoms: C_8  and  O_9
REMARK    8  A    between atoms: C_10  and  C_11
REMARK    9  A    between atoms: C_14  and  C_15
REMARK   10  A    between atoms: C_15  and  O_16
REMARK   11  A    between atoms: O_16  and  P_17
REMARK   12  A    between atoms: P_17  and  O_18
REMARK   13  A    between atoms: P_17  and  O_19
REMARK   14  A    between atoms: O_21  and  P_22
REMARK   15  A    between atoms: P_22  and  O_23
REMARK   16  A    between atoms: P_22  and  O_24
REMARK                            x       y       z     vdW  Elec       q    Type
REMARK                         _______ _______ _______ _____ _____    ______ ____
ROOT
ATOM      1  C   UNL     1       7.991  -3.139  23.450  0.00  0.00    +0.016 A 
ATOM      2  C   UNL     1       7.146  -2.112  22.971  0.00  0.00    +0.005 A 
ATOM      3  C   UNL     1       6.109  -2.460  22.108  0.00  0.00    +0.117 A 
ATOM      4  N   UNL     1       5.828  -3.719  21.719  0.00  0.00    -0.256 NA
ATOM      5  C   UNL     1       6.609  -4.710  22.210  0.00  0.00    +0.080 A 
ATOM      6  C   UNL     1       6.209  -6.097  21.803  0.00  0.00    +0.069 C 
ATOM      7  C   UNL     1       7.677  -4.461  23.075  0.00  0.00    +0.142 A 
ENDROOT
BRANCH   7   8
ATOM      8  O   UNL     1       8.389  -5.522  23.566  0.00  0.00    -0.505 OA
ATOM      9  H   UNL     1       9.293  -5.462  23.188  0.00  0.00    +0.292 HD
ENDBRANCH   7   8
BRANCH   1  10
ATOM     10  C   UNL     1       9.101  -2.801  24.424  0.00  0.00    +0.120 C 
BRANCH  10  11
ATOM     11  N   UNL     1       8.893  -3.282  25.807  0.00  0.00    -0.309 NA
ATOM     12  H   UNL     1       9.782  -3.095  26.296  0.00  0.00    +0.122 HD
BRANCH  11  13
ATOM     13  C   UNL     1       7.870  -2.460  26.491  0.00  0.00    +0.113 C 
BRANCH  13  15
ATOM     14  C   UNL     1       5.259  -2.363  26.648  0.00  0.00    +0.040 C 
ATOM     15  C   UNL     1       6.536  -3.131  26.933  0.00  0.00    +0.141 C 
BRANCH  15  16
ATOM     16  O   UNL     1       6.388  -4.448  26.375  0.00  0.00    -0.282 OA
BRANCH  16  17
ATOM     17  P   UNL     1       6.465  -5.635  27.632  0.00  0.00    +0.473 P 
ATOM     18  O   UNL     1       6.534  -6.698  28.756  0.00  0.00    -0.228 OA
BRANCH  17  19
ATOM     19  O   UNL     1       7.971  -5.907  27.057  0.00  0.00    -0.303 OA
ATOM     20  H   UNL     1       8.011  -5.698  26.107  0.00  0.00    +0.222 HD
ENDBRANCH  17  19
BRANCH  17  21
ATOM     21  O   UNL     1       5.717  -6.660  26.600  0.00  0.00    -0.303 OA
ATOM     22  H   UNL     1       5.105  -7.172  27.167  0.00  0.00    +0.222 HD
ENDBRANCH  17  21
ENDBRANCH  16  17
ENDBRANCH  15  16
ENDBRANCH  13  15
ENDBRANCH  11  13
ENDBRANCH  10  11
ENDBRANCH   1  10
BRANCH   2  23
ATOM     23  C   UNL     1       7.271  -0.665  23.379  0.00  0.00    +0.209 C 
BRANCH  23  24
ATOM     24  O   UNL     1       7.732   0.091  22.279  0.00  0.00    -0.282 OA
BRANCH  24  25
ATOM     25  P   UNL     1       9.301   0.349  22.172  0.00  0.00    +0.473 P 
ATOM     26  O   UNL     1      10.028   0.452  23.468  0.00  0.00    -0.228 OA
BRANCH  25  27
ATOM     27  O   UNL     1       9.824  -0.813  21.214  0.00  0.00    -0.303 OA
ATOM     28  H   UNL     1      10.451  -0.482  20.547  0.00  0.00    +0.222 HD
ENDBRANCH  25  27
BRANCH  25  29
ATOM     29  O   UNL     1       9.412   1.663  21.272  0.00  0.00    -0.303 OA
ATOM     30  H   UNL     1      10.335   1.860  21.051  0.00  0.00    +0.222 HD
ENDBRANCH  25  29
ENDBRANCH  24  25
ENDBRANCH  23  24
ENDBRANCH   2  23
TORSDOF 14
ENDMDL
MODEL 2
REMARK VINA RESULT:      -5.8      2.069      3.883
REMARK  Name = 
REMARK  16 active torsions:
REMARK  status: ('A' for Active; 'I' for Inactive)
REMARK    1  A    between atoms: C_1  and  C_2
REMARK    2  A    between atoms: C_2  and  C_4
REMARK    3  A    between atoms: C_2  and  O_21
REMARK    4  A    between atoms: C_4  and  N_5
REMARK    5  A    between atoms: N_5  and  C_6
REMARK    6  A    between atoms: C_6  and  C_7
REMARK    7  A    between atoms: C_8  and  O_9
REMARK    8  A    between atoms: C_10  and  C_11
REMARK    9  A    between atoms: C_14  and  C_15
REMARK   10  A    between atoms: C_15  and  O_16
REMARK   11  A    between atoms: O_16  and  P_17
REMARK   12  A    between atoms: P_17  and  O_18
REMARK   13  A    between atoms: P_17  and  O_19
REMARK   14  A    between atoms: O_21  and  P_22
REMARK   15  A    between atoms: P_22  and  O_23
REMARK   16  A    between atoms: P_22  and  O_24
REMARK                            x       y       z     vdW  Elec       q    Type
REMARK                         _______ _______ _______ _____ _____    ______ ____
ROOT
ATOM      1  C   UNL     1       7.694  -2.290  23.572  0.00  0.00    +0.016 A 
ATOM      2  C   UNL     1       8.934  -2.034  22.943  0.00  0.00    +0.005 A 
ATOM      3  C   UNL     1      10.082  -2.602  23.491  0.00  0.00    +0.117 A 
ATOM      4  N   UNL     1      10.095  -3.411  24.568  0.00  0.00    -0.256 NA
ATOM      5  C   UNL     1       8.904  -3.695  25.147  0.00  0.00    +0.080 A 
ATOM      6  C   UNL     1       8.967  -4.657  26.295  0.00  0.00    +0.069 C 
ATOM      7  C   UNL     1       7.700  -3.168  24.676  0.00  0.00    +0.142 A 
ENDROOT
BRANCH   7   8
ATOM      8  O   UNL     1       6.533  -3.540  25.287  0.00  0.00    -0.505 OA
ATOM      9  H   UNL     1       6.031  -4.084  24.642  0.00  0.00    +0.292 HD
ENDBRANCH   7   8
BRANCH   1  10
ATOM     10  C   UNL     1       6.422  -1.725  22.977  0.00  0.00    +0.120 C 
BRANCH  10  11
ATOM     11  N   UNL     1       5.456  -2.730  22.482  0.00  0.00    -0.309 NA
ATOM     12  H   UNL     1       4.714  -2.187  22.014  0.00  0.00    +0.122 HD
BRANCH  11  13
ATOM     13  C   UNL     1       6.076  -3.567  21.430  0.00  0.00    +0.113 C 
BRANCH  13  15
ATOM     14  C   UNL     1       7.140  -5.783  22.327  0.00  0.00    +0.040 C 
ATOM     15  C   UNL     1       6.011  -5.117  21.564  0.00  0.00    +0.141 C 
BRANCH  15  16
ATOM     16  O   UNL     1       4.772  -5.552  22.148  0.00  0.00    -0.282 OA
BRANCH  16  17
ATOM     17  P   UNL     1       5.028  -6.036  23.790  0.00  0.00    +0.473 P 
ATOM     18  O   UNL     1       5.257  -6.468  25.258  0.00  0.00    -0.228 OA
BRANCH  17  19
ATOM     19  O   UNL     1       3.788  -7.063  23.508  0.00  0.00    -0.303 OA
ATOM     20  H   UNL     1       3.621  -7.134  22.551  0.00  0.00    +0.222 HD
ENDBRANCH  17  19
BRANCH  17  21
ATOM     21  O   UNL     1       4.087  -4.771  24.225  0.00  0.00    -0.303 OA
ATOM     22  H   UNL     1       4.520  -3.995  23.817  0.00  0.00    +0.222 HD
ENDBRANCH  17  21
ENDBRANCH  16  17
ENDBRANCH  15  16
ENDBRANCH  13  15
ENDBRANCH  11  13
ENDBRANCH  10  11
ENDBRANCH   1  10
BRANCH   2  23
ATOM     23  C   UNL     1       9.081  -1.219  21.681  0.00  0.00    +0.209 C 
BRANCH  23  24
ATOM     24  O   UNL     1       9.944  -0.131  21.927  0.00  0.00    -0.282 OA
BRANCH  24  25
ATOM     25  P   UNL     1       9.284   1.313  22.068  0.00  0.00    +0.473 P 
ATOM     26  O   UNL     1       8.626   1.596  23.374  0.00  0.00    -0.228 OA
BRANCH  25  27
ATOM     27  O   UNL     1      10.460   2.320  21.690  0.00  0.00    -0.303 OA
ATOM     28  H   UNL     1      10.658   2.310  20.737  0.00  0.00    +0.222 HD
ENDBRANCH  25  27
BRANCH  25  29
ATOM     29  O   UNL     1       8.291   1.402  20.820  0.00  0.00    -0.303 OA
ATOM     30  H   UNL     1       7.637   2.108  20.944  0.00  0.00    +0.222 HD
ENDBRANCH  25  29
ENDBRANCH  24  25
ENDBRANCH  23  24
ENDBRANCH   2  23
TORSDOF 14
ENDMDL
MODEL 3
REMARK VINA RESULT:      -5.8      2.814      5.244
REMARK  Name = 
REMARK  16 active torsions:
REMARK  status: ('A' for Active; 'I' for Inactive)
REMARK    1  A    between atoms: C_1  and  C_2
REMARK    2  A    between atoms: C_2  and  C_4
REMARK    3  A    between atoms: C_2  and  O_21
REMARK    4  A    between atoms: C_4  and  N_5
REMARK    5  A    between atoms: N_5  and  C_6
REMARK    6  A    between atoms: C_6  and  C_7
REMARK    7  A    between atoms: C_8  and  O_9
REMARK    8  A    between atoms: C_10  and  C_11
REMARK    9  A    between atoms: C_14  and  C_15
REMARK   10  A    between atoms: C_15  and  O_16
REMARK   11  A    between atoms: O_16  and  P_17
REMARK   12  A    between atoms: P_17  and  O_18
REMARK   13  A    between atoms: P_17  and  O_19
REMARK   14  A    between atoms: O_21  and  P_22
REMARK   15  A    between atoms: P_22  and  O_23
REMARK   16  A    between atoms: P_22  and  O_24
REMARK                            x       y       z     vdW  Elec       q    Type
REMARK                         _______ _______ _______ _____ _____    ______ ____
ROOT
ATOM      1  C   UNL     1       8.106  -1.022  23.171  0.00  0.00    +0.016 A 
ATOM      2  C   UNL     1       9.308  -1.356  23.838  0.00  0.00    +0.005 A 
ATOM      3  C   UNL     1      10.069  -0.324  24.380  0.00  0.00    +0.117 A 
ATOM      4  N   UNL     1       9.727   0.979  24.346  0.00  0.00    -0.256 NA
ATOM      5  C   UNL     1       8.556   1.298  23.747  0.00  0.00    +0.080 A 
ATOM      6  C   UNL     1       8.188   2.751  23.800  0.00  0.00    +0.069 C 
ATOM      7  C   UNL     1       7.726   0.336  23.167  0.00  0.00    +0.142 A 
ENDROOT
BRANCH   7   8
ATOM      8  O   UNL     1       6.535   0.733  22.623  0.00  0.00    -0.505 OA
ATOM      9  H   UNL     1       5.982   1.075  23.358  0.00  0.00    +0.292 HD
ENDBRANCH   7   8
BRANCH   1  10
ATOM     10  C   UNL     1       7.232  -2.123  22.608  0.00  0.00    +0.120 C 
BRANCH  10  11
ATOM     11  N   UNL     1       5.836  -2.132  23.097  0.00  0.00    -0.309 NA
ATOM     12  H   UNL     1       5.406  -2.970  22.676  0.00  0.00    +0.122 HD
BRANCH  11  13
ATOM     13  C   UNL     1       5.803  -2.346  24.561  0.00  0.00    +0.113 C 
BRANCH  13  15
ATOM     14  C   UNL     1       3.717  -3.711  25.357  0.00  0.00    +0.040 C 
ATOM     15  C   UNL     1       5.214  -3.676  25.116  0.00  0.00    +0.141 C 
BRANCH  15  16
ATOM     16  O   UNL     1       5.549  -4.799  24.283  0.00  0.00    -0.282 OA
BRANCH  16  17
ATOM     17  P   UNL     1       4.142  -5.352  23.440  0.00  0.00    +0.473 P 
ATOM     18  O   UNL     1       2.883  -5.846  22.687  0.00  0.00    -0.228 OA
BRANCH  17  19
ATOM     19  O   UNL     1       4.941  -6.777  23.378  0.00  0.00    -0.303 OA
ATOM     20  H   UNL     1       5.511  -6.877  24.161  0.00  0.00    +0.222 HD
ENDBRANCH  17  19
BRANCH  17  21
ATOM     21  O   UNL     1       4.812  -4.738  22.081  0.00  0.00    -0.303 OA
ATOM     22  H   UNL     1       5.518  -5.375  21.849  0.00  0.00    +0.222 HD
ENDBRANCH  17  21
ENDBRANCH  16  17
ENDBRANCH  15  16
ENDBRANCH  13  15
ENDBRANCH  11  13
ENDBRANCH  10  11
ENDBRANCH   1  10
BRANCH   2  23
ATOM     23  C   UNL     1       9.789  -2.772  24.038  0.00  0.00    +0.209 C 
BRANCH  23  24
ATOM     24  O   UNL     1       9.160  -3.321  25.175  0.00  0.00    -0.282 OA
BRANCH  24  25
ATOM     25  P   UNL     1       9.016  -4.907  25.240  0.00  0.00    +0.473 P 
ATOM     26  O   UNL     1       8.220  -5.436  26.383  0.00  0.00    -0.228 OA
BRANCH  25  27
ATOM     27  O   UNL     1       8.454  -5.309  23.804  0.00  0.00    -0.303 OA
ATOM     28  H   UNL     1       8.800  -4.730  23.102  0.00  0.00    +0.222 HD
ENDBRANCH  25  27
BRANCH  25  29
ATOM     29  O   UNL     1      10.525  -5.429  25.218  0.00  0.00    -0.303 OA
ATOM     30  H   UNL     1      10.562  -6.386  25.066  0.00  0.00    +0.222 HD
ENDBRANCH  25  29
ENDBRANCH  24  25
ENDBRANCH  23  24
ENDBRANCH   2  23
TORSDOF 14
ENDMDL
MODEL 4
REMARK VINA RESULT:      -5.8      1.820      2.842
REMARK  Name = 
REMARK  16 active torsions:
REMARK  status: ('A' for Active; 'I' for Inactive)
REMARK    1  A    between atoms: C_1  and  C_2
REMARK    2  A    between atoms: C_2  and  C_4
REMARK    3  A    between atoms: C_2  and  O_21
REMARK    4  A    between atoms: C_4  and  N_5
REMARK    5  A    between atoms: N_5  and  C_6
REMARK    6  A    between atoms: C_6  and  C_7
REMARK    7  A    between atoms: C_8  and  O_9
REMARK    8  A    between atoms: C_10  and  C_11
REMARK    9  A    between atoms: C_14  and  C_15
REMARK   10  A    between atoms: C_15  and  O_16
REMARK   11  A    between atoms: O_16  and  P_17
REMARK   12  A    between atoms: P_17  and  O_18
REMARK   13  A    between atoms: P_17  and  O_19
REMARK   14  A    between atoms: O_21  and  P_22
REMARK   15  A    between atoms: P_22  and  O_23
REMARK   16  A    between atoms: P_22  and  O_24
REMARK                            x       y       z     vdW  Elec       q    Type
REMARK                         _______ _______ _______ _____ _____    ______ ____
ROOT
ATOM      1  C   UNL     1       5.925  -2.853  24.334  0.00  0.00    +0.016 A 
ATOM      2  C   UNL     1       6.777  -2.286  23.358  0.00  0.00    +0.005 A 
ATOM      3  C   UNL     1       6.989  -2.993  22.177  0.00  0.00    +0.117 A 
ATOM      4  N   UNL     1       6.412  -4.173  21.879  0.00  0.00    -0.256 NA
ATOM      5  C   UNL     1       5.562  -4.699  22.793  0.00  0.00    +0.080 A 
ATOM      6  C   UNL     1       4.891  -5.975  22.380  0.00  0.00    +0.069 C 
ATOM      7  C   UNL     1       5.290  -4.068  24.009  0.00  0.00    +0.142 A 
ENDROOT
BRANCH   7   8
ATOM      8  O   UNL     1       4.382  -4.639  24.860  0.00  0.00    -0.505 OA
ATOM      9  H   UNL     1       3.925  -3.907  25.326  0.00  0.00    +0.292 HD
ENDBRANCH   7   8
BRANCH   1  10
ATOM     10  C   UNL     1       5.639  -2.089  25.611  0.00  0.00    +0.120 C 
BRANCH  10  11
ATOM     11  N   UNL     1       5.955  -2.812  26.862  0.00  0.00    -0.309 NA
ATOM     12  H   UNL     1       5.283  -3.594  26.901  0.00  0.00    +0.122 HD
BRANCH  11  13
ATOM     13  C   UNL     1       7.297  -3.430  26.776  0.00  0.00    +0.113 C 
BRANCH  13  15
ATOM     14  C   UNL     1       6.200  -5.680  27.540  0.00  0.00    +0.040 C 
ATOM     15  C   UNL     1       7.461  -4.934  27.145  0.00  0.00    +0.141 C 
BRANCH  15  16
ATOM     16  O   UNL     1       8.097  -5.677  26.092  0.00  0.00    -0.282 OA
BRANCH  16  17
ATOM     17  P   UNL     1       9.125  -4.635  25.169  0.00  0.00    +0.473 P 
ATOM     18  O   UNL     1      10.044  -3.702  24.343  0.00  0.00    -0.228 OA
BRANCH  17  19
ATOM     19  O   UNL     1       8.654  -5.560  23.906  0.00  0.00    -0.303 OA
ATOM     20  H   UNL     1       9.124  -5.290  23.098  0.00  0.00    +0.222 HD
ENDBRANCH  17  19
BRANCH  17  21
ATOM     21  O   UNL     1      10.368  -5.599  25.613  0.00  0.00    -0.303 OA
ATOM     22  H   UNL     1      10.522  -6.172  24.835  0.00  0.00    +0.222 HD
ENDBRANCH  17  21
ENDBRANCH  16  17
ENDBRANCH  15  16
ENDBRANCH  13  15
ENDBRANCH  11  13
ENDBRANCH  10  11
ENDBRANCH   1  10
BRANCH   2  23
ATOM     23  C   UNL     1       7.432  -0.934  23.500  0.00  0.00    +0.209 C 
BRANCH  23  24
ATOM     24  O   UNL     1       8.100  -0.611  22.300  0.00  0.00    -0.282 OA
BRANCH  24  25
ATOM     25  P   UNL     1       9.673  -0.367  22.378  0.00  0.00    +0.473 P 
ATOM     26  O   UNL     1      10.137   0.985  21.958  0.00  0.00    -0.228 OA
BRANCH  25  27
ATOM     27  O   UNL     1      10.056  -0.760  23.874  0.00  0.00    -0.303 OA
ATOM     28  H   UNL     1      10.605  -0.079  24.302  0.00  0.00    +0.222 HD
ENDBRANCH  25  27
BRANCH  25  29
ATOM     29  O   UNL     1      10.288  -1.553  21.503  0.00  0.00    -0.303 OA
ATOM     30  H   UNL     1      10.143  -1.400  20.556  0.00  0.00    +0.222 HD
ENDBRANCH  25  29
ENDBRANCH  24  25
ENDBRANCH  23  24
ENDBRANCH   2  23
TORSDOF 14
ENDMDL
MODEL 5
REMARK VINA RESULT:      -5.7      2.616      5.310
REMARK  Name = 
REMARK  16 active torsions:
REMARK  status: ('A' for Active; 'I' for Inactive)
REMARK    1  A    between atoms: C_1  and  C_2
REMARK    2  A    between atoms: C_2  and  C_4
REMARK    3  A    between atoms: C_2  and  O_21
REMARK    4  A    between atoms: C_4  and  N_5
REMARK    5  A    between atoms: N_5  and  C_6
REMARK    6  A    between atoms: C_6  and  C_7
REMARK    7  A    between atoms: C_8  and  O_9
REMARK    8  A    between atoms: C_10  and  C_11
REMARK    9  A    between atoms: C_14  and  C_15
REMARK   10  A    between atoms: C_15  and  O_16
REMARK   11  A    between atoms: O_16  and  P_17
REMARK   12  A    between atoms: P_17  and  O_18
REMARK   13  A    between atoms: P_17  and  O_19
REMARK   14  A    between atoms: O_21  and  P_22
REMARK   15  A    between atoms: P_22  and  O_23
REMARK   16  A    between atoms: P_22  and  O_24
REMARK                            x       y       z     vdW  Elec       q    Type
REMARK                         _______ _______ _______ _____ _____    ______ ____
ROOT
ATOM      1  C   UNL     1       7.428  -0.917  23.829  0.00  0.00    +0.016 A 
ATOM      2  C   UNL     1       8.554  -1.287  24.601  0.00  0.00    +0.005 A 
ATOM      3  C   UNL     1       9.681  -0.471  24.554  0.00  0.00    +0.117 A 
ATOM      4  N   UNL     1       9.769   0.673  23.847  0.00  0.00    -0.256 NA
ATOM      5  C   UNL     1       8.678   1.053  23.141  0.00  0.00    +0.080 A 
ATOM      6  C   UNL     1       8.804   2.368  22.432  0.00  0.00    +0.069 C 
ATOM      7  C   UNL     1       7.503   0.298  23.119  0.00  0.00    +0.142 A 
ENDROOT
BRANCH   7   8
ATOM      8  O   UNL     1       6.427   0.774  22.419  0.00  0.00    -0.505 OA
ATOM      9  H   UNL     1       6.228   1.669  22.771  0.00  0.00    +0.292 HD
ENDBRANCH   7   8
BRANCH   1  10
ATOM     10  C   UNL     1       6.170  -1.758  23.890  0.00  0.00    +0.120 C 
BRANCH  10  11
ATOM     11  N   UNL     1       5.747  -2.356  22.605  0.00  0.00    -0.309 NA
ATOM     12  H   UNL     1       5.996  -1.659  21.887  0.00  0.00    +0.122 HD
BRANCH  11  13
ATOM     13  C   UNL     1       6.555  -3.560  22.306  0.00  0.00    +0.113 C 
BRANCH  13  15
ATOM     14  C   UNL     1       6.248  -5.733  20.880  0.00  0.00    +0.040 C 
ATOM     15  C   UNL     1       5.829  -4.921  22.091  0.00  0.00    +0.141 C 
BRANCH  15  16
ATOM     16  O   UNL     1       5.933  -5.771  23.245  0.00  0.00    -0.282 OA
BRANCH  16  17
ATOM     17  P   UNL     1       4.426  -5.804  24.095  0.00  0.00    +0.473 P 
ATOM     18  O   UNL     1       3.077  -5.833  24.855  0.00  0.00    -0.228 OA
BRANCH  17  19
ATOM     19  O   UNL     1       5.365  -5.712  25.430  0.00  0.00    -0.303 OA
ATOM     20  H   UNL     1       4.985  -5.079  26.066  0.00  0.00    +0.222 HD
ENDBRANCH  17  19
BRANCH  17  21
ATOM     21  O   UNL     1       4.484  -7.433  23.975  0.00  0.00    -0.303 OA
ATOM     22  H   UNL     1       3.672  -7.739  24.428  0.00  0.00    +0.222 HD
ENDBRANCH  17  21
ENDBRANCH  16  17
ENDBRANCH  15  16
ENDBRANCH  13  15
ENDBRANCH  11  13
ENDBRANCH  10  11
ENDBRANCH   1  10
BRANCH   2  23
ATOM     23  C   UNL     1       8.587  -2.489  25.511  0.00  0.00    +0.209 C 
BRANCH  23  24
ATOM     24  O   UNL     1       9.421  -3.478  24.947  0.00  0.00    -0.282 OA
BRANCH  24  25
ATOM     25  P   UNL     1       9.087  -5.000  25.285  0.00  0.00    +0.473 P 
ATOM     26  O   UNL     1       8.020  -5.216  26.302  0.00  0.00    -0.228 OA
BRANCH  25  27
ATOM     27  O   UNL     1       8.788  -5.659  23.865  0.00  0.00    -0.303 OA
ATOM     28  H   UNL     1       8.197  -6.429  23.937  0.00  0.00    +0.222 HD
ENDBRANCH  25  27
BRANCH  25  29
ATOM     29  O   UNL     1      10.500  -5.617  25.702  0.00  0.00    -0.303 OA
ATOM     30  H   UNL     1      10.669  -5.497  26.649  0.00  0.00    +0.222 HD
ENDBRANCH  25  29
ENDBRANCH  24  25
ENDBRANCH  23  24
ENDBRANCH   2  23
TORSDOF 14
ENDMDL
MODEL 6
REMARK VINA RESULT:      -5.7      2.943      7.076
REMARK  Name = 
REMARK  16 active torsions:
REMARK  status: ('A' for Active; 'I' for Inactive)
REMARK    1  A    between atoms: C_1  and  C_2
REMARK    2  A    between atoms: C_2  and  C_4
REMARK    3  A    between atoms: C_2  and  O_21
REMARK    4  A    between atoms: C_4  and  N_5
REMARK    5  A    between atoms: N_5  and  C_6
REMARK    6  A    between atoms: C_6  and  C_7
REMARK    7  A    between atoms: C_8  and  O_9
REMARK    8  A    between atoms: C_10  and  C_11
REMARK    9  A    between atoms: C_14  and  C_15
REMARK   10  A    between atoms: C_15  and  O_16
REMARK   11  A    between atoms: O_16  and  P_17
REMARK   12  A    between atoms: P_17  and  O_18
REMARK   13  A    between atoms: P_17  and  O_19
REMARK   14  A    between atoms: O_21  and  P_22
REMARK   15  A    between atoms: P_22  and  O_23
REMARK   16  A    between atoms: P_22  and  O_24
REMARK                            x       y       z     vdW  Elec       q    Type
REMARK                         _______ _______ _______ _____ _____    ______ ____
ROOT
ATOM      1  C   UNL     1       6.320  -5.657  24.177  0.00  0.00    +0.016 A 
ATOM      2  C   UNL     1       5.386  -5.898  25.211  0.00  0.00    +0.005 A 
ATOM      3  C   UNL     1       5.833  -5.842  26.529  0.00  0.00    +0.117 A 
ATOM      4  N   UNL     1       7.094  -5.541  26.897  0.00  0.00    -0.256 NA
ATOM      5  C   UNL     1       7.981  -5.267  25.911  0.00  0.00    +0.080 A 
ATOM      6  C   UNL     1       9.348  -4.867  26.377  0.00  0.00    +0.069 C 
ATOM      7  C   UNL     1       7.630  -5.304  24.560  0.00  0.00    +0.142 A 
ENDROOT
BRANCH   7   8
ATOM      8  O   UNL     1       8.572  -4.967  23.624  0.00  0.00    -0.505 OA
ATOM      9  H   UNL     1       8.917  -5.806  23.250  0.00  0.00    +0.292 HD
ENDBRANCH   7   8
BRANCH   1  10
ATOM     10  C   UNL     1       5.858  -5.665  22.735  0.00  0.00    +0.120 C 
BRANCH  10  11
ATOM     11  N   UNL     1       6.401  -4.578  21.892  0.00  0.00    -0.309 NA
ATOM     12  H   UNL     1       5.977  -4.718  20.962  0.00  0.00    +0.122 HD
BRANCH  11  13
ATOM     13  C   UNL     1       5.917  -3.264  22.370  0.00  0.00    +0.113 C 
BRANCH  13  15
ATOM     14  C   UNL     1       6.998  -1.572  24.048  0.00  0.00    +0.040 C 
ATOM     15  C   UNL     1       6.951  -2.131  22.639  0.00  0.00    +0.141 C 
BRANCH  15  16
ATOM     16  O   UNL     1       8.286  -2.530  22.283  0.00  0.00    -0.282 OA
BRANCH  16  17
ATOM     17  P   UNL     1       9.434  -1.419  22.949  0.00  0.00    +0.473 P 
ATOM     18  O   UNL     1      10.460  -0.426  23.546  0.00  0.00    -0.228 OA
BRANCH  17  19
ATOM     19  O   UNL     1      10.118  -1.492  21.467  0.00  0.00    -0.303 OA
ATOM     20  H   UNL     1      10.968  -1.965  21.511  0.00  0.00    +0.222 HD
ENDBRANCH  17  19
BRANCH  17  21
ATOM     21  O   UNL     1      10.224  -2.719  23.549  0.00  0.00    -0.303 OA
ATOM     22  H   UNL     1      10.959  -2.867  22.921  0.00  0.00    +0.222 HD
ENDBRANCH  17  21
ENDBRANCH  16  17
ENDBRANCH  15  16
ENDBRANCH  13  15
ENDBRANCH  11  13
ENDBRANCH  10  11
ENDBRANCH   1  10
BRANCH   2  23
ATOM     23  C   UNL     1       3.920  -6.163  24.972  0.00  0.00    +0.209 C 
BRANCH  23  24
ATOM     24  O   UNL     1       3.728  -7.542  24.740  0.00  0.00    -0.282 OA
BRANCH  24  25
ATOM     25  P   UNL     1       2.227  -8.067  24.640  0.00  0.00    +0.473 P 
ATOM     26  O   UNL     1       1.200  -7.215  25.302  0.00  0.00    -0.228 OA
BRANCH  25  27
ATOM     27  O   UNL     1       1.993  -8.288  23.079  0.00  0.00    -0.303 OA
ATOM     28  H   UNL     1       2.497  -9.048  22.738  0.00  0.00    +0.222 HD
ENDBRANCH  25  27
BRANCH  25  29
ATOM     29  O   UNL     1       2.301  -9.550  25.227  0.00  0.00    -0.303 OA
ATOM     30  H   UNL     1       3.124  -9.990  24.965  0.00  0.00    +0.222 HD
ENDBRANCH  25  29
ENDBRANCH  24  25
ENDBRANCH  23  24
ENDBRANCH   2  23
TORSDOF 14
ENDMDL
MODEL 7
REMARK VINA RESULT:      -5.7      2.842      5.452
REMARK  Name = 
REMARK  16 active torsions:
REMARK  status: ('A' for Active; 'I' for Inactive)
REMARK    1  A    between atoms: C_1  and  C_2
REMARK    2  A    between atoms: C_2  and  C_4
REMARK    3  A    between atoms: C_2  and  O_21
REMARK    4  A    between atoms: C_4  and  N_5
REMARK    5  A    between atoms: N_5  and  C_6
REMARK    6  A    between atoms: C_6  and  C_7
REMARK    7  A    between atoms: C_8  and  O_9
REMARK    8  A    between atoms: C_10  and  C_11
REMARK    9  A    between atoms: C_14  and  C_15
REMARK   10  A    between atoms: C_15  and  O_16
REMARK   11  A    between atoms: O_16  and  P_17
REMARK   12  A    between atoms: P_17  and  O_18
REMARK   13  A    between atoms: P_17  and  O_19
REMARK   14  A    between atoms: O_21  and  P_22
REMARK   15  A    between atoms: P_22  and  O_23
REMARK   16  A    between atoms: P_22  and  O_24
REMARK                            x       y       z     vdW  Elec       q    Type
REMARK                         _______ _______ _______ _____ _____    ______ ____
ROOT
ATOM      1  C   UNL     1       7.409  -3.214  24.279  0.00  0.00    +0.016 A 
ATOM      2  C   UNL     1       6.247  -2.474  24.601  0.00  0.00    +0.005 A 
ATOM      3  C   UNL     1       5.030  -2.898  24.075  0.00  0.00    +0.117 A 
ATOM      4  N   UNL     1       4.869  -3.990  23.302  0.00  0.00    -0.256 NA
ATOM      5  C   UNL     1       5.972  -4.726  23.028  0.00  0.00    +0.080 A 
ATOM      6  C   UNL     1       5.726  -5.968  22.226  0.00  0.00    +0.069 C 
ATOM      7  C   UNL     1       7.238  -4.378  23.503  0.00  0.00    +0.142 A 
ENDROOT
BRANCH   7   8
ATOM      8  O   UNL     1       8.297  -5.200  23.222  0.00  0.00    -0.505 OA
ATOM      9  H   UNL     1       9.108  -4.650  23.269  0.00  0.00    +0.292 HD
ENDBRANCH   7   8
BRANCH   1  10
ATOM     10  C   UNL     1       8.743  -2.806  24.870  0.00  0.00    +0.120 C 
BRANCH  10  11
ATOM     11  N   UNL     1       9.899  -2.918  23.954  0.00  0.00    -0.309 NA
ATOM     12  H   UNL     1       9.612  -3.602  23.237  0.00  0.00    +0.122 HD
BRANCH  11  13
ATOM     13  C   UNL     1      10.116  -1.641  23.238  0.00  0.00    +0.113 C 
BRANCH  13  15
ATOM     14  C   UNL     1      10.716   0.365  24.807  0.00  0.00    +0.040 C 
ATOM     15  C   UNL     1       9.685  -0.310  23.923  0.00  0.00    +0.141 C 
BRANCH  15  16
ATOM     16  O   UNL     1       9.227   0.660  22.966  0.00  0.00    -0.282 OA
BRANCH  16  17
ATOM     17  P   UNL     1      10.063   2.158  23.194  0.00  0.00    +0.473 P 
ATOM     18  O   UNL     1      10.810   3.498  23.398  0.00  0.00    -0.228 OA
BRANCH  17  19
ATOM     19  O   UNL     1       8.565   2.811  23.149  0.00  0.00    -0.303 OA
ATOM     20  H   UNL     1       7.928   2.168  22.789  0.00  0.00    +0.222 HD
ENDBRANCH  17  19
BRANCH  17  21
ATOM     21  O   UNL     1      10.293   2.185  21.575  0.00  0.00    -0.303 OA
ATOM     22  H   UNL     1      10.028   1.291  21.278  0.00  0.00    +0.222 HD
ENDBRANCH  17  21
ENDBRANCH  16  17
ENDBRANCH  15  16
ENDBRANCH  13  15
ENDBRANCH  11  13
ENDBRANCH  10  11
ENDBRANCH   1  10
BRANCH   2  23
ATOM     23  C   UNL     1       6.243  -1.279  25.521  0.00  0.00    +0.209 C 
BRANCH  23  24
ATOM     24  O   UNL     1       5.298  -0.338  25.060  0.00  0.00    -0.282 OA
BRANCH  24  25
ATOM     25  P   UNL     1       5.854   1.044  24.493  0.00  0.00    +0.473 P 
ATOM     26  O   UNL     1       6.874   1.725  25.340  0.00  0.00    -0.228 OA
BRANCH  25  27
ATOM     27  O   UNL     1       6.349   0.692  23.020  0.00  0.00    -0.303 OA
ATOM     28  H   UNL     1       7.152   0.142  23.026  0.00  0.00    +0.222 HD
ENDBRANCH  25  27
BRANCH  25  29
ATOM     29  O   UNL     1       4.538   1.916  24.255  0.00  0.00    -0.303 OA
ATOM     30  H   UNL     1       3.996   1.544  23.543  0.00  0.00    +0.222 HD
ENDBRANCH  25  29
ENDBRANCH  24  25
ENDBRANCH  23  24
ENDBRANCH   2  23
TORSDOF 14
ENDMDL
MODEL 8
REMARK VINA RESULT:      -5.6      1.536      6.421
REMARK  Name = 
REMARK  16 active torsions:
REMARK  status: ('A' for Active; 'I' for Inactive)
REMARK    1  A    between atoms: C_1  and  C_2
REMARK    2  A    between atoms: C_2  and  C_4
REMARK    3  A    between atoms: C_2  and  O_21
REMARK    4  A    between atoms: C_4  and  N_5
REMARK    5  A    between atoms: N_5  and  C_6
REMARK    6  A    between atoms: C_6  and  C_7
REMARK    7  A    between atoms: C_8  and  O_9
REMARK    8  A    between atoms: C_10  and  C_11
REMARK    9  A    between atoms: C_14  and  C_15
REMARK   10  A    between atoms: C_15  and  O_16
REMARK   11  A    between atoms: O_16  and  P_17
REMARK   12  A    between atoms: P_17  and  O_18
REMARK   13  A    between atoms: P_17  and  O_19
REMARK   14  A    between atoms: O_21  and  P_22
REMARK   15  A    between atoms: P_22  and  O_23
REMARK   16  A    between atoms: P_22  and  O_24
REMARK                            x       y       z     vdW  Elec       q    Type
REMARK                         _______ _______ _______ _____ _____    ______ ____
ROOT
ATOM      1  C   UNL     1       7.205  -3.898  25.195  0.00  0.00    +0.016 A 
ATOM      2  C   UNL     1       6.020  -4.461  25.722  0.00  0.00    +0.005 A 
ATOM      3  C   UNL     1       5.290  -5.333  24.918  0.00  0.00    +0.117 A 
ATOM      4  N   UNL     1       5.650  -5.710  23.676  0.00  0.00    -0.256 NA
ATOM      5  C   UNL     1       6.807  -5.207  23.184  0.00  0.00    +0.080 A 
ATOM      6  C   UNL     1       7.197  -5.714  21.828  0.00  0.00    +0.069 C 
ATOM      7  C   UNL     1       7.604  -4.319  23.910  0.00  0.00    +0.142 A 
ENDROOT
BRANCH   7   8
ATOM      8  O   UNL     1       8.784  -3.892  23.363  0.00  0.00    -0.505 OA
ATOM      9  H   UNL     1       9.436  -3.834  24.094  0.00  0.00    +0.292 HD
ENDBRANCH   7   8
BRANCH   1  10
ATOM     10  C   UNL     1       8.045  -2.980  26.059  0.00  0.00    +0.120 C 
BRANCH  10  11
ATOM     11  N   UNL     1       8.539  -1.759  25.385  0.00  0.00    -0.309 NA
ATOM     12  H   UNL     1       8.946  -2.085  24.495  0.00  0.00    +0.122 HD
BRANCH  11  13
ATOM     13  C   UNL     1       7.408  -0.877  25.021  0.00  0.00    +0.113 C 
BRANCH  13  15
ATOM     14  C   UNL     1       6.834   0.834  23.126  0.00  0.00    +0.040 C 
ATOM     15  C   UNL     1       7.120  -0.603  23.515  0.00  0.00    +0.141 C 
BRANCH  15  16
ATOM     16  O   UNL     1       8.181  -1.082  22.671  0.00  0.00    -0.282 OA
BRANCH  16  17
ATOM     17  P   UNL     1       9.219   0.230  22.224  0.00  0.00    +0.473 P 
ATOM     18  O   UNL     1      10.147   1.403  21.824  0.00  0.00    -0.228 OA
BRANCH  17  19
ATOM     19  O   UNL     1       9.550  -0.695  20.917  0.00  0.00    -0.303 OA
ATOM     20  H   UNL     1       9.574  -0.146  20.114  0.00  0.00    +0.222 HD
ENDBRANCH  17  19
BRANCH  17  21
ATOM     21  O   UNL     1      10.355  -0.446  23.186  0.00  0.00    -0.303 OA
ATOM     22  H   UNL     1      10.347  -1.394  22.942  0.00  0.00    +0.222 HD
ENDBRANCH  17  21
ENDBRANCH  16  17
ENDBRANCH  15  16
ENDBRANCH  13  15
ENDBRANCH  11  13
ENDBRANCH  10  11
ENDBRANCH   1  10
BRANCH   2  23
ATOM     23  C   UNL     1       5.524  -4.210  27.125  0.00  0.00    +0.209 C 
BRANCH  23  24
ATOM     24  O   UNL     1       5.068  -5.423  27.683  0.00  0.00    -0.282 OA
BRANCH  24  25
ATOM     25  P   UNL     1       6.018  -6.150  28.736  0.00  0.00    +0.473 P 
ATOM     26  O   UNL     1       6.045  -5.551  30.100  0.00  0.00    -0.228 OA
BRANCH  25  27
ATOM     27  O   UNL     1       5.554  -7.674  28.694  0.00  0.00    -0.303 OA
ATOM     28  H   UNL     1       5.281  -7.949  27.801  0.00  0.00    +0.222 HD
ENDBRANCH  25  27
BRANCH  25  29
ATOM     29  O   UNL     1       7.444  -6.165  28.018  0.00  0.00    -0.303 OA
ATOM     30  H   UNL     1       8.030  -5.487  28.388  0.00  0.00    +0.222 HD
ENDBRANCH  25  29
ENDBRANCH  24  25
ENDBRANCH  23  24
ENDBRANCH   2  23
TORSDOF 14
ENDMDL
MODEL 9
REMARK VINA RESULT:      -5.6      3.915      6.994
REMARK  Name = 
REMARK  16 active torsions:
REMARK  status: ('A' for Active; 'I' for Inactive)
REMARK    1  A    between atoms: C_1  and  C_2
REMARK    2  A    between atoms: C_2  and  C_4
REMARK    3  A    between atoms: C_2  and  O_21
REMARK    4  A    between atoms: C_4  and  N_5
REMARK    5  A    between atoms: N_5  and  C_6
REMARK    6  A    between atoms: C_6  and  C_7
REMARK    7  A    between atoms: C_8  and  O_9
REMARK    8  A    between atoms: C_10  and  C_11
REMARK    9  A    between atoms: C_14  and  C_15
REMARK   10  A    between atoms: C_15  and  O_16
REMARK   11  A    between atoms: O_16  and  P_17
REMARK   12  A    between atoms: P_17  and  O_18
REMARK   13  A    between atoms: P_17  and  O_19
REMARK   14  A    between atoms: O_21  and  P_22
REMARK   15  A    between atoms: P_22  and  O_23
REMARK   16  A    between atoms: P_22  and  O_24
REMARK                            x       y       z     vdW  Elec       q    Type
REMARK                         _______ _______ _______ _____ _____    ______ ____
ROOT
ATOM      1  C   UNL     1       7.759  -0.648  24.137  0.00  0.00    +0.016 A 
ATOM      2  C   UNL     1       9.168  -0.624  24.255  0.00  0.00    +0.005 A 
ATOM      3  C   UNL     1       9.885  -1.731  23.807  0.00  0.00    +0.117 A 
ATOM      4  N   UNL     1       9.335  -2.819  23.235  0.00  0.00    -0.256 NA
ATOM      5  C   UNL     1       7.990  -2.827  23.080  0.00  0.00    +0.080 A 
ATOM      6  C   UNL     1       7.436  -4.027  22.372  0.00  0.00    +0.069 C 
ATOM      7  C   UNL     1       7.183  -1.768  23.503  0.00  0.00    +0.142 A 
ENDROOT
BRANCH   7   8
ATOM      8  O   UNL     1       5.836  -1.829  23.268  0.00  0.00    -0.505 OA
ATOM      9  H   UNL     1       5.408  -1.192  23.880  0.00  0.00    +0.292 HD
ENDBRANCH   7   8
BRANCH   1  10
ATOM     10  C   UNL     1       6.952   0.557  24.573  0.00  0.00    +0.120 C 
BRANCH  10  11
ATOM     11  N   UNL     1       5.946   1.030  23.596  0.00  0.00    -0.309 NA
ATOM     12  H   UNL     1       5.327   1.661  24.128  0.00  0.00    +0.122 HD
BRANCH  11  13
ATOM     13  C   UNL     1       6.589   1.864  22.557  0.00  0.00    +0.113 C 
BRANCH  13  15
ATOM     14  C   UNL     1       5.843   4.036  23.813  0.00  0.00    +0.040 C 
ATOM     15  C   UNL     1       6.271   3.388  22.510  0.00  0.00    +0.141 C 
BRANCH  15  16
ATOM     16  O   UNL     1       7.372   4.149  21.984  0.00  0.00    -0.282 OA
BRANCH  16  17
ATOM     17  P   UNL     1       7.427   5.707  22.735  0.00  0.00    +0.473 P 
ATOM     18  O   UNL     1       7.477   7.101  23.408  0.00  0.00    -0.228 OA
BRANCH  17  19
ATOM     19  O   UNL     1       7.395   6.267  21.200  0.00  0.00    -0.303 OA
ATOM     20  H   UNL     1       7.434   5.524  20.571  0.00  0.00    +0.222 HD
ENDBRANCH  17  19
BRANCH  17  21
ATOM     21  O   UNL     1       9.051   5.529  22.802  0.00  0.00    -0.303 OA
ATOM     22  H   UNL     1       9.263   4.947  22.044  0.00  0.00    +0.222 HD
ENDBRANCH  17  21
ENDBRANCH  16  17
ENDBRANCH  15  16
ENDBRANCH  13  15
ENDBRANCH  11  13
ENDBRANCH  10  11
ENDBRANCH   1  10
BRANCH   2  23
ATOM     23  C   UNL     1       9.945   0.552  24.793  0.00  0.00    +0.209 C 
BRANCH  23  24
ATOM     24  O   UNL     1      10.725   1.109  23.758  0.00  0.00    -0.282 OA
BRANCH  24  25
ATOM     25  P   UNL     1      10.453   2.632  23.372  0.00  0.00    +0.473 P 
ATOM     26  O   UNL     1      11.630   3.540  23.463  0.00  0.00    -0.228 OA
BRANCH  25  27
ATOM     27  O   UNL     1       9.789   2.556  21.925  0.00  0.00    -0.303 OA
ATOM     28  H   UNL     1       9.982   3.348  21.392  0.00  0.00    +0.222 HD
ENDBRANCH  25  27
BRANCH  25  29
ATOM     29  O   UNL     1       9.244   3.057  24.324  0.00  0.00    -0.303 OA
ATOM     30  H   UNL     1       8.580   2.353  24.383  0.00  0.00    +0.222 HD
ENDBRANCH  25  29
ENDBRANCH  24  25
ENDBRANCH  23  24
ENDBRANCH   2  23
TORSDOF 14
ENDMDL
