MODEL 1
REMARK VINA RESULT:      -8.1      0.000      0.000
REMARK  Name = 
REMARK  2 active torsions:
REMARK  status: ('A' for Active; 'I' for Inactive)
REMARK    1  A    between atoms: N_8  and  C_9
REMARK    2  A    between atoms: C_9  and  C_10
REMARK                            x       y       z     vdW  Elec       q    Type
REMARK                         _______ _______ _______ _____ _____    ______ ____
ROOT
ATOM      1  F   UNL     1       6.820   2.996  21.485  0.00  0.00    -0.205 F 
ATOM      2  C   UNL     1       7.540   1.971  21.957  0.00  0.00    +0.124 A 
ATOM      3  C   UNL     1       7.192   1.397  23.177  0.00  0.00    +0.044 A 
ATOM      4  C   UNL     1       7.904   0.284  23.671  0.00  0.00    -0.008 A 
ATOM      5  C   UNL     1       8.958  -0.227  22.899  0.00  0.00    +0.042 A 
ATOM      6  C   UNL     1       9.622  -1.499  23.280  0.00  0.00    +0.253 C 
ATOM      7  N   UNL     1       9.103  -2.159  24.383  0.00  0.00    -0.233 N 
ATOM      8  C   UNL     1       8.521  -1.449  25.420  0.00  0.00    +0.242 C 
ATOM      9  O   UNL     1       8.700  -1.721  26.605  0.00  0.00    -0.274 OA
ATOM     10  O   UNL     1      10.561  -1.918  22.610  0.00  0.00    -0.270 OA
ATOM     11  C   UNL     1       9.322   0.385  21.688  0.00  0.00    +0.016 A 
ATOM     12  C   UNL     1       7.513  -0.399  24.972  0.00  0.00    +0.157 C 
ATOM     13  C   UNL     1       7.237   0.595  26.087  0.00  0.00    +0.239 C 
ATOM     14  O   UNL     1       7.991   1.478  26.468  0.00  0.00    -0.274 OA
ATOM     15  N   UNL     1       5.975   0.407  26.547  0.00  0.00    -0.255 N 
ATOM     16  H   UNL     1       5.562   0.983  27.270  0.00  0.00    +0.158 HD
ATOM     17  C   UNL     1       5.274  -0.504  25.839  0.00  0.00    +0.221 C 
ATOM     18  O   UNL     1       4.091  -0.756  25.985  0.00  0.00    -0.275 OA
ATOM     19  C   UNL     1       6.166  -1.137  24.815  0.00  0.00    +0.126 C 
ATOM     20  C   UNL     1       8.606   1.483  21.215  0.00  0.00    +0.039 A 
ENDROOT
BRANCH   7  21
ATOM     21  C   UNL     1       9.504  -3.546  24.613  0.00  0.00    +0.154 C 
BRANCH  21  22
ATOM     22  C   UNL     1       8.270  -4.428  24.560  0.00  0.00    +0.006 A 
ATOM     23  C   UNL     1       7.731  -4.969  25.732  0.00  0.00    +0.129 A 
ATOM     24  F   UNL     1       8.370  -4.798  26.898  0.00  0.00    -0.205 F 
ATOM     25  C   UNL     1       6.512  -5.642  25.736  0.00  0.00    +0.054 A 
ATOM     26  C   UNL     1       5.812  -5.780  24.542  0.00  0.00    +0.021 A 
ATOM     27 BR   UNL     1       4.108  -6.600  24.540  0.00  0.00    -0.050 Br
ATOM     28  C   UNL     1       6.341  -5.285  23.351  0.00  0.00    +0.016 A 
ATOM     29  C   UNL     1       7.567  -4.613  23.359  0.00  0.00    +0.009 A 
ENDBRANCH  21  22
ENDBRANCH   7  21
TORSDOF 2
ENDMDL
MODEL 2
REMARK VINA RESULT:      -7.7      3.587      6.818
REMARK  Name = 
REMARK  2 active torsions:
REMARK  status: ('A' for Active; 'I' for Inactive)
REMARK    1  A    between atoms: N_8  and  C_9
REMARK    2  A    between atoms: C_9  and  C_10
REMARK                            x       y       z     vdW  Elec       q    Type
REMARK                         _______ _______ _______ _____ _____    ______ ____
ROOT
ATOM      1  F   UNL     1       2.093  -7.336  24.583  0.00  0.00    -0.205 F 
ATOM      2  C   UNL     1       3.289  -6.955  25.049  0.00  0.00    +0.124 A 
ATOM      3  C   UNL     1       4.191  -6.335  24.187  0.00  0.00    +0.044 A 
ATOM      4  C   UNL     1       5.436  -5.879  24.666  0.00  0.00    -0.008 A 
ATOM      5  C   UNL     1       5.733  -6.060  26.025  0.00  0.00    +0.042 A 
ATOM      6  C   UNL     1       6.947  -5.443  26.619  0.00  0.00    +0.253 C 
ATOM      7  N   UNL     1       7.709  -4.648  25.777  0.00  0.00    -0.233 N 
ATOM      8  C   UNL     1       7.773  -4.917  24.421  0.00  0.00    +0.242 C 
ATOM      9  O   UNL     1       8.813  -4.851  23.770  0.00  0.00    -0.274 OA
ATOM     10  O   UNL     1       7.207  -5.634  27.803  0.00  0.00    -0.270 OA
ATOM     11  C   UNL     1       4.831  -6.721  26.874  0.00  0.00    +0.016 A 
ATOM     12  C   UNL     1       6.419  -5.149  23.763  0.00  0.00    +0.157 C 
ATOM     13  C   UNL     1       6.582  -5.830  22.415  0.00  0.00    +0.239 C 
ATOM     14  O   UNL     1       6.875  -7.002  22.231  0.00  0.00    -0.274 OA
ATOM     15  N   UNL     1       6.268  -4.951  21.432  0.00  0.00    -0.255 N 
ATOM     16  H   UNL     1       6.272  -5.199  20.450  0.00  0.00    +0.158 HD
ATOM     17  C   UNL     1       5.792  -3.775  21.893  0.00  0.00    +0.221 C 
ATOM     18  O   UNL     1       5.334  -2.879  21.207  0.00  0.00    -0.275 OA
ATOM     19  C   UNL     1       5.878  -3.752  23.389  0.00  0.00    +0.126 C 
ATOM     20  C   UNL     1       3.603  -7.163  26.384  0.00  0.00    +0.039 A 
ENDROOT
BRANCH   7  21
ATOM     21  C   UNL     1       8.720  -3.778  26.375  0.00  0.00    +0.154 C 
BRANCH  21  22
ATOM     22  C   UNL     1       8.339  -2.332  26.111  0.00  0.00    +0.006 A 
ATOM     23  C   UNL     1       9.021  -1.580  25.149  0.00  0.00    +0.129 A 
ATOM     24  F   UNL     1      10.089  -2.104  24.531  0.00  0.00    -0.205 F 
ATOM     25  C   UNL     1       8.590  -0.311  24.769  0.00  0.00    +0.054 A 
ATOM     26  C   UNL     1       7.452   0.223  25.363  0.00  0.00    +0.021 A 
ATOM     27 BR   UNL     1       6.790   1.899  24.791  0.00  0.00    -0.050 Br
ATOM     28  C   UNL     1       6.772  -0.487  26.352  0.00  0.00    +0.016 A 
ATOM     29  C   UNL     1       7.215  -1.759  26.727  0.00  0.00    +0.009 A 
ENDBRANCH  21  22
ENDBRANCH   7  21
TORSDOF 2
ENDMDL
MODEL 3
REMARK VINA RESULT:      -7.5      3.879      6.510
REMARK  Name = 
REMARK  2 active torsions:
REMARK  status: ('A' for Active; 'I' for Inactive)
REMARK    1  A    between atoms: N_8  and  C_9
REMARK    2  A    between atoms: C_9  and  C_10
REMARK                            x       y       z     vdW  Elec       q    Type
REMARK                         _______ _______ _______ _____ _____    ______ ____
ROOT
ATOM      1  F   UNL     1       0.467  -4.049  24.100  0.00  0.00    -0.205 F 
ATOM      2  C   UNL     1       1.625  -3.929  24.761  0.00  0.00    +0.124 A 
ATOM      3  C   UNL     1       2.771  -4.529  24.243  0.00  0.00    +0.044 A 
ATOM      4  C   UNL     1       4.012  -4.375  24.894  0.00  0.00    -0.008 A 
ATOM      5  C   UNL     1       4.058  -3.600  26.063  0.00  0.00    +0.042 A 
ATOM      6  C   UNL     1       5.362  -3.257  26.687  0.00  0.00    +0.253 C 
ATOM      7  N   UNL     1       6.498  -3.689  26.019  0.00  0.00    -0.233 N 
ATOM      8  C   UNL     1       6.475  -4.856  25.274  0.00  0.00    +0.242 C 
ATOM      9  O   UNL     1       7.393  -5.674  25.276  0.00  0.00    -0.274 OA
ATOM     10  O   UNL     1       5.384  -2.602  27.724  0.00  0.00    -0.270 OA
ATOM     11  C   UNL     1       2.889  -3.033  26.594  0.00  0.00    +0.016 A 
ATOM     12  C   UNL     1       5.290  -4.971  24.324  0.00  0.00    +0.157 C 
ATOM     13  C   UNL     1       5.104  -6.406  23.863  0.00  0.00    +0.239 C 
ATOM     14  O   UNL     1       4.660  -7.326  24.533  0.00  0.00    -0.274 OA
ATOM     15  N   UNL     1       5.432  -6.497  22.551  0.00  0.00    -0.255 N 
ATOM     16  H   UNL     1       5.350  -7.356  22.021  0.00  0.00    +0.158 HD
ATOM     17  C   UNL     1       5.714  -5.305  21.982  0.00  0.00    +0.221 C 
ATOM     18  O   UNL     1       5.918  -5.116  20.796  0.00  0.00    -0.275 OA
ATOM     19  C   UNL     1       5.703  -4.235  23.031  0.00  0.00    +0.126 C 
ATOM     20  C   UNL     1       1.671  -3.194  25.936  0.00  0.00    +0.039 A 
ENDROOT
BRANCH   7  21
ATOM     21  C   UNL     1       7.787  -3.123  26.409  0.00  0.00    +0.154 C 
BRANCH  21  22
ATOM     22  C   UNL     1       8.264  -2.189  25.311  0.00  0.00    +0.006 A 
ATOM     23  C   UNL     1       9.262  -2.591  24.417  0.00  0.00    +0.129 A 
ATOM     24  F   UNL     1       9.880  -3.767  24.598  0.00  0.00    -0.205 F 
ATOM     25  C   UNL     1       9.602  -1.826  23.304  0.00  0.00    +0.054 A 
ATOM     26  C   UNL     1       8.931  -0.629  23.076  0.00  0.00    +0.021 A 
ATOM     27 BR   UNL     1       9.304   0.375  21.518  0.00  0.00    -0.050 Br
ATOM     28  C   UNL     1       7.957  -0.184  23.968  0.00  0.00    +0.016 A 
ATOM     29  C   UNL     1       7.626  -0.959  25.084  0.00  0.00    +0.009 A 
ENDBRANCH  21  22
ENDBRANCH   7  21
TORSDOF 2
ENDMDL
MODEL 4
REMARK VINA RESULT:      -7.5      1.520      1.623
REMARK  Name = 
REMARK  2 active torsions:
REMARK  status: ('A' for Active; 'I' for Inactive)
REMARK    1  A    between atoms: N_8  and  C_9
REMARK    2  A    between atoms: C_9  and  C_10
REMARK                            x       y       z     vdW  Elec       q    Type
REMARK                         _______ _______ _______ _____ _____    ______ ____
ROOT
ATOM      1  F   UNL     1       8.902   3.204  23.628  0.00  0.00    -0.205 F 
ATOM      2  C   UNL     1       9.137   1.895  23.784  0.00  0.00    +0.124 A 
ATOM      3  C   UNL     1       8.346   1.160  24.664  0.00  0.00    +0.044 A 
ATOM      4  C   UNL     1       8.542  -0.229  24.807  0.00  0.00    -0.008 A 
ATOM      5  C   UNL     1       9.542  -0.843  24.039  0.00  0.00    +0.042 A 
ATOM      6  C   UNL     1       9.672  -2.323  24.015  0.00  0.00    +0.253 C 
ATOM      7  N   UNL     1       8.725  -3.036  24.734  0.00  0.00    -0.233 N 
ATOM      8  C   UNL     1       8.157  -2.499  25.877  0.00  0.00    +0.242 C 
ATOM      9  O   UNL     1       7.952  -3.153  26.897  0.00  0.00    -0.274 OA
ATOM     10  O   UNL     1      10.570  -2.843  23.360  0.00  0.00    -0.270 OA
ATOM     11  C   UNL     1      10.357  -0.083  23.184  0.00  0.00    +0.016 A 
ATOM     12  C   UNL     1       7.658  -1.069  25.717  0.00  0.00    +0.157 C 
ATOM     13  C   UNL     1       7.439  -0.418  27.072  0.00  0.00    +0.239 C 
ATOM     14  O   UNL     1       8.312  -0.032  27.835  0.00  0.00    -0.274 OA
ATOM     15  N   UNL     1       6.109  -0.252  27.275  0.00  0.00    -0.255 N 
ATOM     16  H   UNL     1       5.730   0.196  28.100  0.00  0.00    +0.158 HD
ATOM     17  C   UNL     1       5.355  -0.587  26.206  0.00  0.00    +0.221 C 
ATOM     18  O   UNL     1       4.154  -0.414  26.105  0.00  0.00    -0.275 OA
ATOM     19  C   UNL     1       6.229  -1.174  25.141  0.00  0.00    +0.126 C 
ATOM     20  C   UNL     1      10.148   1.289  23.053  0.00  0.00    +0.039 A 
ENDROOT
BRANCH   7  21
ATOM     21  C   UNL     1       8.615  -4.474  24.497  0.00  0.00    +0.154 C 
BRANCH  21  22
ATOM     22  C   UNL     1       7.177  -4.801  24.133  0.00  0.00    +0.006 A 
ATOM     23  C   UNL     1       6.365  -5.519  25.016  0.00  0.00    +0.129 A 
ATOM     24  F   UNL     1       6.889  -6.017  26.145  0.00  0.00    -0.205 F 
ATOM     25  C   UNL     1       5.002  -5.691  24.785  0.00  0.00    +0.054 A 
ATOM     26  C   UNL     1       4.435  -5.134  23.644  0.00  0.00    +0.021 A 
ATOM     27 BR   UNL     1       2.570  -5.267  23.360  0.00  0.00    -0.050 Br
ATOM     28  C   UNL     1       5.226  -4.444  22.726  0.00  0.00    +0.016 A 
ATOM     29  C   UNL     1       6.593  -4.281  22.968  0.00  0.00    +0.009 A 
ENDBRANCH  21  22
ENDBRANCH   7  21
TORSDOF 2
ENDMDL
MODEL 5
REMARK VINA RESULT:      -7.3      2.261      2.672
REMARK  Name = 
REMARK  2 active torsions:
REMARK  status: ('A' for Active; 'I' for Inactive)
REMARK    1  A    between atoms: N_8  and  C_9
REMARK    2  A    between atoms: C_9  and  C_10
REMARK                            x       y       z     vdW  Elec       q    Type
REMARK                         _______ _______ _______ _____ _____    ______ ____
ROOT
ATOM      1  F   UNL     1       6.548   4.911  24.916  0.00  0.00    -0.205 F 
ATOM      2  C   UNL     1       7.379   3.862  24.866  0.00  0.00    +0.124 A 
ATOM      3  C   UNL     1       7.005   2.666  25.472  0.00  0.00    +0.044 A 
ATOM      4  C   UNL     1       7.840   1.533  25.389  0.00  0.00    -0.008 A 
ATOM      5  C   UNL     1       9.045   1.645  24.678  0.00  0.00    +0.042 A 
ATOM      6  C   UNL     1       9.874   0.443  24.408  0.00  0.00    +0.253 C 
ATOM      7  N   UNL     1       9.359  -0.771  24.838  0.00  0.00    -0.233 N 
ATOM      8  C   UNL     1       8.554  -0.835  25.963  0.00  0.00    +0.242 C 
ATOM      9  O   UNL     1       8.647  -1.723  26.807  0.00  0.00    -0.274 OA
ATOM     10  O   UNL     1      10.938   0.562  23.809  0.00  0.00    -0.270 OA
ATOM     11  C   UNL     1       9.427   2.868  24.105  0.00  0.00    +0.016 A 
ATOM     12  C   UNL     1       7.434   0.197  25.992  0.00  0.00    +0.157 C 
ATOM     13  C   UNL     1       6.870   0.343  27.396  0.00  0.00    +0.239 C 
ATOM     14  O   UNL     1       7.414   0.903  28.335  0.00  0.00    -0.274 OA
ATOM     15  N   UNL     1       5.618  -0.175  27.427  0.00  0.00    -0.255 N 
ATOM     16  H   UNL     1       5.035  -0.155  28.254  0.00  0.00    +0.158 HD
ATOM     17  C   UNL     1       5.166  -0.565  26.216  0.00  0.00    +0.221 C 
ATOM     18  O   UNL     1       4.036  -0.949  25.972  0.00  0.00    -0.275 OA
ATOM     19  C   UNL     1       6.260  -0.421  25.203  0.00  0.00    +0.126 C 
ATOM     20  C   UNL     1       8.587   3.977  24.194  0.00  0.00    +0.039 A 
ENDROOT
BRANCH   7  21
ATOM     21  C   UNL     1       9.967  -1.999  24.332  0.00  0.00    +0.154 C 
BRANCH  21  22
ATOM     22  C   UNL     1       8.875  -2.886  23.760  0.00  0.00    +0.006 A 
ATOM     23  C   UNL     1       8.154  -2.487  22.630  0.00  0.00    +0.129 A 
ATOM     24  F   UNL     1       8.352  -1.267  22.112  0.00  0.00    -0.205 F 
ATOM     25  C   UNL     1       7.266  -3.345  21.986  0.00  0.00    +0.054 A 
ATOM     26  C   UNL     1       7.090  -4.633  22.482  0.00  0.00    +0.021 A 
ATOM     27 BR   UNL     1       5.968  -5.848  21.567  0.00  0.00    -0.050 Br
ATOM     28  C   UNL     1       7.767  -5.047  23.629  0.00  0.00    +0.016 A 
ATOM     29  C   UNL     1       8.654  -4.176  24.268  0.00  0.00    +0.009 A 
ENDBRANCH  21  22
ENDBRANCH   7  21
TORSDOF 2
ENDMDL
MODEL 6
REMARK VINA RESULT:      -7.3      3.343      6.395
REMARK  Name = 
REMARK  2 active torsions:
REMARK  status: ('A' for Active; 'I' for Inactive)
REMARK    1  A    between atoms: N_8  and  C_9
REMARK    2  A    between atoms: C_9  and  C_10
REMARK                            x       y       z     vdW  Elec       q    Type
REMARK                         _______ _______ _______ _____ _____    ______ ____
ROOT
ATOM      1  F   UNL     1       7.749  -6.017  27.860  0.00  0.00    -0.205 F 
ATOM      2  C   UNL     1       7.966  -5.329  26.732  0.00  0.00    +0.124 A 
ATOM      3  C   UNL     1       6.886  -4.996  25.917  0.00  0.00    +0.044 A 
ATOM      4  C   UNL     1       7.083  -4.228  24.751  0.00  0.00    -0.008 A 
ATOM      5  C   UNL     1       8.386  -3.807  24.445  0.00  0.00    +0.042 A 
ATOM      6  C   UNL     1       8.625  -2.850  23.334  0.00  0.00    +0.253 C 
ATOM      7  N   UNL     1       7.501  -2.369  22.681  0.00  0.00    -0.233 N 
ATOM      8  C   UNL     1       6.364  -3.151  22.568  0.00  0.00    +0.242 C 
ATOM      9  O   UNL     1       5.692  -3.218  21.541  0.00  0.00    -0.274 OA
ATOM     10  O   UNL     1       9.773  -2.512  23.061  0.00  0.00    -0.270 OA
ATOM     11  C   UNL     1       9.470  -4.180  25.255  0.00  0.00    +0.016 A 
ATOM     12  C   UNL     1       5.918  -3.802  23.871  0.00  0.00    +0.157 C 
ATOM     13  C   UNL     1       4.949  -4.942  23.602  0.00  0.00    +0.239 C 
ATOM     14  O   UNL     1       5.236  -6.039  23.148  0.00  0.00    -0.274 OA
ATOM     15  N   UNL     1       3.713  -4.582  24.026  0.00  0.00    -0.255 N 
ATOM     16  H   UNL     1       2.914  -5.201  23.979  0.00  0.00    +0.158 HD
ATOM     17  C   UNL     1       3.687  -3.392  24.664  0.00  0.00    +0.221 C 
ATOM     18  O   UNL     1       2.722  -2.916  25.235  0.00  0.00    -0.275 OA
ATOM     19  C   UNL     1       5.043  -2.758  24.596  0.00  0.00    +0.126 C 
ATOM     20  C   UNL     1       9.256  -4.938  26.405  0.00  0.00    +0.039 A 
ENDROOT
BRANCH   7  21
ATOM     21  C   UNL     1       7.652  -1.209  21.806  0.00  0.00    +0.154 C 
BRANCH  21  22
ATOM     22  C   UNL     1       7.898   0.021  22.662  0.00  0.00    +0.006 A 
ATOM     23  C   UNL     1       8.995   0.853  22.414  0.00  0.00    +0.129 A 
ATOM     24  F   UNL     1       9.896   0.504  21.485  0.00  0.00    -0.205 F 
ATOM     25  C   UNL     1       9.155   2.071  23.070  0.00  0.00    +0.054 A 
ATOM     26  C   UNL     1       8.199   2.469  23.999  0.00  0.00    +0.021 A 
ATOM     27 BR   UNL     1       8.341   4.162  24.827  0.00  0.00    -0.050 Br
ATOM     28  C   UNL     1       7.114   1.645  24.295  0.00  0.00    +0.016 A 
ATOM     29  C   UNL     1       6.965   0.423  23.631  0.00  0.00    +0.009 A 
ENDBRANCH  21  22
ENDBRANCH   7  21
TORSDOF 2
ENDMDL
MODEL 7
REMARK VINA RESULT:      -7.2      3.728      6.778
REMARK  Name = 
REMARK  2 active torsions:
REMARK  status: ('A' for Active; 'I' for Inactive)
REMARK    1  A    between atoms: N_8  and  C_9
REMARK    2  A    between atoms: C_9  and  C_10
REMARK                            x       y       z     vdW  Elec       q    Type
REMARK                         _______ _______ _______ _____ _____    ______ ____
ROOT
ATOM      1  F   UNL     1       5.381  -6.182  29.127  0.00  0.00    -0.205 F 
ATOM      2  C   UNL     1       5.926  -5.889  27.940  0.00  0.00    +0.124 A 
ATOM      3  C   UNL     1       5.104  -5.773  26.822  0.00  0.00    +0.044 A 
ATOM      4  C   UNL     1       5.648  -5.414  25.571  0.00  0.00    -0.008 A 
ATOM      5  C   UNL     1       7.027  -5.173  25.491  0.00  0.00    +0.042 A 
ATOM      6  C   UNL     1       7.623  -4.620  24.247  0.00  0.00    +0.253 C 
ATOM      7  N   UNL     1       6.739  -4.310  23.225  0.00  0.00    -0.233 N 
ATOM      8  C   UNL     1       5.569  -5.032  23.063  0.00  0.00    +0.242 C 
ATOM      9  O   UNL     1       5.139  -5.380  21.965  0.00  0.00    -0.274 OA
ATOM     10  O   UNL     1       8.836  -4.441  24.183  0.00  0.00    -0.270 OA
ATOM     11  C   UNL     1       7.850  -5.330  26.618  0.00  0.00    +0.016 A 
ATOM     12  C   UNL     1       4.769  -5.225  24.344  0.00  0.00    +0.157 C 
ATOM     13  C   UNL     1       3.751  -6.342  24.184  0.00  0.00    +0.239 C 
ATOM     14  O   UNL     1       3.995  -7.539  24.152  0.00  0.00    -0.274 OA
ATOM     15  N   UNL     1       2.506  -5.809  24.164  0.00  0.00    -0.255 N 
ATOM     16  H   UNL     1       1.667  -6.372  24.100  0.00  0.00    +0.158 HD
ATOM     17  C   UNL     1       2.485  -4.480  24.404  0.00  0.00    +0.221 C 
ATOM     18  O   UNL     1       1.483  -3.804  24.554  0.00  0.00    -0.275 OA
ATOM     19  C   UNL     1       3.889  -3.965  24.495  0.00  0.00    +0.126 C 
ATOM     20  C   UNL     1       7.295  -5.683  27.847  0.00  0.00    +0.039 A 
ENDROOT
BRANCH   7  21
ATOM     21  C   UNL     1       7.222  -3.487  22.118  0.00  0.00    +0.154 C 
BRANCH  21  22
ATOM     22  C   UNL     1       7.438  -2.071  22.620  0.00  0.00    +0.006 A 
ATOM     23  C   UNL     1       8.572  -1.346  22.240  0.00  0.00    +0.129 A 
ATOM     24  F   UNL     1       9.529  -1.942  21.515  0.00  0.00    -0.205 F 
ATOM     25  C   UNL     1       8.717   0.005  22.548  0.00  0.00    +0.054 A 
ATOM     26  C   UNL     1       7.706   0.650  23.253  0.00  0.00    +0.021 A 
ATOM     27 BR   UNL     1       7.833   2.505  23.594  0.00  0.00    -0.050 Br
ATOM     28  C   UNL     1       6.580  -0.055  23.679  0.00  0.00    +0.016 A 
ATOM     29  C   UNL     1       6.448  -1.411  23.366  0.00  0.00    +0.009 A 
ENDBRANCH  21  22
ENDBRANCH   7  21
TORSDOF 2
ENDMDL
MODEL 8
REMARK VINA RESULT:      -7.2      2.971      5.740
REMARK  Name = 
REMARK  2 active torsions:
REMARK  status: ('A' for Active; 'I' for Inactive)
REMARK    1  A    between atoms: N_8  and  C_9
REMARK    2  A    between atoms: C_9  and  C_10
REMARK                            x       y       z     vdW  Elec       q    Type
REMARK                         _______ _______ _______ _____ _____    ______ ____
ROOT
ATOM      1  F   UNL     1       6.412  -4.729  20.982  0.00  0.00    -0.205 F 
ATOM      2  C   UNL     1       6.846  -4.234  22.148  0.00  0.00    +0.124 A 
ATOM      3  C   UNL     1       7.574  -3.047  22.156  0.00  0.00    +0.044 A 
ATOM      4  C   UNL     1       7.999  -2.480  23.376  0.00  0.00    -0.008 A 
ATOM      5  C   UNL     1       7.662  -3.138  24.568  0.00  0.00    +0.042 A 
ATOM      6  C   UNL     1       7.925  -2.496  25.882  0.00  0.00    +0.253 C 
ATOM      7  N   UNL     1       8.454  -1.215  25.847  0.00  0.00    -0.233 N 
ATOM      8  C   UNL     1       9.281  -0.822  24.808  0.00  0.00    +0.242 C 
ATOM      9  O   UNL     1      10.296  -0.149  24.974  0.00  0.00    -0.274 OA
ATOM     10  O   UNL     1       7.649  -3.096  26.916  0.00  0.00    -0.270 OA
ATOM     11  C   UNL     1       6.959  -4.353  24.543  0.00  0.00    +0.016 A 
ATOM     12  C   UNL     1       8.748  -1.157  23.421  0.00  0.00    +0.157 C 
ATOM     13  C   UNL     1       9.855  -1.082  22.384  0.00  0.00    +0.239 C 
ATOM     14  O   UNL     1      10.758  -1.892  22.235  0.00  0.00    -0.274 OA
ATOM     15  N   UNL     1       9.640  -0.011  21.582  0.00  0.00    -0.255 N 
ATOM     16  H   UNL     1      10.236   0.215  20.795  0.00  0.00    +0.158 HD
ATOM     17  C   UNL     1       8.473   0.622  21.829  0.00  0.00    +0.221 C 
ATOM     18  O   UNL     1       8.007   1.531  21.166  0.00  0.00    -0.275 OA
ATOM     19  C   UNL     1       7.815   0.009  23.027  0.00  0.00    +0.126 C 
ATOM     20  C   UNL     1       6.545  -4.898  23.328  0.00  0.00    +0.039 A 
ENDROOT
BRANCH   7  21
ATOM     21  C   UNL     1       8.441  -0.427  27.078  0.00  0.00    +0.154 C 
BRANCH  21  22
ATOM     22  C   UNL     1       7.194   0.439  27.091  0.00  0.00    +0.006 A 
ATOM     23  C   UNL     1       7.149   1.633  26.365  0.00  0.00    +0.129 A 
ATOM     24  F   UNL     1       8.250   2.073  25.740  0.00  0.00    -0.205 F 
ATOM     25  C   UNL     1       5.970   2.362  26.224  0.00  0.00    +0.054 A 
ATOM     26  C   UNL     1       4.807   1.890  26.823  0.00  0.00    +0.021 A 
ATOM     27 BR   UNL     1       3.175   2.807  26.561  0.00  0.00    -0.050 Br
ATOM     28  C   UNL     1       4.829   0.722  27.584  0.00  0.00    +0.016 A 
ATOM     29  C   UNL     1       6.018   0.000  27.720  0.00  0.00    +0.009 A 
ENDBRANCH  21  22
ENDBRANCH   7  21
TORSDOF 2
ENDMDL
MODEL 9
REMARK VINA RESULT:      -7.2      3.476      5.042
REMARK  Name = 
REMARK  2 active torsions:
REMARK  status: ('A' for Active; 'I' for Inactive)
REMARK    1  A    between atoms: N_8  and  C_9
REMARK    2  A    between atoms: C_9  and  C_10
REMARK                            x       y       z     vdW  Elec       q    Type
REMARK                         _______ _______ _______ _____ _____    ______ ____
ROOT
ATOM      1  F   UNL     1       9.816  -0.359  25.830  0.00  0.00    -0.205 F 
ATOM      2  C   UNL     1       8.960  -1.052  25.069  0.00  0.00    +0.124 A 
ATOM      3  C   UNL     1       8.609  -2.347  25.445  0.00  0.00    +0.044 A 
ATOM      4  C   UNL     1       7.671  -3.079  24.688  0.00  0.00    -0.008 A 
ATOM      5  C   UNL     1       7.101  -2.465  23.562  0.00  0.00    +0.042 A 
ATOM      6  C   UNL     1       5.980  -3.117  22.837  0.00  0.00    +0.253 C 
ATOM      7  N   UNL     1       5.510  -4.307  23.371  0.00  0.00    -0.233 N 
ATOM      8  C   UNL     1       6.362  -5.159  24.053  0.00  0.00    +0.242 C 
ATOM      9  O   UNL     1       6.340  -6.381  23.921  0.00  0.00    -0.274 OA
ATOM     10  O   UNL     1       5.511  -2.581  21.838  0.00  0.00    -0.270 OA
ATOM     11  C   UNL     1       7.491  -1.174  23.174  0.00  0.00    +0.016 A 
ATOM     12  C   UNL     1       7.226  -4.473  25.103  0.00  0.00    +0.157 C 
ATOM     13  C   UNL     1       8.394  -5.358  25.504  0.00  0.00    +0.239 C 
ATOM     14  O   UNL     1       9.388  -5.586  24.832  0.00  0.00    -0.274 OA
ATOM     15  N   UNL     1       8.204  -5.795  26.773  0.00  0.00    -0.255 N 
ATOM     16  H   UNL     1       8.876  -6.372  27.262  0.00  0.00    +0.158 HD
ATOM     17  C   UNL     1       7.123  -5.253  27.374  0.00  0.00    +0.221 C 
ATOM     18  O   UNL     1       6.815  -5.398  28.543  0.00  0.00    -0.275 OA
ATOM     19  C   UNL     1       6.372  -4.411  26.388  0.00  0.00    +0.126 C 
ATOM     20  C   UNL     1       8.419  -0.464  23.935  0.00  0.00    +0.039 A 
ENDROOT
BRANCH   7  21
ATOM     21  C   UNL     1       4.229  -4.822  22.891  0.00  0.00    +0.154 C 
BRANCH  21  22
ATOM     22  C   UNL     1       3.271  -4.923  24.065  0.00  0.00    +0.006 A 
ATOM     23  C   UNL     1       2.761  -6.163  24.463  0.00  0.00    +0.129 A 
ATOM     24  F   UNL     1       3.032  -7.257  23.737  0.00  0.00    -0.205 F 
ATOM     25  C   UNL     1       2.016  -6.309  25.631  0.00  0.00    +0.054 A 
ATOM     26  C   UNL     1       1.773  -5.190  26.422  0.00  0.00    +0.021 A 
ATOM     27 BR   UNL     1       0.852  -5.381  28.062  0.00  0.00    -0.050 Br
ATOM     28  C   UNL     1       2.236  -3.934  26.032  0.00  0.00    +0.016 A 
ATOM     29  C   UNL     1       2.981  -3.800  24.856  0.00  0.00    +0.009 A 
ENDBRANCH  21  22
ENDBRANCH   7  21
TORSDOF 2
ENDMDL
