MODEL 1
REMARK VINA RESULT:      -5.2      0.000      0.000
REMARK  Name = 
REMARK  4 active torsions:
REMARK  status: ('A' for Active; 'I' for Inactive)
REMARK    1  A    between atoms: O_1  and  C_2
REMARK    2  A    between atoms: C_2  and  C_4
REMARK    3  A    between atoms: C_4  and  C_5
REMARK    4  A    between atoms: C_8  and  N_11
REMARK                            x       y       z     vdW  Elec       q    Type
REMARK                         _______ _______ _______ _____ _____    ______ ____
ROOT
ATOM      1  C   UNL     1      10.563   2.187  23.282  0.00  0.00    -0.036 A 
ATOM      2  C   UNL     1      10.044   1.708  22.069  0.00  0.00    +0.011 A 
ATOM      3  C   UNL     1       9.715   0.358  21.924  0.00  0.00    +0.084 A 
ATOM      4  C   UNL     1       9.905  -0.520  22.998  0.00  0.00    +0.273 A 
ATOM      5  C   UNL     1      10.418  -0.053  24.215  0.00  0.00    +0.084 A 
ATOM      6  C   UNL     1      10.746   1.297  24.352  0.00  0.00    +0.011 A 
ENDROOT
BRANCH   4   7
ATOM      7  N   UNL     1       9.576  -1.943  22.844  0.00  0.00    +0.080 N 
ATOM      8  O   UNL     1      10.209  -2.758  23.530  0.00  0.00    +0.041 OA
ATOM      9  O   UNL     1       8.678  -2.242  22.045  0.00  0.00    -0.576 OA
ENDBRANCH   4   7
BRANCH   1  10
ATOM     10  C   UNL     1      10.973   3.636  23.417  0.00  0.00    +0.155 C 
BRANCH  10  11
ATOM     11  C   UNL     1       9.877   4.620  23.775  0.00  0.00    +0.309 C 
ATOM     12  O   UNL     1       9.070   4.393  24.668  0.00  0.00    -0.251 OA
BRANCH  11  13
ATOM     13  O   UNL     1       9.820   5.763  23.061  0.00  0.00    -0.480 OA
ATOM     14  H   UNL     1       9.349   6.504  23.487  0.00  0.00    +0.295 HD
ENDBRANCH  11  13
ENDBRANCH  10  11
ENDBRANCH   1  10
TORSDOF 4
ENDMDL
MODEL 2
REMARK VINA RESULT:      -5.2      2.089      5.406
REMARK  Name = 
REMARK  4 active torsions:
REMARK  status: ('A' for Active; 'I' for Inactive)
REMARK    1  A    between atoms: O_1  and  C_2
REMARK    2  A    between atoms: C_2  and  C_4
REMARK    3  A    between atoms: C_4  and  C_5
REMARK    4  A    between atoms: C_8  and  N_11
REMARK                            x       y       z     vdW  Elec       q    Type
REMARK                         _______ _______ _______ _____ _____    ______ ____
ROOT
ATOM      1  C   UNL     1       9.960  -0.439  22.736  0.00  0.00    -0.036 A 
ATOM      2  C   UNL     1       9.693   0.523  21.750  0.00  0.00    +0.011 A 
ATOM      3  C   UNL     1       9.957   1.874  21.990  0.00  0.00    +0.084 A 
ATOM      4  C   UNL     1      10.492   2.266  23.223  0.00  0.00    +0.273 A 
ATOM      5  C   UNL     1      10.767   1.315  24.213  0.00  0.00    +0.084 A 
ATOM      6  C   UNL     1      10.499  -0.033  23.966  0.00  0.00    +0.011 A 
ENDROOT
BRANCH   4   7
ATOM      7  N   UNL     1      10.755   3.687  23.484  0.00  0.00    +0.080 N 
ATOM      8  O   UNL     1      11.922   4.086  23.371  0.00  0.00    +0.041 OA
ATOM      9  O   UNL     1       9.792   4.403  23.793  0.00  0.00    -0.576 OA
ENDBRANCH   4   7
BRANCH   1  10
ATOM     10  C   UNL     1       9.619  -1.893  22.496  0.00  0.00    +0.155 C 
BRANCH  10  11
ATOM     11  C   UNL     1       9.256  -2.715  23.716  0.00  0.00    +0.309 C 
ATOM     12  O   UNL     1      10.034  -3.525  24.206  0.00  0.00    -0.251 OA
BRANCH  11  13
ATOM     13  O   UNL     1       8.030  -2.522  24.244  0.00  0.00    -0.480 OA
ATOM     14  H   UNL     1       7.460  -3.313  24.287  0.00  0.00    +0.295 HD
ENDBRANCH  11  13
ENDBRANCH  10  11
ENDBRANCH   1  10
TORSDOF 4
ENDMDL
MODEL 3
REMARK VINA RESULT:      -5.1      2.837      3.735
REMARK  Name = 
REMARK  4 active torsions:
REMARK  status: ('A' for Active; 'I' for Inactive)
REMARK    1  A    between atoms: O_1  and  C_2
REMARK    2  A    between atoms: C_2  and  C_4
REMARK    3  A    between atoms: C_4  and  C_5
REMARK    4  A    between atoms: C_8  and  N_11
REMARK                            x       y       z     vdW  Elec       q    Type
REMARK                         _______ _______ _______ _____ _____    ______ ____
ROOT
ATOM      1  C   UNL     1       9.175  -1.275  22.284  0.00  0.00    -0.036 A 
ATOM      2  C   UNL     1       7.988  -2.007  22.127  0.00  0.00    +0.011 A 
ATOM      3  C   UNL     1       7.752  -3.145  22.902  0.00  0.00    +0.084 A 
ATOM      4  C   UNL     1       8.707  -3.555  23.840  0.00  0.00    +0.273 A 
ATOM      5  C   UNL     1       9.894  -2.830  24.009  0.00  0.00    +0.084 A 
ATOM      6  C   UNL     1      10.123  -1.694  23.230  0.00  0.00    +0.011 A 
ENDROOT
BRANCH   4   7
ATOM      7  N   UNL     1       8.470  -4.760  24.645  0.00  0.00    +0.080 N 
ATOM      8  O   UNL     1       9.403  -5.566  24.763  0.00  0.00    +0.041 OA
ATOM      9  O   UNL     1       7.354  -4.893  25.166  0.00  0.00    -0.576 OA
ENDBRANCH   4   7
BRANCH   1  10
ATOM     10  C   UNL     1       9.454  -0.077  21.403  0.00  0.00    +0.155 C 
BRANCH  10  11
ATOM     11  C   UNL     1       9.390   1.283  22.068  0.00  0.00    +0.309 C 
ATOM     12  O   UNL     1       8.657   1.502  23.025  0.00  0.00    -0.251 OA
BRANCH  11  13
ATOM     13  O   UNL     1      10.177   2.254  21.559  0.00  0.00    -0.480 OA
ATOM     14  H   UNL     1      10.788   2.677  22.191  0.00  0.00    +0.295 HD
ENDBRANCH  11  13
ENDBRANCH  10  11
ENDBRANCH   1  10
TORSDOF 4
ENDMDL
MODEL 4
REMARK VINA RESULT:      -4.9      2.129      2.641
REMARK  Name = 
REMARK  4 active torsions:
REMARK  status: ('A' for Active; 'I' for Inactive)
REMARK    1  A    between atoms: O_1  and  C_2
REMARK    2  A    between atoms: C_2  and  C_4
REMARK    3  A    between atoms: C_4  and  C_5
REMARK    4  A    between atoms: C_8  and  N_11
REMARK                            x       y       z     vdW  Elec       q    Type
REMARK                         _______ _______ _______ _____ _____    ______ ____
ROOT
ATOM      1  C   UNL     1      10.081   0.135  24.084  0.00  0.00    -0.036 A 
ATOM      2  C   UNL     1      10.416  -0.821  23.113  0.00  0.00    +0.011 A 
ATOM      3  C   UNL     1      10.031  -2.155  23.271  0.00  0.00    +0.084 A 
ATOM      4  C   UNL     1       9.307  -2.536  24.408  0.00  0.00    +0.273 A 
ATOM      5  C   UNL     1       8.963  -1.590  25.381  0.00  0.00    +0.084 A 
ATOM      6  C   UNL     1       9.352  -0.259  25.216  0.00  0.00    +0.011 A 
ENDROOT
BRANCH   4   7
ATOM      7  N   UNL     1       8.916  -3.940  24.586  0.00  0.00    +0.080 N 
ATOM      8  O   UNL     1       9.819  -4.779  24.704  0.00  0.00    +0.041 OA
ATOM      9  O   UNL     1       7.705  -4.200  24.618  0.00  0.00    -0.576 OA
ENDBRANCH   4   7
BRANCH   1  10
ATOM     10  C   UNL     1      10.549   1.566  23.938  0.00  0.00    +0.155 C 
BRANCH  10  11
ATOM     11  C   UNL     1       9.825   2.415  22.913  0.00  0.00    +0.309 C 
ATOM     12  O   UNL     1       8.862   3.111  23.212  0.00  0.00    -0.251 OA
BRANCH  11  13
ATOM     13  O   UNL     1      10.282   2.369  21.645  0.00  0.00    -0.480 OA
ATOM     14  H   UNL     1       9.709   1.906  21.006  0.00  0.00    +0.295 HD
ENDBRANCH  11  13
ENDBRANCH  10  11
ENDBRANCH   1  10
TORSDOF 4
ENDMDL
MODEL 5
REMARK VINA RESULT:      -4.9      2.053      5.617
REMARK  Name = 
REMARK  4 active torsions:
REMARK  status: ('A' for Active; 'I' for Inactive)
REMARK    1  A    between atoms: O_1  and  C_2
REMARK    2  A    between atoms: C_2  and  C_4
REMARK    3  A    between atoms: C_4  and  C_5
REMARK    4  A    between atoms: C_8  and  N_11
REMARK                            x       y       z     vdW  Elec       q    Type
REMARK                         _______ _______ _______ _____ _____    ______ ____
ROOT
ATOM      1  C   UNL     1      10.024  -0.460  22.825  0.00  0.00    -0.036 A 
ATOM      2  C   UNL     1      10.479  -0.010  24.075  0.00  0.00    +0.011 A 
ATOM      3  C   UNL     1      10.688   1.353  24.302  0.00  0.00    +0.084 A 
ATOM      4  C   UNL     1      10.441   2.272  23.275  0.00  0.00    +0.273 A 
ATOM      5  C   UNL     1       9.983   1.835  22.025  0.00  0.00    +0.084 A 
ATOM      6  C   UNL     1       9.778   0.471  21.805  0.00  0.00    +0.011 A 
ENDROOT
BRANCH   4   7
ATOM      7  N   UNL     1      10.676   3.703  23.505  0.00  0.00    +0.080 N 
ATOM      8  O   UNL     1       9.710   4.396  23.854  0.00  0.00    +0.041 OA
ATOM      9  O   UNL     1      11.828   4.130  23.345  0.00  0.00    -0.576 OA
ENDBRANCH   4   7
BRANCH   1  10
ATOM     10  C   UNL     1       9.855  -1.940  22.564  0.00  0.00    +0.155 C 
BRANCH  10  11
ATOM     11  C   UNL     1       8.510  -2.541  22.919  0.00  0.00    +0.309 C 
ATOM     12  O   UNL     1       7.508  -2.329  22.247  0.00  0.00    -0.251 OA
BRANCH  11  13
ATOM     13  O   UNL     1       8.457  -3.322  24.018  0.00  0.00    -0.480 OA
ATOM     14  H   UNL     1       7.779  -4.023  24.005  0.00  0.00    +0.295 HD
ENDBRANCH  11  13
ENDBRANCH  10  11
ENDBRANCH   1  10
TORSDOF 4
ENDMDL
MODEL 6
REMARK VINA RESULT:      -4.8      2.978      3.986
REMARK  Name = 
REMARK  4 active torsions:
REMARK  status: ('A' for Active; 'I' for Inactive)
REMARK    1  A    between atoms: O_1  and  C_2
REMARK    2  A    between atoms: C_2  and  C_4
REMARK    3  A    between atoms: C_4  and  C_5
REMARK    4  A    between atoms: C_8  and  N_11
REMARK                            x       y       z     vdW  Elec       q    Type
REMARK                         _______ _______ _______ _____ _____    ______ ____
ROOT
ATOM      1  C   UNL     1      10.946   4.677  23.646  0.00  0.00    -0.036 A 
ATOM      2  C   UNL     1      11.177   3.330  23.325  0.00  0.00    +0.011 A 
ATOM      3  C   UNL     1      10.122   2.415  23.315  0.00  0.00    +0.084 A 
ATOM      4  C   UNL     1       8.827   2.847  23.627  0.00  0.00    +0.273 A 
ATOM      5  C   UNL     1       8.583   4.189  23.944  0.00  0.00    +0.084 A 
ATOM      6  C   UNL     1       9.643   5.098  23.953  0.00  0.00    +0.011 A 
ENDROOT
BRANCH   4   7
ATOM      7  N   UNL     1       7.718   1.884  23.633  0.00  0.00    +0.080 N 
ATOM      8  O   UNL     1       7.087   1.726  22.579  0.00  0.00    +0.041 OA
ATOM      9  O   UNL     1       7.488   1.279  24.689  0.00  0.00    -0.576 OA
ENDBRANCH   4   7
BRANCH   1  10
ATOM     10  C   UNL     1      12.099   5.654  23.714  0.00  0.00    +0.155 C 
BRANCH  10  11
ATOM     11  C   UNL     1      13.245   5.417  22.751  0.00  0.00    +0.309 C 
ATOM     12  O   UNL     1      13.120   5.579  21.543  0.00  0.00    -0.251 OA
BRANCH  11  13
ATOM     13  O   UNL     1      14.418   5.010  23.280  0.00  0.00    -0.480 OA
ATOM     14  H   UNL     1      14.954   4.423  22.715  0.00  0.00    +0.295 HD
ENDBRANCH  11  13
ENDBRANCH  10  11
ENDBRANCH   1  10
TORSDOF 4
ENDMDL
MODEL 7
REMARK VINA RESULT:      -4.8      3.324      6.255
REMARK  Name = 
REMARK  4 active torsions:
REMARK  status: ('A' for Active; 'I' for Inactive)
REMARK    1  A    between atoms: O_1  and  C_2
REMARK    2  A    between atoms: C_2  and  C_4
REMARK    3  A    between atoms: C_4  and  C_5
REMARK    4  A    between atoms: C_8  and  N_11
REMARK                            x       y       z     vdW  Elec       q    Type
REMARK                         _______ _______ _______ _____ _____    ______ ____
ROOT
ATOM      1  C   UNL     1       8.709  -3.092  23.741  0.00  0.00    -0.036 A 
ATOM      2  C   UNL     1       7.639  -2.358  23.207  0.00  0.00    +0.011 A 
ATOM      3  C   UNL     1       7.852  -1.086  22.670  0.00  0.00    +0.084 A 
ATOM      4  C   UNL     1       9.143  -0.544  22.666  0.00  0.00    +0.273 A 
ATOM      5  C   UNL     1      10.219  -1.269  23.191  0.00  0.00    +0.084 A 
ATOM      6  C   UNL     1       9.999  -2.539  23.727  0.00  0.00    +0.011 A 
ENDROOT
BRANCH   4   7
ATOM      7  N   UNL     1       9.367   0.800  22.117  0.00  0.00    +0.080 N 
ATOM      8  O   UNL     1       8.645   1.167  21.180  0.00  0.00    +0.041 OA
ATOM      9  O   UNL     1      10.259   1.489  22.631  0.00  0.00    -0.576 OA
ENDBRANCH   4   7
BRANCH   1  10
ATOM     10  C   UNL     1       8.466  -4.445  24.374  0.00  0.00    +0.155 C 
BRANCH  10  11
ATOM     11  C   UNL     1       9.319  -4.793  25.577  0.00  0.00    +0.309 C 
ATOM     12  O   UNL     1       9.069  -4.362  26.696  0.00  0.00    -0.251 OA
BRANCH  11  13
ATOM     13  O   UNL     1      10.380  -5.600  25.365  0.00  0.00    -0.480 OA
ATOM     14  H   UNL     1      10.244  -6.312  24.713  0.00  0.00    +0.295 HD
ENDBRANCH  11  13
ENDBRANCH  10  11
ENDBRANCH   1  10
TORSDOF 4
ENDMDL
MODEL 8
REMARK VINA RESULT:      -4.7      2.170      2.709
REMARK  Name = 
REMARK  4 active torsions:
REMARK  status: ('A' for Active; 'I' for Inactive)
REMARK    1  A    between atoms: O_1  and  C_2
REMARK    2  A    between atoms: C_2  and  C_4
REMARK    3  A    between atoms: C_4  and  C_5
REMARK    4  A    between atoms: C_8  and  N_11
REMARK                            x       y       z     vdW  Elec       q    Type
REMARK                         _______ _______ _______ _____ _____    ______ ____
ROOT
ATOM      1  C   UNL     1       7.467   1.948  22.175  0.00  0.00    -0.036 A 
ATOM      2  C   UNL     1       6.908   0.927  22.959  0.00  0.00    +0.011 A 
ATOM      3  C   UNL     1       7.571  -0.294  23.107  0.00  0.00    +0.084 A 
ATOM      4  C   UNL     1       8.800  -0.496  22.468  0.00  0.00    +0.273 A 
ATOM      5  C   UNL     1       9.370   0.517  21.687  0.00  0.00    +0.084 A 
ATOM      6  C   UNL     1       8.701   1.734  21.543  0.00  0.00    +0.011 A 
ENDROOT
BRANCH   4   7
ATOM      7  N   UNL     1       9.492  -1.784  22.608  0.00  0.00    +0.080 N 
ATOM      8  O   UNL     1       8.840  -2.743  23.044  0.00  0.00    +0.041 OA
ATOM      9  O   UNL     1      10.683  -1.837  22.272  0.00  0.00    -0.576 OA
ENDBRANCH   4   7
BRANCH   1  10
ATOM     10  C   UNL     1       6.720   3.247  21.969  0.00  0.00    +0.155 C 
BRANCH  10  11
ATOM     11  C   UNL     1       7.420   4.511  22.425  0.00  0.00    +0.309 C 
ATOM     12  O   UNL     1       7.966   4.591  23.519  0.00  0.00    -0.251 OA
BRANCH  11  13
ATOM     13  O   UNL     1       7.415   5.558  21.573  0.00  0.00    -0.480 OA
ATOM     14  H   UNL     1       6.620   5.643  21.014  0.00  0.00    +0.295 HD
ENDBRANCH  11  13
ENDBRANCH  10  11
ENDBRANCH   1  10
TORSDOF 4
ENDMDL
MODEL 9
REMARK VINA RESULT:      -4.7      2.064      5.401
REMARK  Name = 
REMARK  4 active torsions:
REMARK  status: ('A' for Active; 'I' for Inactive)
REMARK    1  A    between atoms: O_1  and  C_2
REMARK    2  A    between atoms: C_2  and  C_4
REMARK    3  A    between atoms: C_4  and  C_5
REMARK    4  A    between atoms: C_8  and  N_11
REMARK                            x       y       z     vdW  Elec       q    Type
REMARK                         _______ _______ _______ _____ _____    ______ ____
ROOT
ATOM      1  C   UNL     1       9.973   0.007  22.663  0.00  0.00    -0.036 A 
ATOM      2  C   UNL     1       9.256   0.743  21.707  0.00  0.00    +0.011 A 
ATOM      3  C   UNL     1       8.887   2.066  21.964  0.00  0.00    +0.084 A 
ATOM      4  C   UNL     1       9.236   2.657  23.185  0.00  0.00    +0.273 A 
ATOM      5  C   UNL     1       9.955   1.934  24.144  0.00  0.00    +0.084 A 
ATOM      6  C   UNL     1      10.320   0.612  23.881  0.00  0.00    +0.011 A 
ENDROOT
BRANCH   4   7
ATOM      7  N   UNL     1       8.836   4.042  23.465  0.00  0.00    +0.080 N 
ATOM      8  O   UNL     1       9.399   4.626  24.401  0.00  0.00    +0.041 OA
ATOM      9  O   UNL     1       7.965   4.546  22.743  0.00  0.00    -0.576 OA
ENDBRANCH   4   7
BRANCH   1  10
ATOM     10  C   UNL     1      10.320  -1.443  22.406  0.00  0.00    +0.155 C 
BRANCH  10  11
ATOM     11  C   UNL     1       9.503  -2.478  23.151  0.00  0.00    +0.309 C 
ATOM     12  O   UNL     1       8.302  -2.620  22.953  0.00  0.00    -0.251 OA
BRANCH  11  13
ATOM     13  O   UNL     1      10.153  -3.242  24.053  0.00  0.00    -0.480 OA
ATOM     14  H   UNL     1       9.728  -4.092  24.271  0.00  0.00    +0.295 HD
ENDBRANCH  11  13
ENDBRANCH  10  11
ENDBRANCH   1  10
TORSDOF 4
ENDMDL
