MODEL 1
REMARK VINA RESULT:      -6.3      0.000      0.000
REMARK  Name = 
REMARK  12 active torsions:
REMARK  status: ('A' for Active; 'I' for Inactive)
REMARK    1  A    between atoms: C_1  and  C_2
REMARK    2  A    between atoms: C_2  and  C_3
REMARK    3  A    between atoms: C_4  and  C_5
REMARK    4  A    between atoms: C_6  and  C_7
REMARK    5  A    between atoms: C_11  and  C_12
REMARK    6  A    between atoms: C_11  and  C_13
REMARK    7  A    between atoms: C_14  and  C_15
REMARK    8  A    between atoms: C_16  and  C_17
REMARK    9  A    between atoms: C_17  and  C_18
REMARK   10  A    between atoms: C_19  and  C_20
REMARK   11  A    between atoms: N_22  and  C_23
REMARK   12  A    between atoms: C_26  and  O_27
REMARK                            x       y       z     vdW  Elec       q    Type
REMARK                         _______ _______ _______ _____ _____    ______ ____
ROOT
ATOM      1  C   UNL     1       6.811  -1.136  22.985  0.00  0.00    +0.001 C 
ATOM      2  C   UNL     1       6.498  -1.947  24.009  0.00  0.00    +0.003 C 
ENDROOT
BRANCH   1   5
ATOM      3  C   UNL     1       9.146  -0.194  21.471  0.00  0.00    +0.044 C 
ATOM      4  C   UNL     1       8.400   0.699  22.437  0.00  0.00    -0.050 C 
ATOM      5  C   UNL     1       7.329   0.220  23.113  0.00  0.00    +0.003 C 
BRANCH   4   6
ATOM      6  C   UNL     1       8.850   2.089  22.641  0.00  0.00    +0.003 C 
ATOM      7  C   UNL     1       8.884   2.767  23.805  0.00  0.00    +0.004 C 
BRANCH   7   8
ATOM      8  C   UNL     1       9.318   4.161  23.998  0.00  0.00    -0.043 C 
ATOM      9  C   UNL     1       8.246   5.120  24.563  0.00  0.00    -0.010 C 
ATOM     10  C   UNL     1       6.985   5.084  23.660  0.00  0.00    +0.016 C 
ATOM     11  C   UNL     1       7.829   4.684  25.992  0.00  0.00    +0.016 C 
ATOM     12  C   UNL     1       8.662   6.620  24.642  0.00  0.00    +0.011 C 
ATOM     13  C   UNL     1      10.134   6.980  24.571  0.00  0.00    +0.005 C 
ATOM     14  C   UNL     1      11.090   5.950  23.999  0.00  0.00    +0.031 C 
ATOM     15  C   UNL     1      10.592   4.549  23.769  0.00  0.00    -0.069 C 
ATOM     16  C   UNL     1      11.708   3.642  23.294  0.00  0.00    +0.039 C 
ENDBRANCH   7   8
ENDBRANCH   4   6
ENDBRANCH   1   5
BRANCH   2  17
ATOM     17  C   UNL     1       5.943  -3.287  23.831  0.00  0.00    -0.046 C 
ATOM     18  C   UNL     1       4.697  -3.492  23.342  0.00  0.00    +0.071 C 
ATOM     19  C   UNL     1       6.876  -4.404  24.241  0.00  0.00    +0.044 C 
BRANCH  18  20
ATOM     20  C   UNL     1       4.187  -4.869  23.063  0.00  0.00    +0.241 C 
ATOM     21  N   UNL     1       2.978  -5.166  23.671  0.00  0.00    -0.282 N 
ATOM     22  H   UNL     1       2.448  -4.416  24.089  0.00  0.00    +0.155 HD
ATOM     23  O   UNL     1       4.805  -5.614  22.317  0.00  0.00    -0.270 OA
BRANCH  21  24
ATOM     24  C   UNL     1       2.362  -6.445  23.627  0.00  0.00    +0.034 A 
ATOM     25  C   UNL     1       2.600  -7.348  24.662  0.00  0.00    +0.027 A 
ATOM     26  C   UNL     1       1.962  -8.600  24.670  0.00  0.00    +0.047 A 
ATOM     27  C   UNL     1       1.112  -8.955  23.629  0.00  0.00    +0.117 A 
ATOM     28  C   UNL     1       0.906  -8.091  22.567  0.00  0.00    +0.047 A 
ATOM     29  C   UNL     1       1.534  -6.844  22.567  0.00  0.00    +0.027 A 
BRANCH  27  30
ATOM     30  O   UNL     1       0.491 -10.167  23.683  0.00  0.00    -0.507 OA
ATOM     31  H   UNL     1       0.014 -10.305  22.844  0.00  0.00    +0.292 HD
ENDBRANCH  27  30
ENDBRANCH  21  24
ENDBRANCH  18  20
ENDBRANCH   2  17
TORSDOF 7
ENDMDL
MODEL 2
REMARK VINA RESULT:      -6.2      4.037     12.275
REMARK  Name = 
REMARK  12 active torsions:
REMARK  status: ('A' for Active; 'I' for Inactive)
REMARK    1  A    between atoms: C_1  and  C_2
REMARK    2  A    between atoms: C_2  and  C_3
REMARK    3  A    between atoms: C_4  and  C_5
REMARK    4  A    between atoms: C_6  and  C_7
REMARK    5  A    between atoms: C_11  and  C_12
REMARK    6  A    between atoms: C_11  and  C_13
REMARK    7  A    between atoms: C_14  and  C_15
REMARK    8  A    between atoms: C_16  and  C_17
REMARK    9  A    between atoms: C_17  and  C_18
REMARK   10  A    between atoms: C_19  and  C_20
REMARK   11  A    between atoms: N_22  and  C_23
REMARK   12  A    between atoms: C_26  and  O_27
REMARK                            x       y       z     vdW  Elec       q    Type
REMARK                         _______ _______ _______ _____ _____    ______ ____
ROOT
ATOM      1  C   UNL     1       6.792  -2.806  24.087  0.00  0.00    +0.001 C 
ATOM      2  C   UNL     1       6.456  -1.676  23.445  0.00  0.00    +0.003 C 
ENDROOT
BRANCH   1   5
ATOM      3  C   UNL     1       7.643  -5.135  25.664  0.00  0.00    +0.044 C 
ATOM      4  C   UNL     1       6.200  -4.918  25.265  0.00  0.00    -0.050 C 
ATOM      5  C   UNL     1       5.855  -3.829  24.538  0.00  0.00    +0.003 C 
BRANCH   4   6
ATOM      6  C   UNL     1       5.177  -5.900  25.668  0.00  0.00    +0.003 C 
ATOM      7  C   UNL     1       3.901  -5.644  26.016  0.00  0.00    +0.004 C 
BRANCH   7   8
ATOM      8  C   UNL     1       2.889  -6.629  26.434  0.00  0.00    -0.043 C 
ATOM      9  C   UNL     1       2.502  -6.592  27.930  0.00  0.00    -0.010 C 
ATOM     10  C   UNL     1       3.775  -6.747  28.803  0.00  0.00    +0.016 C 
ATOM     11  C   UNL     1       1.836  -5.238  28.284  0.00  0.00    +0.016 C 
ATOM     12  C   UNL     1       1.533  -7.719  28.401  0.00  0.00    +0.011 C 
ATOM     13  C   UNL     1       0.735  -8.485  27.362  0.00  0.00    +0.005 C 
ATOM     14  C   UNL     1       1.214  -8.439  25.923  0.00  0.00    +0.031 C 
ATOM     15  C   UNL     1       2.287  -7.452  25.548  0.00  0.00    -0.069 C 
ATOM     16  C   UNL     1       2.561  -7.481  24.059  0.00  0.00    +0.039 C 
ENDBRANCH   7   8
ENDBRANCH   4   6
ENDBRANCH   1   5
BRANCH   2  17
ATOM     17  C   UNL     1       7.428  -0.659  23.048  0.00  0.00    -0.046 C 
ATOM     18  C   UNL     1       7.114   0.656  22.995  0.00  0.00    +0.071 C 
ATOM     19  C   UNL     1       8.795  -1.208  22.705  0.00  0.00    +0.044 C 
BRANCH  18  20
ATOM     20  C   UNL     1       8.149   1.693  22.694  0.00  0.00    +0.241 C 
ATOM     21  N   UNL     1       8.780   2.212  23.812  0.00  0.00    -0.282 N 
ATOM     22  H   UNL     1       8.648   1.754  24.701  0.00  0.00    +0.155 HD
ATOM     23  O   UNL     1       8.407   1.986  21.536  0.00  0.00    -0.270 OA
BRANCH  21  24
ATOM     24  C   UNL     1       9.718   3.278  23.768  0.00  0.00    +0.034 A 
ATOM     25  C   UNL     1       9.321   4.548  24.183  0.00  0.00    +0.027 A 
ATOM     26  C   UNL     1      10.244   5.608  24.200  0.00  0.00    +0.047 A 
ATOM     27  C   UNL     1      11.551   5.401  23.773  0.00  0.00    +0.117 A 
ATOM     28  C   UNL     1      11.947   4.159  23.309  0.00  0.00    +0.047 A 
ATOM     29  C   UNL     1      11.030   3.105  23.302  0.00  0.00    +0.027 A 
BRANCH  27  30
ATOM     30  O   UNL     1      12.425   6.445  23.827  0.00  0.00    -0.507 OA
ATOM     31  H   UNL     1      12.515   6.722  24.757  0.00  0.00    +0.292 HD
ENDBRANCH  27  30
ENDBRANCH  21  24
ENDBRANCH  18  20
ENDBRANCH   2  17
TORSDOF 7
ENDMDL
MODEL 3
REMARK VINA RESULT:      -6.0      4.008     12.272
REMARK  Name = 
REMARK  12 active torsions:
REMARK  status: ('A' for Active; 'I' for Inactive)
REMARK    1  A    between atoms: C_1  and  C_2
REMARK    2  A    between atoms: C_2  and  C_3
REMARK    3  A    between atoms: C_4  and  C_5
REMARK    4  A    between atoms: C_6  and  C_7
REMARK    5  A    between atoms: C_11  and  C_12
REMARK    6  A    between atoms: C_11  and  C_13
REMARK    7  A    between atoms: C_14  and  C_15
REMARK    8  A    between atoms: C_16  and  C_17
REMARK    9  A    between atoms: C_17  and  C_18
REMARK   10  A    between atoms: C_19  and  C_20
REMARK   11  A    between atoms: N_22  and  C_23
REMARK   12  A    between atoms: C_26  and  O_27
REMARK                            x       y       z     vdW  Elec       q    Type
REMARK                         _______ _______ _______ _____ _____    ______ ____
ROOT
ATOM      1  C   UNL     1       6.685  -2.499  24.262  0.00  0.00    +0.001 C 
ATOM      2  C   UNL     1       6.443  -1.531  23.362  0.00  0.00    +0.003 C 
ENDROOT
BRANCH   1   5
ATOM      3  C   UNL     1       7.499  -4.960  25.645  0.00  0.00    +0.044 C 
ATOM      4  C   UNL     1       6.051  -4.653  25.335  0.00  0.00    -0.050 C 
ATOM      5  C   UNL     1       5.724  -3.505  24.695  0.00  0.00    +0.003 C 
BRANCH   4   6
ATOM      6  C   UNL     1       5.002  -5.612  25.728  0.00  0.00    +0.003 C 
ATOM      7  C   UNL     1       3.755  -5.323  26.147  0.00  0.00    +0.004 C 
BRANCH   7   8
ATOM      8  C   UNL     1       2.718  -6.286  26.555  0.00  0.00    -0.043 C 
ATOM      9  C   UNL     1       1.870  -6.879  25.406  0.00  0.00    -0.010 C 
ATOM     10  C   UNL     1       1.225  -5.730  24.588  0.00  0.00    +0.016 C 
ATOM     11  C   UNL     1       2.762  -7.711  24.450  0.00  0.00    +0.016 C 
ATOM     12  C   UNL     1       0.688  -7.794  25.847  0.00  0.00    +0.011 C 
ATOM     13  C   UNL     1       0.685  -8.365  27.253  0.00  0.00    +0.005 C 
ATOM     14  C   UNL     1       1.565  -7.697  28.293  0.00  0.00    +0.031 C 
ATOM     15  C   UNL     1       2.578  -6.680  27.840  0.00  0.00    -0.069 C 
ATOM     16  C   UNL     1       3.428  -6.200  28.997  0.00  0.00    +0.039 C 
ENDBRANCH   7   8
ENDBRANCH   4   6
ENDBRANCH   1   5
BRANCH   2  17
ATOM     17  C   UNL     1       7.428  -0.518  22.989  0.00  0.00    -0.046 C 
ATOM     18  C   UNL     1       7.131   0.802  22.968  0.00  0.00    +0.071 C 
ATOM     19  C   UNL     1       8.786  -1.077  22.630  0.00  0.00    +0.044 C 
BRANCH  18  20
ATOM     20  C   UNL     1       8.179   1.832  22.691  0.00  0.00    +0.241 C 
ATOM     21  N   UNL     1       8.841   2.293  23.817  0.00  0.00    -0.282 N 
ATOM     22  H   UNL     1       8.717   1.800  24.689  0.00  0.00    +0.155 HD
ATOM     23  O   UNL     1       8.420   2.169  21.542  0.00  0.00    -0.270 OA
BRANCH  21  24
ATOM     24  C   UNL     1       9.798   3.343  23.800  0.00  0.00    +0.034 A 
ATOM     25  C   UNL     1      11.112   3.056  23.436  0.00  0.00    +0.027 A 
ATOM     26  C   UNL     1      12.066   4.085  23.360  0.00  0.00    +0.047 A 
ATOM     27  C   UNL     1      11.710   5.390  23.678  0.00  0.00    +0.117 A 
ATOM     28  C   UNL     1      10.422   5.684  24.092  0.00  0.00    +0.047 A 
ATOM     29  C   UNL     1       9.474   4.660  24.157  0.00  0.00    +0.027 A 
BRANCH  27  30
ATOM     30  O   UNL     1      12.654   6.366  23.568  0.00  0.00    -0.507 OA
ATOM     31  H   UNL     1      13.531   5.961  23.701  0.00  0.00    +0.292 HD
ENDBRANCH  27  30
ENDBRANCH  21  24
ENDBRANCH  18  20
ENDBRANCH   2  17
TORSDOF 7
ENDMDL
MODEL 4
REMARK VINA RESULT:      -5.7      1.759      2.195
REMARK  Name = 
REMARK  12 active torsions:
REMARK  status: ('A' for Active; 'I' for Inactive)
REMARK    1  A    between atoms: C_1  and  C_2
REMARK    2  A    between atoms: C_2  and  C_3
REMARK    3  A    between atoms: C_4  and  C_5
REMARK    4  A    between atoms: C_6  and  C_7
REMARK    5  A    between atoms: C_11  and  C_12
REMARK    6  A    between atoms: C_11  and  C_13
REMARK    7  A    between atoms: C_14  and  C_15
REMARK    8  A    between atoms: C_16  and  C_17
REMARK    9  A    between atoms: C_17  and  C_18
REMARK   10  A    between atoms: C_19  and  C_20
REMARK   11  A    between atoms: N_22  and  C_23
REMARK   12  A    between atoms: C_26  and  O_27
REMARK                            x       y       z     vdW  Elec       q    Type
REMARK                         _______ _______ _______ _____ _____    ______ ____
ROOT
ATOM      1  C   UNL     1       6.927  -1.667  25.405  0.00  0.00    +0.001 C 
ATOM      2  C   UNL     1       7.450  -2.790  25.923  0.00  0.00    +0.003 C 
ENDROOT
BRANCH   1   5
ATOM      3  C   UNL     1       8.126  -0.319  23.086  0.00  0.00    +0.044 C 
ATOM      4  C   UNL     1       8.087   0.320  24.456  0.00  0.00    -0.050 C 
ATOM      5  C   UNL     1       7.523  -0.340  25.496  0.00  0.00    +0.003 C 
BRANCH   4   6
ATOM      6  C   UNL     1       8.670   1.660  24.653  0.00  0.00    +0.003 C 
ATOM      7  C   UNL     1       8.364   2.785  23.978  0.00  0.00    +0.004 C 
BRANCH   7   8
ATOM      8  C   UNL     1       8.964   4.117  24.169  0.00  0.00    -0.043 C 
ATOM      9  C   UNL     1       8.056   5.165  24.852  0.00  0.00    -0.010 C 
ATOM     10  C   UNL     1       6.728   5.297  24.062  0.00  0.00    +0.016 C 
ATOM     11  C   UNL     1       7.716   4.725  26.299  0.00  0.00    +0.016 C 
ATOM     12  C   UNL     1       8.640   6.607  24.933  0.00  0.00    +0.011 C 
ATOM     13  C   UNL     1      10.132   6.809  24.742  0.00  0.00    +0.005 C 
ATOM     14  C   UNL     1      10.917   5.703  24.061  0.00  0.00    +0.031 C 
ATOM     15  C   UNL     1      10.249   4.373  23.839  0.00  0.00    -0.069 C 
ATOM     16  C   UNL     1      11.214   3.368  23.244  0.00  0.00    +0.039 C 
ENDBRANCH   7   8
ENDBRANCH   4   6
ENDBRANCH   1   5
BRANCH   2  17
ATOM     17  C   UNL     1       6.794  -4.094  25.841  0.00  0.00    -0.046 C 
ATOM     18  C   UNL     1       5.859  -4.487  26.737  0.00  0.00    +0.071 C 
ATOM     19  C   UNL     1       7.255  -4.947  24.682  0.00  0.00    +0.044 C 
BRANCH  18  20
ATOM     20  C   UNL     1       5.119  -5.776  26.575  0.00  0.00    +0.241 C 
ATOM     21  N   UNL     1       3.903  -5.661  25.922  0.00  0.00    -0.282 N 
ATOM     22  H   UNL     1       3.684  -4.795  25.452  0.00  0.00    +0.155 HD
ATOM     23  O   UNL     1       5.615  -6.822  26.966  0.00  0.00    -0.270 OA
BRANCH  21  24
ATOM     24  C   UNL     1       2.990  -6.736  25.751  0.00  0.00    +0.034 A 
ATOM     25  C   UNL     1       3.007  -7.456  24.558  0.00  0.00    +0.027 A 
ATOM     26  C   UNL     1       2.150  -8.557  24.383  0.00  0.00    +0.047 A 
ATOM     27  C   UNL     1       1.261  -8.913  25.390  0.00  0.00    +0.117 A 
ATOM     28  C   UNL     1       1.195  -8.177  26.560  0.00  0.00    +0.047 A 
ATOM     29  C   UNL     1       2.054  -7.089  26.734  0.00  0.00    +0.027 A 
BRANCH  27  30
ATOM     30  O   UNL     1       0.463 -10.001  25.196  0.00  0.00    -0.507 OA
ATOM     31  H   UNL     1      -0.392  -9.696  24.842  0.00  0.00    +0.292 HD
ENDBRANCH  27  30
ENDBRANCH  21  24
ENDBRANCH  18  20
ENDBRANCH   2  17
TORSDOF 7
ENDMDL
MODEL 5
REMARK VINA RESULT:      -5.1      4.859     12.298
REMARK  Name = 
REMARK  12 active torsions:
REMARK  status: ('A' for Active; 'I' for Inactive)
REMARK    1  A    between atoms: C_1  and  C_2
REMARK    2  A    between atoms: C_2  and  C_3
REMARK    3  A    between atoms: C_4  and  C_5
REMARK    4  A    between atoms: C_6  and  C_7
REMARK    5  A    between atoms: C_11  and  C_12
REMARK    6  A    between atoms: C_11  and  C_13
REMARK    7  A    between atoms: C_14  and  C_15
REMARK    8  A    between atoms: C_16  and  C_17
REMARK    9  A    between atoms: C_17  and  C_18
REMARK   10  A    between atoms: C_19  and  C_20
REMARK   11  A    between atoms: N_22  and  C_23
REMARK   12  A    between atoms: C_26  and  O_27
REMARK                            x       y       z     vdW  Elec       q    Type
REMARK                         _______ _______ _______ _____ _____    ______ ____
ROOT
ATOM      1  C   UNL     1       6.319  -1.341  25.061  0.00  0.00    +0.001 C 
ATOM      2  C   UNL     1       5.928  -0.311  24.293  0.00  0.00    +0.003 C 
ENDROOT
BRANCH   1   5
ATOM      3  C   UNL     1       6.717  -4.246  24.882  0.00  0.00    +0.044 C 
ATOM      4  C   UNL     1       5.569  -3.639  25.657  0.00  0.00    -0.050 C 
ATOM      5  C   UNL     1       5.426  -2.293  25.711  0.00  0.00    +0.003 C 
BRANCH   4   6
ATOM      6  C   UNL     1       4.606  -4.518  26.345  0.00  0.00    +0.003 C 
ATOM      7  C   UNL     1       4.155  -4.395  27.608  0.00  0.00    +0.004 C 
BRANCH   7   8
ATOM      8  C   UNL     1       3.206  -5.289  28.294  0.00  0.00    -0.043 C 
ATOM      9  C   UNL     1       3.836  -6.298  29.280  0.00  0.00    -0.010 C 
ATOM     10  C   UNL     1       4.913  -7.140  28.548  0.00  0.00    +0.016 C 
ATOM     11  C   UNL     1       4.522  -5.552  30.453  0.00  0.00    +0.016 C 
ATOM     12  C   UNL     1       2.850  -7.331  29.905  0.00  0.00    +0.011 C 
ATOM     13  C   UNL     1       1.360  -7.050  29.854  0.00  0.00    +0.005 C 
ATOM     14  C   UNL     1       0.864  -6.032  28.843  0.00  0.00    +0.031 C 
ATOM     15  C   UNL     1       1.870  -5.173  28.126  0.00  0.00    -0.069 C 
ATOM     16  C   UNL     1       1.187  -4.154  27.239  0.00  0.00    +0.039 C 
ENDBRANCH   7   8
ENDBRANCH   4   6
ENDBRANCH   1   5
BRANCH   2  17
ATOM     17  C   UNL     1       6.860   0.643  23.695  0.00  0.00    -0.046 C 
ATOM     18  C   UNL     1       6.838   1.961  24.001  0.00  0.00    +0.071 C 
ATOM     19  C   UNL     1       7.834   0.027  22.716  0.00  0.00    +0.044 C 
BRANCH  18  20
ATOM     20  C   UNL     1       7.868   2.903  23.465  0.00  0.00    +0.241 C 
ATOM     21  N   UNL     1       9.016   2.993  24.233  0.00  0.00    -0.282 N 
ATOM     22  H   UNL     1       9.164   2.316  24.968  0.00  0.00    +0.155 HD
ATOM     23  O   UNL     1       7.677   3.485  22.408  0.00  0.00    -0.270 OA
BRANCH  21  24
ATOM     24  C   UNL     1      10.077   3.900  23.969  0.00  0.00    +0.034 A 
ATOM     25  C   UNL     1       9.917   5.245  24.299  0.00  0.00    +0.027 A 
ATOM     26  C   UNL     1      10.970   6.153  24.097  0.00  0.00    +0.047 A 
ATOM     27  C   UNL     1      12.167   5.719  23.539  0.00  0.00    +0.117 A 
ATOM     28  C   UNL     1      12.324   4.398  23.158  0.00  0.00    +0.047 A 
ATOM     29  C   UNL     1      11.279   3.496  23.368  0.00  0.00    +0.027 A 
BRANCH  27  30
ATOM     30  O   UNL     1      13.175   6.623  23.381  0.00  0.00    -0.507 OA
ATOM     31  H   UNL     1      12.909   7.457  23.808  0.00  0.00    +0.292 HD
ENDBRANCH  27  30
ENDBRANCH  21  24
ENDBRANCH  18  20
ENDBRANCH   2  17
TORSDOF 7
ENDMDL
MODEL 6
REMARK VINA RESULT:      -5.0      4.965     12.189
REMARK  Name = 
REMARK  12 active torsions:
REMARK  status: ('A' for Active; 'I' for Inactive)
REMARK    1  A    between atoms: C_1  and  C_2
REMARK    2  A    between atoms: C_2  and  C_3
REMARK    3  A    between atoms: C_4  and  C_5
REMARK    4  A    between atoms: C_6  and  C_7
REMARK    5  A    between atoms: C_11  and  C_12
REMARK    6  A    between atoms: C_11  and  C_13
REMARK    7  A    between atoms: C_14  and  C_15
REMARK    8  A    between atoms: C_16  and  C_17
REMARK    9  A    between atoms: C_17  and  C_18
REMARK   10  A    between atoms: C_19  and  C_20
REMARK   11  A    between atoms: N_22  and  C_23
REMARK   12  A    between atoms: C_26  and  O_27
REMARK                            x       y       z     vdW  Elec       q    Type
REMARK                         _______ _______ _______ _____ _____    ______ ____
ROOT
ATOM      1  C   UNL     1       6.335  -1.453  25.228  0.00  0.00    +0.001 C 
ATOM      2  C   UNL     1       5.982  -0.539  24.311  0.00  0.00    +0.003 C 
ENDROOT
BRANCH   1   5
ATOM      3  C   UNL     1       7.294  -3.814  26.692  0.00  0.00    +0.044 C 
ATOM      4  C   UNL     1       5.821  -3.496  26.555  0.00  0.00    -0.050 C 
ATOM      5  C   UNL     1       5.427  -2.396  25.870  0.00  0.00    +0.003 C 
BRANCH   4   6
ATOM      6  C   UNL     1       4.822  -4.393  27.164  0.00  0.00    +0.003 C 
ATOM      7  C   UNL     1       4.163  -4.204  28.323  0.00  0.00    +0.004 C 
BRANCH   7   8
ATOM      8  C   UNL     1       3.178  -5.113  28.934  0.00  0.00    -0.043 C 
ATOM      9  C   UNL     1       1.723  -4.948  28.441  0.00  0.00    -0.010 C 
ATOM     10  C   UNL     1       1.270  -3.478  28.636  0.00  0.00    +0.016 C 
ATOM     11  C   UNL     1       1.622  -5.288  26.931  0.00  0.00    +0.016 C 
ATOM     12  C   UNL     1       0.661  -5.816  29.181  0.00  0.00    +0.011 C 
ATOM     13  C   UNL     1       1.124  -7.008  29.997  0.00  0.00    +0.005 C 
ATOM     14  C   UNL     1       2.581  -7.058  30.418  0.00  0.00    +0.031 C 
ATOM     15  C   UNL     1       3.545  -6.077  29.807  0.00  0.00    -0.069 C 
ATOM     16  C   UNL     1       4.963  -6.344  30.268  0.00  0.00    +0.039 C 
ENDBRANCH   7   8
ENDBRANCH   4   6
ENDBRANCH   1   5
BRANCH   2  17
ATOM     17  C   UNL     1       6.922   0.414  23.724  0.00  0.00    -0.046 C 
ATOM     18  C   UNL     1       6.773   1.752  23.863  0.00  0.00    +0.071 C 
ATOM     19  C   UNL     1       8.057  -0.227  22.958  0.00  0.00    +0.044 C 
BRANCH  18  20
ATOM     20  C   UNL     1       7.802   2.708  23.351  0.00  0.00    +0.241 C 
ATOM     21  N   UNL     1       8.895   2.874  24.186  0.00  0.00    -0.282 N 
ATOM     22  H   UNL     1       9.017   2.236  24.958  0.00  0.00    +0.155 HD
ATOM     23  O   UNL     1       7.661   3.237  22.259  0.00  0.00    -0.270 OA
BRANCH  21  24
ATOM     24  C   UNL     1       9.939   3.808  23.949  0.00  0.00    +0.034 A 
ATOM     25  C   UNL     1      11.166   3.347  23.477  0.00  0.00    +0.027 A 
ATOM     26  C   UNL     1      12.199   4.254  23.184  0.00  0.00    +0.047 A 
ATOM     27  C   UNL     1      12.009   5.615  23.394  0.00  0.00    +0.117 A 
ATOM     28  C   UNL     1      10.815   6.085  23.912  0.00  0.00    +0.047 A 
ATOM     29  C   UNL     1       9.788   5.181  24.193  0.00  0.00    +0.027 A 
BRANCH  27  30
ATOM     30  O   UNL     1      13.023   6.468  23.076  0.00  0.00    -0.507 OA
ATOM     31  H   UNL     1      12.802   7.352  23.422  0.00  0.00    +0.292 HD
ENDBRANCH  27  30
ENDBRANCH  21  24
ENDBRANCH  18  20
ENDBRANCH   2  17
TORSDOF 7
ENDMDL
MODEL 7
REMARK VINA RESULT:      -4.9      4.322     12.481
REMARK  Name = 
REMARK  12 active torsions:
REMARK  status: ('A' for Active; 'I' for Inactive)
REMARK    1  A    between atoms: C_1  and  C_2
REMARK    2  A    between atoms: C_2  and  C_3
REMARK    3  A    between atoms: C_4  and  C_5
REMARK    4  A    between atoms: C_6  and  C_7
REMARK    5  A    between atoms: C_11  and  C_12
REMARK    6  A    between atoms: C_11  and  C_13
REMARK    7  A    between atoms: C_14  and  C_15
REMARK    8  A    between atoms: C_16  and  C_17
REMARK    9  A    between atoms: C_17  and  C_18
REMARK   10  A    between atoms: C_19  and  C_20
REMARK   11  A    between atoms: N_22  and  C_23
REMARK   12  A    between atoms: C_26  and  O_27
REMARK                            x       y       z     vdW  Elec       q    Type
REMARK                         _______ _______ _______ _____ _____    ______ ____
ROOT
ATOM      1  C   UNL     1       5.844  -0.973  25.048  0.00  0.00    +0.001 C 
ATOM      2  C   UNL     1       6.092  -0.233  23.956  0.00  0.00    +0.003 C 
ENDROOT
BRANCH   1   5
ATOM      3  C   UNL     1       3.662  -1.296  26.989  0.00  0.00    +0.044 C 
ATOM      4  C   UNL     1       3.986  -2.356  25.960  0.00  0.00    -0.050 C 
ATOM      5  C   UNL     1       5.002  -2.163  25.085  0.00  0.00    +0.003 C 
BRANCH   4   6
ATOM      6  C   UNL     1       3.195  -3.600  25.920  0.00  0.00    +0.003 C 
ATOM      7  C   UNL     1       3.655  -4.846  25.699  0.00  0.00    +0.004 C 
BRANCH   7   8
ATOM      8  C   UNL     1       2.856  -6.082  25.643  0.00  0.00    -0.043 C 
ATOM      9  C   UNL     1       2.224  -6.528  26.981  0.00  0.00    -0.010 C 
ATOM     10  C   UNL     1       3.330  -6.668  28.060  0.00  0.00    +0.016 C 
ATOM     11  C   UNL     1       1.200  -5.473  27.474  0.00  0.00    +0.016 C 
ATOM     12  C   UNL     1       1.491  -7.903  26.953  0.00  0.00    +0.011 C 
ATOM     13  C   UNL     1       1.090  -8.495  25.614  0.00  0.00    +0.005 C 
ATOM     14  C   UNL     1       1.780  -7.969  24.370  0.00  0.00    +0.031 C 
ATOM     15  C   UNL     1       2.630  -6.732  24.481  0.00  0.00    -0.069 C 
ATOM     16  C   UNL     1       3.151  -6.302  23.126  0.00  0.00    +0.039 C 
ENDBRANCH   7   8
ENDBRANCH   4   6
ENDBRANCH   1   5
BRANCH   2  17
ATOM     17  C   UNL     1       6.911   0.977  23.975  0.00  0.00    -0.046 C 
ATOM     18  C   UNL     1       7.528   1.448  22.866  0.00  0.00    +0.071 C 
ATOM     19  C   UNL     1       7.005   1.641  25.331  0.00  0.00    +0.044 C 
BRANCH  18  20
ATOM     20  C   UNL     1       8.271   2.745  22.879  0.00  0.00    +0.241 C 
ATOM     21  N   UNL     1       9.540   2.673  23.428  0.00  0.00    -0.282 N 
ATOM     22  H   UNL     1       9.942   1.764  23.606  0.00  0.00    +0.155 HD
ATOM     23  O   UNL     1       7.768   3.746  22.391  0.00  0.00    -0.270 OA
BRANCH  21  24
ATOM     24  C   UNL     1      10.380   3.800  23.635  0.00  0.00    +0.034 A 
ATOM     25  C   UNL     1       9.854   4.932  24.256  0.00  0.00    +0.027 A 
ATOM     26  C   UNL     1      10.675   6.041  24.521  0.00  0.00    +0.047 A 
ATOM     27  C   UNL     1      12.011   6.025  24.137  0.00  0.00    +0.117 A 
ATOM     28  C   UNL     1      12.536   4.930  23.472  0.00  0.00    +0.047 A 
ATOM     29  C   UNL     1      11.719   3.827  23.219  0.00  0.00    +0.027 A 
BRANCH  27  30
ATOM     30  O   UNL     1      12.784   7.108  24.432  0.00  0.00    -0.507 OA
ATOM     31  H   UNL     1      13.093   7.502  23.596  0.00  0.00    +0.292 HD
ENDBRANCH  27  30
ENDBRANCH  21  24
ENDBRANCH  18  20
ENDBRANCH   2  17
TORSDOF 7
ENDMDL
MODEL 8
REMARK VINA RESULT:      -4.9      4.296     12.566
REMARK  Name = 
REMARK  12 active torsions:
REMARK  status: ('A' for Active; 'I' for Inactive)
REMARK    1  A    between atoms: C_1  and  C_2
REMARK    2  A    between atoms: C_2  and  C_3
REMARK    3  A    between atoms: C_4  and  C_5
REMARK    4  A    between atoms: C_6  and  C_7
REMARK    5  A    between atoms: C_11  and  C_12
REMARK    6  A    between atoms: C_11  and  C_13
REMARK    7  A    between atoms: C_14  and  C_15
REMARK    8  A    between atoms: C_16  and  C_17
REMARK    9  A    between atoms: C_17  and  C_18
REMARK   10  A    between atoms: C_19  and  C_20
REMARK   11  A    between atoms: N_22  and  C_23
REMARK   12  A    between atoms: C_26  and  O_27
REMARK                            x       y       z     vdW  Elec       q    Type
REMARK                         _______ _______ _______ _____ _____    ______ ____
ROOT
ATOM      1  C   UNL     1       5.796  -0.954  24.879  0.00  0.00    +0.001 C 
ATOM      2  C   UNL     1       6.486  -0.454  23.841  0.00  0.00    +0.003 C 
ENDROOT
BRANCH   1   5
ATOM      3  C   UNL     1       3.722  -1.489  26.890  0.00  0.00    +0.044 C 
ATOM      4  C   UNL     1       3.988  -2.434  25.739  0.00  0.00    -0.050 C 
ATOM      5  C   UNL     1       4.955  -2.144  24.836  0.00  0.00    +0.003 C 
BRANCH   4   6
ATOM      6  C   UNL     1       3.195  -3.670  25.610  0.00  0.00    +0.003 C 
ATOM      7  C   UNL     1       3.497  -4.883  26.111  0.00  0.00    +0.004 C 
BRANCH   7   8
ATOM      8  C   UNL     1       2.708  -6.118  25.963  0.00  0.00    -0.043 C 
ATOM      9  C   UNL     1       2.897  -6.873  24.628  0.00  0.00    -0.010 C 
ATOM     10  C   UNL     1       2.603  -5.918  23.441  0.00  0.00    +0.016 C 
ATOM     11  C   UNL     1       4.357  -7.376  24.493  0.00  0.00    +0.016 C 
ATOM     12  C   UNL     1       1.965  -8.104  24.415  0.00  0.00    +0.011 C 
ATOM     13  C   UNL     1       1.268  -8.716  25.617  0.00  0.00    +0.005 C 
ATOM     14  C   UNL     1       1.149  -7.873  26.873  0.00  0.00    +0.031 C 
ATOM     15  C   UNL     1       1.934  -6.593  26.963  0.00  0.00    -0.069 C 
ATOM     16  C   UNL     1       1.770  -5.944  28.322  0.00  0.00    +0.039 C 
ENDBRANCH   7   8
ENDBRANCH   4   6
ENDBRANCH   1   5
BRANCH   2  17
ATOM     17  C   UNL     1       7.284   0.767  23.922  0.00  0.00    -0.046 C 
ATOM     18  C   UNL     1       7.405   1.620  22.878  0.00  0.00    +0.071 C 
ATOM     19  C   UNL     1       7.954   0.983  25.261  0.00  0.00    +0.044 C 
BRANCH  18  20
ATOM     20  C   UNL     1       8.134   2.918  23.012  0.00  0.00    +0.241 C 
ATOM     21  N   UNL     1       9.485   2.791  23.286  0.00  0.00    -0.282 N 
ATOM     22  H   UNL     1       9.915   1.882  23.198  0.00  0.00    +0.155 HD
ATOM     23  O   UNL     1       7.544   3.975  22.840  0.00  0.00    -0.270 OA
BRANCH  21  24
ATOM     24  C   UNL     1      10.346   3.888  23.555  0.00  0.00    +0.034 A 
ATOM     25  C   UNL     1       9.823   5.028  24.164  0.00  0.00    +0.027 A 
ATOM     26  C   UNL     1      10.663   6.106  24.488  0.00  0.00    +0.047 A 
ATOM     27  C   UNL     1      12.016   6.054  24.176  0.00  0.00    +0.117 A 
ATOM     28  C   UNL     1      12.543   4.952  23.524  0.00  0.00    +0.047 A 
ATOM     29  C   UNL     1      11.707   3.878  23.211  0.00  0.00    +0.027 A 
BRANCH  27  30
ATOM     30  O   UNL     1      12.805   7.107  24.528  0.00  0.00    -0.507 OA
ATOM     31  H   UNL     1      12.901   7.692  23.754  0.00  0.00    +0.292 HD
ENDBRANCH  27  30
ENDBRANCH  21  24
ENDBRANCH  18  20
ENDBRANCH   2  17
TORSDOF 7
ENDMDL
MODEL 9
REMARK VINA RESULT:      -4.6      4.260     12.345
REMARK  Name = 
REMARK  12 active torsions:
REMARK  status: ('A' for Active; 'I' for Inactive)
REMARK    1  A    between atoms: C_1  and  C_2
REMARK    2  A    between atoms: C_2  and  C_3
REMARK    3  A    between atoms: C_4  and  C_5
REMARK    4  A    between atoms: C_6  and  C_7
REMARK    5  A    between atoms: C_11  and  C_12
REMARK    6  A    between atoms: C_11  and  C_13
REMARK    7  A    between atoms: C_14  and  C_15
REMARK    8  A    between atoms: C_16  and  C_17
REMARK    9  A    between atoms: C_17  and  C_18
REMARK   10  A    between atoms: C_19  and  C_20
REMARK   11  A    between atoms: N_22  and  C_23
REMARK   12  A    between atoms: C_26  and  O_27
REMARK                            x       y       z     vdW  Elec       q    Type
REMARK                         _______ _______ _______ _____ _____    ______ ____
ROOT
ATOM      1  C   UNL     1       7.250  -2.088  24.755  0.00  0.00    +0.001 C 
ATOM      2  C   UNL     1       7.006  -1.084  23.898  0.00  0.00    +0.003 C 
ENDROOT
BRANCH   1   5
ATOM      3  C   UNL     1       6.967  -4.847  23.783  0.00  0.00    +0.044 C 
ATOM      4  C   UNL     1       6.081  -4.283  24.871  0.00  0.00    -0.050 C 
ATOM      5  C   UNL     1       6.249  -3.004  25.287  0.00  0.00    +0.003 C 
BRANCH   4   6
ATOM      6  C   UNL     1       5.032  -5.129  25.470  0.00  0.00    +0.003 C 
ATOM      7  C   UNL     1       3.749  -4.788  25.701  0.00  0.00    +0.004 C 
BRANCH   7   8
ATOM      8  C   UNL     1       2.712  -5.634  26.316  0.00  0.00    -0.043 C 
ATOM      9  C   UNL     1       1.612  -6.143  25.357  0.00  0.00    -0.010 C 
ATOM     10  C   UNL     1       0.949  -4.939  24.638  0.00  0.00    +0.016 C 
ATOM     11  C   UNL     1       2.224  -7.072  24.277  0.00  0.00    +0.016 C 
ATOM     12  C   UNL     1       0.444  -6.925  26.029  0.00  0.00    +0.011 C 
ATOM     13  C   UNL     1       0.639  -7.481  27.428  0.00  0.00    +0.005 C 
ATOM     14  C   UNL     1       1.759  -6.901  28.272  0.00  0.00    +0.031 C 
ATOM     15  C   UNL     1       2.769  -6.000  27.615  0.00  0.00    -0.069 C 
ATOM     16  C   UNL     1       3.862  -5.604  28.586  0.00  0.00    +0.039 C 
ENDBRANCH   7   8
ENDBRANCH   4   6
ENDBRANCH   1   5
BRANCH   2  17
ATOM     17  C   UNL     1       8.038  -0.165  23.424  0.00  0.00    -0.046 C 
ATOM     18  C   UNL     1       7.923   1.178  23.554  0.00  0.00    +0.071 C 
ATOM     19  C   UNL     1       9.226  -0.845  22.782  0.00  0.00    +0.044 C 
BRANCH  18  20
ATOM     20  C   UNL     1       9.035   2.097  23.164  0.00  0.00    +0.241 C 
ATOM     21  N   UNL     1       9.413   2.991  24.152  0.00  0.00    -0.282 N 
ATOM     22  H   UNL     1       9.064   2.855  25.089  0.00  0.00    +0.155 HD
ATOM     23  O   UNL     1       9.562   1.993  22.066  0.00  0.00    -0.270 OA
BRANCH  21  24
ATOM     24  C   UNL     1      10.374   4.020  23.964  0.00  0.00    +0.034 A 
ATOM     25  C   UNL     1      10.126   5.284  24.497  0.00  0.00    +0.027 A 
ATOM     26  C   UNL     1      11.083   6.305  24.371  0.00  0.00    +0.047 A 
ATOM     27  C   UNL     1      12.270   6.067  23.689  0.00  0.00    +0.117 A 
ATOM     28  C   UNL     1      12.510   4.833  23.109  0.00  0.00    +0.047 A 
ATOM     29  C   UNL     1      11.560   3.818  23.244  0.00  0.00    +0.027 A 
BRANCH  27  30
ATOM     30  O   UNL     1      13.186   7.073  23.609  0.00  0.00    -0.507 OA
ATOM     31  H   UNL     1      12.998   7.717  24.315  0.00  0.00    +0.292 HD
ENDBRANCH  27  30
ENDBRANCH  21  24
ENDBRANCH  18  20
ENDBRANCH   2  17
TORSDOF 7
ENDMDL
