MODEL 1
REMARK VINA RESULT:      -7.9      0.000      0.000
REMARK  Name = 
REMARK  4 active torsions:
REMARK  status: ('A' for Active; 'I' for Inactive)
REMARK    1  A    between atoms: C_1  and  C_2
REMARK    2  A    between atoms: C_15  and  O_16
REMARK    3  A    between atoms: O_16  and  S_17
REMARK    4  A    between atoms: S_17  and  O_18
REMARK                            x       y       z     vdW  Elec       q    Type
REMARK                         _______ _______ _______ _____ _____    ______ ____
ROOT
ATOM      1  C   UNL     1       5.025  -4.253  27.343  0.00  0.00    +0.019 C 
ATOM      2  C   UNL     1       5.791  -5.516  26.888  0.00  0.00    +0.029 C 
ATOM      3  C   UNL     1       5.063  -6.743  27.381  0.00  0.00    +0.139 C 
ATOM      4  O   UNL     1       5.387  -7.406  28.356  0.00  0.00    -0.297 OA
ATOM      5  C   UNL     1       3.903  -7.070  26.471  0.00  0.00    +0.075 C 
ATOM      6  C   UNL     1       4.192  -6.180  25.231  0.00  0.00    +0.012 C 
ATOM      7  C   UNL     1       5.689  -5.813  25.375  0.00  0.00    +0.006 C 
ATOM      8  C   UNL     1       6.367  -4.705  24.533  0.00  0.00    +0.001 C 
ATOM      9  C   UNL     1       6.590  -5.095  23.055  0.00  0.00    +0.009 C 
ATOM     10  C   UNL     1       7.225  -3.948  22.234  0.00  0.00    +0.036 C 
ATOM     11  C   UNL     1       8.126  -2.995  22.997  0.00  0.00    -0.040 A 
ATOM     12  C   UNL     1       8.706  -1.898  22.325  0.00  0.00    +0.052 A 
ATOM     13  C   UNL     1       9.529  -0.998  23.010  0.00  0.00    +0.159 A 
ATOM     14  C   UNL     1       9.792  -1.189  24.359  0.00  0.00    +0.049 A 
ATOM     15  C   UNL     1       9.231  -2.270  25.026  0.00  0.00    +0.008 A 
ATOM     16  C   UNL     1       8.389  -3.181  24.366  0.00  0.00    -0.041 A 
ATOM     17  C   UNL     1       7.810  -4.394  25.078  0.00  0.00    +0.023 C 
ATOM     18  C   UNL     1       7.948  -4.324  26.609  0.00  0.00    +0.009 C 
ATOM     19  C   UNL     1       7.247  -5.474  27.319  0.00  0.00    +0.015 C 
ENDROOT
BRANCH  13  20
ATOM     20  O   UNL     1      10.196   0.049  22.435  0.00  0.00    -0.325 OA
BRANCH  20  21
ATOM     21  S   UNL     1       9.873   1.583  22.856  0.00  0.00    +0.251 S 
ATOM     22  O   UNL     1      10.827   2.042  23.837  0.00  0.00    -0.108 OA
ATOM     23  O   UNL     1       8.445   1.721  23.028  0.00  0.00    -0.108 OA
BRANCH  21  24
ATOM     24  O   UNL     1      10.202   2.366  21.472  0.00  0.00    -0.222 OA
ATOM     25  H   UNL     1      11.176   2.358  21.355  0.00  0.00    +0.248 HD
ENDBRANCH  21  24
ENDBRANCH  20  21
ENDBRANCH  13  20
TORSDOF 3
ENDMDL
MODEL 2
REMARK VINA RESULT:      -7.7      4.417      8.484
REMARK  Name = 
REMARK  4 active torsions:
REMARK  status: ('A' for Active; 'I' for Inactive)
REMARK    1  A    between atoms: C_1  and  C_2
REMARK    2  A    between atoms: C_15  and  O_16
REMARK    3  A    between atoms: O_16  and  S_17
REMARK    4  A    between atoms: S_17  and  O_18
REMARK                            x       y       z     vdW  Elec       q    Type
REMARK                         _______ _______ _______ _____ _____    ______ ____
ROOT
ATOM      1  C   UNL     1       6.602   3.891  24.315  0.00  0.00    +0.019 C 
ATOM      2  C   UNL     1       7.561   4.048  23.113  0.00  0.00    +0.029 C 
ATOM      3  C   UNL     1       7.738   5.515  22.807  0.00  0.00    +0.139 C 
ATOM      4  O   UNL     1       7.176   6.116  21.902  0.00  0.00    -0.297 OA
ATOM      5  C   UNL     1       8.749   6.132  23.744  0.00  0.00    +0.075 C 
ATOM      6  C   UNL     1       9.409   4.883  24.390  0.00  0.00    +0.012 C 
ATOM      7  C   UNL     1       9.039   3.726  23.430  0.00  0.00    +0.006 C 
ATOM      8  C   UNL     1       9.227   2.235  23.800  0.00  0.00    +0.001 C 
ATOM      9  C   UNL     1      10.703   1.777  23.806  0.00  0.00    +0.009 C 
ATOM     10  C   UNL     1      10.856   0.296  24.226  0.00  0.00    +0.036 C 
ATOM     11  C   UNL     1       9.693  -0.620  23.894  0.00  0.00    -0.040 A 
ATOM     12  C   UNL     1       9.741  -1.976  24.285  0.00  0.00    +0.052 A 
ATOM     13  C   UNL     1       8.675  -2.836  24.003  0.00  0.00    +0.159 A 
ATOM     14  C   UNL     1       7.564  -2.362  23.320  0.00  0.00    +0.049 A 
ATOM     15  C   UNL     1       7.511  -1.031  22.926  0.00  0.00    +0.008 A 
ATOM     16  C   UNL     1       8.561  -0.141  23.209  0.00  0.00    -0.041 A 
ATOM     17  C   UNL     1       8.533   1.304  22.737  0.00  0.00    +0.023 C 
ATOM     18  C   UNL     1       7.144   1.759  22.254  0.00  0.00    +0.009 C 
ATOM     19  C   UNL     1       7.092   3.241  21.913  0.00  0.00    +0.015 C 
ENDROOT
BRANCH  13  20
ATOM     20  O   UNL     1       8.658  -4.177  24.272  0.00  0.00    -0.325 OA
BRANCH  20  21
ATOM     21  S   UNL     1       8.702  -4.727  25.798  0.00  0.00    +0.251 S 
ATOM     22  O   UNL     1       7.731  -5.779  25.979  0.00  0.00    -0.108 OA
ATOM     23  O   UNL     1       8.807  -3.596  26.691  0.00  0.00    -0.108 OA
BRANCH  21  24
ATOM     24  O   UNL     1      10.169  -5.425  25.838  0.00  0.00    -0.222 OA
ATOM     25  H   UNL     1      10.660  -5.031  26.591  0.00  0.00    +0.248 HD
ENDBRANCH  21  24
ENDBRANCH  20  21
ENDBRANCH  13  20
TORSDOF 3
ENDMDL
MODEL 3
REMARK VINA RESULT:      -7.5      3.860      7.987
REMARK  Name = 
REMARK  4 active torsions:
REMARK  status: ('A' for Active; 'I' for Inactive)
REMARK    1  A    between atoms: C_1  and  C_2
REMARK    2  A    between atoms: C_15  and  O_16
REMARK    3  A    between atoms: O_16  and  S_17
REMARK    4  A    between atoms: S_17  and  O_18
REMARK                            x       y       z     vdW  Elec       q    Type
REMARK                         _______ _______ _______ _____ _____    ______ ____
ROOT
ATOM      1  C   UNL     1       9.440   1.836  21.913  0.00  0.00    +0.019 C 
ATOM      2  C   UNL     1       9.934   2.000  23.369  0.00  0.00    +0.029 C 
ATOM      3  C   UNL     1      10.469   3.399  23.557  0.00  0.00    +0.139 C 
ATOM      4  O   UNL     1      11.654   3.703  23.562  0.00  0.00    -0.297 OA
ATOM      5  C   UNL     1       9.336   4.370  23.791  0.00  0.00    +0.075 C 
ATOM      6  C   UNL     1       8.138   3.423  24.071  0.00  0.00    +0.012 C 
ATOM      7  C   UNL     1       8.805   2.070  24.421  0.00  0.00    +0.006 C 
ATOM      8  C   UNL     1       8.018   0.740  24.497  0.00  0.00    +0.001 C 
ATOM      9  C   UNL     1       7.105   0.626  25.738  0.00  0.00    +0.009 C 
ATOM     10  C   UNL     1       6.299  -0.694  25.756  0.00  0.00    +0.036 C 
ATOM     11  C   UNL     1       6.948  -1.886  25.079  0.00  0.00    -0.040 A 
ATOM     12  C   UNL     1       6.254  -3.113  25.016  0.00  0.00    +0.052 A 
ATOM     13  C   UNL     1       6.826  -4.223  24.384  0.00  0.00    +0.159 A 
ATOM     14  C   UNL     1       8.092  -4.125  23.826  0.00  0.00    +0.049 A 
ATOM     15  C   UNL     1       8.785  -2.923  23.889  0.00  0.00    +0.008 A 
ATOM     16  C   UNL     1       8.228  -1.789  24.505  0.00  0.00    -0.041 A 
ATOM     17  C   UNL     1       9.000  -0.484  24.621  0.00  0.00    +0.023 C 
ATOM     18  C   UNL     1      10.250  -0.434  23.724  0.00  0.00    +0.009 C 
ATOM     19  C   UNL     1      10.938   0.923  23.744  0.00  0.00    +0.015 C 
ENDROOT
BRANCH  13  20
ATOM     20  O   UNL     1       6.268  -5.471  24.336  0.00  0.00    -0.325 OA
BRANCH  20  21
ATOM     21  S   UNL     1       5.519  -6.005  23.000  0.00  0.00    +0.251 S 
ATOM     22  O   UNL     1       6.479  -6.564  22.078  0.00  0.00    -0.108 OA
ATOM     23  O   UNL     1       4.532  -5.025  22.604  0.00  0.00    -0.108 OA
BRANCH  21  24
ATOM     24  O   UNL     1       4.656  -7.245  23.596  0.00  0.00    -0.222 OA
ATOM     25  H   UNL     1       3.770  -6.899  23.834  0.00  0.00    +0.248 HD
ENDBRANCH  21  24
ENDBRANCH  20  21
ENDBRANCH  13  20
TORSDOF 3
ENDMDL
MODEL 4
REMARK VINA RESULT:      -7.5      2.909      7.868
REMARK  Name = 
REMARK  4 active torsions:
REMARK  status: ('A' for Active; 'I' for Inactive)
REMARK    1  A    between atoms: C_1  and  C_2
REMARK    2  A    between atoms: C_15  and  O_16
REMARK    3  A    between atoms: O_16  and  S_17
REMARK    4  A    between atoms: S_17  and  O_18
REMARK                            x       y       z     vdW  Elec       q    Type
REMARK                         _______ _______ _______ _____ _____    ______ ____
ROOT
ATOM      1  C   UNL     1       8.006   1.213  25.414  0.00  0.00    +0.019 C 
ATOM      2  C   UNL     1       8.206   0.719  23.963  0.00  0.00    +0.029 C 
ATOM      3  C   UNL     1       8.872   1.806  23.156  0.00  0.00    +0.139 C 
ATOM      4  O   UNL     1       8.297   2.556  22.379  0.00  0.00    -0.297 OA
ATOM      5  C   UNL     1      10.362   1.809  23.402  0.00  0.00    +0.075 C 
ATOM      6  C   UNL     1      10.582   0.454  24.127  0.00  0.00    +0.012 C 
ATOM      7  C   UNL     1       9.303  -0.356  23.801  0.00  0.00    +0.006 C 
ATOM      8  C   UNL     1       8.927  -1.665  24.537  0.00  0.00    +0.001 C 
ATOM      9  C   UNL     1       9.809  -2.873  24.148  0.00  0.00    +0.009 C 
ATOM     10  C   UNL     1       9.436  -4.150  24.938  0.00  0.00    +0.036 C 
ATOM     11  C   UNL     1       7.988  -4.272  25.373  0.00  0.00    -0.040 A 
ATOM     12  C   UNL     1       7.582  -5.389  26.135  0.00  0.00    +0.052 A 
ATOM     13  C   UNL     1       6.255  -5.516  26.559  0.00  0.00    +0.159 A 
ATOM     14  C   UNL     1       5.323  -4.547  26.219  0.00  0.00    +0.049 A 
ATOM     15  C   UNL     1       5.712  -3.448  25.464  0.00  0.00    +0.008 A 
ATOM     16  C   UNL     1       7.041  -3.287  25.036  0.00  0.00    -0.041 A 
ATOM     17  C   UNL     1       7.465  -2.113  24.167  0.00  0.00    +0.023 C 
ATOM     18  C   UNL     1       6.414  -0.990  24.109  0.00  0.00    +0.009 C 
ATOM     19  C   UNL     1       6.901   0.237  23.351  0.00  0.00    +0.015 C 
ENDROOT
BRANCH  13  20
ATOM     20  O   UNL     1       5.748  -6.592  27.235  0.00  0.00    -0.325 OA
BRANCH  20  21
ATOM     21  S   UNL     1       5.641  -6.592  28.854  0.00  0.00    +0.251 S 
ATOM     22  O   UNL     1       4.383  -7.163  29.272  0.00  0.00    -0.108 OA
ATOM     23  O   UNL     1       6.127  -5.323  29.346  0.00  0.00    -0.108 OA
BRANCH  21  24
ATOM     24  O   UNL     1       6.800  -7.660  29.246  0.00  0.00    -0.222 OA
ATOM     25  H   UNL     1       7.655  -7.292  28.938  0.00  0.00    +0.248 HD
ENDBRANCH  21  24
ENDBRANCH  20  21
ENDBRANCH  13  20
TORSDOF 3
ENDMDL
MODEL 5
REMARK VINA RESULT:      -7.3      3.221      7.919
REMARK  Name = 
REMARK  4 active torsions:
REMARK  status: ('A' for Active; 'I' for Inactive)
REMARK    1  A    between atoms: C_1  and  C_2
REMARK    2  A    between atoms: C_15  and  O_16
REMARK    3  A    between atoms: O_16  and  S_17
REMARK    4  A    between atoms: S_17  and  O_18
REMARK                            x       y       z     vdW  Elec       q    Type
REMARK                         _______ _______ _______ _____ _____    ______ ____
ROOT
ATOM      1  C   UNL     1       7.482   1.075  22.318  0.00  0.00    +0.019 C 
ATOM      2  C   UNL     1       8.907   0.643  22.735  0.00  0.00    +0.029 C 
ATOM      3  C   UNL     1       9.785   1.866  22.842  0.00  0.00    +0.139 C 
ATOM      4  O   UNL     1      10.592   2.227  21.996  0.00  0.00    -0.297 OA
ATOM      5  C   UNL     1       9.566   2.559  24.166  0.00  0.00    +0.075 C 
ATOM      6  C   UNL     1       8.770   1.495  24.970  0.00  0.00    +0.012 C 
ATOM      7  C   UNL     1       9.029   0.176  24.202  0.00  0.00    +0.006 C 
ATOM      8  C   UNL     1       8.214  -1.116  24.455  0.00  0.00    +0.001 C 
ATOM      9  C   UNL     1       8.551  -1.812  25.793  0.00  0.00    +0.009 C 
ATOM     10  C   UNL     1       7.685  -3.072  26.033  0.00  0.00    +0.036 C 
ATOM     11  C   UNL     1       7.218  -3.813  24.795  0.00  0.00    -0.040 A 
ATOM     12  C   UNL     1       6.389  -4.946  24.933  0.00  0.00    +0.052 A 
ATOM     13  C   UNL     1       5.934  -5.637  23.805  0.00  0.00    +0.159 A 
ATOM     14  C   UNL     1       6.311  -5.218  22.537  0.00  0.00    +0.049 A 
ATOM     15  C   UNL     1       7.133  -4.108  22.392  0.00  0.00    +0.008 A 
ATOM     16  C   UNL     1       7.593  -3.386  23.507  0.00  0.00    -0.041 A 
ATOM     17  C   UNL     1       8.532  -2.200  23.359  0.00  0.00    +0.023 C 
ATOM     18  C   UNL     1       8.635  -1.681  21.914  0.00  0.00    +0.009 C 
ATOM     19  C   UNL     1       9.468  -0.413  21.798  0.00  0.00    +0.015 C 
ENDROOT
BRANCH  13  20
ATOM     20  O   UNL     1       5.191  -6.785  23.836  0.00  0.00    -0.325 OA
BRANCH  20  21
ATOM     21  S   UNL     1       3.763  -6.840  24.605  0.00  0.00    +0.251 S 
ATOM     22  O   UNL     1       2.938  -5.724  24.208  0.00  0.00    -0.108 OA
ATOM     23  O   UNL     1       4.000  -7.186  25.988  0.00  0.00    -0.108 OA
BRANCH  21  24
ATOM     24  O   UNL     1       3.104  -8.173  23.951  0.00  0.00    -0.222 OA
ATOM     25  H   UNL     1       3.777  -8.886  23.996  0.00  0.00    +0.248 HD
ENDBRANCH  21  24
ENDBRANCH  20  21
ENDBRANCH  13  20
TORSDOF 3
ENDMDL
MODEL 6
REMARK VINA RESULT:      -7.3      2.758      4.170
REMARK  Name = 
REMARK  4 active torsions:
REMARK  status: ('A' for Active; 'I' for Inactive)
REMARK    1  A    between atoms: C_1  and  C_2
REMARK    2  A    between atoms: C_15  and  O_16
REMARK    3  A    between atoms: O_16  and  S_17
REMARK    4  A    between atoms: S_17  and  O_18
REMARK                            x       y       z     vdW  Elec       q    Type
REMARK                         _______ _______ _______ _____ _____    ______ ____
ROOT
ATOM      1  C   UNL     1       6.160  -3.026  24.852  0.00  0.00    +0.019 C 
ATOM      2  C   UNL     1       7.639  -3.474  24.810  0.00  0.00    +0.029 C 
ATOM      3  C   UNL     1       7.703  -4.981  24.860  0.00  0.00    +0.139 C 
ATOM      4  O   UNL     1       7.965  -5.640  25.856  0.00  0.00    -0.297 OA
ATOM      5  C   UNL     1       7.446  -5.565  23.491  0.00  0.00    +0.075 C 
ATOM      6  C   UNL     1       7.568  -4.321  22.570  0.00  0.00    +0.012 C 
ATOM      7  C   UNL     1       8.324  -3.286  23.438  0.00  0.00    +0.006 C 
ATOM      8  C   UNL     1       8.430  -1.789  23.059  0.00  0.00    +0.001 C 
ATOM      9  C   UNL     1       9.385  -1.514  21.875  0.00  0.00    +0.009 C 
ATOM     10  C   UNL     1       9.429  -0.015  21.493  0.00  0.00    +0.036 C 
ATOM     11  C   UNL     1       9.178   0.972  22.617  0.00  0.00    -0.040 A 
ATOM     12  C   UNL     1       9.160   2.355  22.336  0.00  0.00    +0.052 A 
ATOM     13  C   UNL     1       8.916   3.284  23.354  0.00  0.00    +0.159 A 
ATOM     14  C   UNL     1       8.704   2.848  24.654  0.00  0.00    +0.049 A 
ATOM     15  C   UNL     1       8.728   1.489  24.939  0.00  0.00    +0.008 A 
ATOM     16  C   UNL     1       8.956   0.533  23.935  0.00  0.00    -0.041 A 
ATOM     17  C   UNL     1       9.032  -0.953  24.248  0.00  0.00    +0.023 C 
ATOM     18  C   UNL     1       8.504  -1.307  25.650  0.00  0.00    +0.009 C 
ATOM     19  C   UNL     1       8.457  -2.806  25.903  0.00  0.00    +0.015 C 
ENDROOT
BRANCH  13  20
ATOM     20  O   UNL     1       8.951   4.643  23.199  0.00  0.00    -0.325 OA
BRANCH  20  21
ATOM     21  S   UNL     1       7.588   5.501  23.004  0.00  0.00    +0.251 S 
ATOM     22  O   UNL     1       7.433   6.447  24.083  0.00  0.00    -0.108 OA
ATOM     23  O   UNL     1       6.534   4.601  22.594  0.00  0.00    -0.108 OA
BRANCH  21  24
ATOM     24  O   UNL     1       7.943   6.358  21.670  0.00  0.00    -0.222 OA
ATOM     25  H   UNL     1       8.887   6.617  21.731  0.00  0.00    +0.248 HD
ENDBRANCH  21  24
ENDBRANCH  20  21
ENDBRANCH  13  20
TORSDOF 3
ENDMDL
MODEL 7
REMARK VINA RESULT:      -7.3      4.249      8.070
REMARK  Name = 
REMARK  4 active torsions:
REMARK  status: ('A' for Active; 'I' for Inactive)
REMARK    1  A    between atoms: C_1  and  C_2
REMARK    2  A    between atoms: C_15  and  O_16
REMARK    3  A    between atoms: O_16  and  S_17
REMARK    4  A    between atoms: S_17  and  O_18
REMARK                            x       y       z     vdW  Elec       q    Type
REMARK                         _______ _______ _______ _____ _____    ______ ____
ROOT
ATOM      1  C   UNL     1       7.858   3.211  22.541  0.00  0.00    +0.019 C 
ATOM      2  C   UNL     1       9.078   3.035  23.473  0.00  0.00    +0.029 C 
ATOM      3  C   UNL     1       9.566   4.394  23.913  0.00  0.00    +0.139 C 
ATOM      4  O   UNL     1      10.534   4.978  23.445  0.00  0.00    -0.297 OA
ATOM      5  C   UNL     1       8.722   4.914  25.052  0.00  0.00    +0.075 C 
ATOM      6  C   UNL     1       7.931   3.650  25.485  0.00  0.00    +0.012 C 
ATOM      7  C   UNL     1       8.736   2.478  24.873  0.00  0.00    +0.006 C 
ATOM      8  C   UNL     1       8.185   1.034  24.788  0.00  0.00    +0.001 C 
ATOM      9  C   UNL     1       8.136   0.306  26.151  0.00  0.00    +0.009 C 
ATOM     10  C   UNL     1       7.536  -1.115  26.036  0.00  0.00    +0.036 C 
ATOM     11  C   UNL     1       7.741  -1.825  24.711  0.00  0.00    -0.040 A 
ATOM     12  C   UNL     1       7.184  -3.108  24.516  0.00  0.00    +0.052 A 
ATOM     13  C   UNL     1       7.347  -3.776  23.298  0.00  0.00    +0.159 A 
ATOM     14  C   UNL     1       8.074  -3.184  22.275  0.00  0.00    +0.049 A 
ATOM     15  C   UNL     1       8.630  -1.926  22.461  0.00  0.00    +0.008 A 
ATOM     16  C   UNL     1       8.470  -1.225  23.668  0.00  0.00    -0.041 A 
ATOM     17  C   UNL     1       9.117   0.132  23.897  0.00  0.00    +0.023 C 
ATOM     18  C   UNL     1       9.642   0.782  22.604  0.00  0.00    +0.009 C 
ATOM     19  C   UNL     1      10.164   2.194  22.822  0.00  0.00    +0.015 C 
ENDROOT
BRANCH  13  20
ATOM     20  O   UNL     1       6.913  -5.047  23.037  0.00  0.00    -0.325 OA
BRANCH  20  21
ATOM     21  S   UNL     1       5.566  -5.312  22.172  0.00  0.00    +0.251 S 
ATOM     22  O   UNL     1       5.902  -5.599  20.798  0.00  0.00    -0.108 OA
ATOM     23  O   UNL     1       4.578  -4.327  22.548  0.00  0.00    -0.108 OA
BRANCH  21  24
ATOM     24  O   UNL     1       5.037  -6.700  22.830  0.00  0.00    -0.222 OA
ATOM     25  H   UNL     1       4.073  -6.606  22.980  0.00  0.00    +0.248 HD
ENDBRANCH  21  24
ENDBRANCH  20  21
ENDBRANCH  13  20
TORSDOF 3
ENDMDL
MODEL 8
REMARK VINA RESULT:      -7.2      2.997      7.863
REMARK  Name = 
REMARK  4 active torsions:
REMARK  status: ('A' for Active; 'I' for Inactive)
REMARK    1  A    between atoms: C_1  and  C_2
REMARK    2  A    between atoms: C_15  and  O_16
REMARK    3  A    between atoms: O_16  and  S_17
REMARK    4  A    between atoms: S_17  and  O_18
REMARK                            x       y       z     vdW  Elec       q    Type
REMARK                         _______ _______ _______ _____ _____    ______ ____
ROOT
ATOM      1  C   UNL     1       9.501  -0.674  21.870  0.00  0.00    +0.019 C 
ATOM      2  C   UNL     1       9.276   0.356  22.999  0.00  0.00    +0.029 C 
ATOM      3  C   UNL     1       9.501   1.746  22.455  0.00  0.00    +0.139 C 
ATOM      4  O   UNL     1      10.516   2.410  22.620  0.00  0.00    -0.297 OA
ATOM      5  C   UNL     1       8.275   2.229  21.717  0.00  0.00    +0.075 C 
ATOM      6  C   UNL     1       7.199   1.194  22.147  0.00  0.00    +0.012 C 
ATOM      7  C   UNL     1       7.799   0.536  23.414  0.00  0.00    +0.006 C 
ATOM      8  C   UNL     1       7.225  -0.758  24.040  0.00  0.00    +0.001 C 
ATOM      9  C   UNL     1       5.877  -0.552  24.768  0.00  0.00    +0.009 C 
ATOM     10  C   UNL     1       5.311  -1.873  25.340  0.00  0.00    +0.036 C 
ATOM     11  C   UNL     1       6.330  -2.923  25.739  0.00  0.00    -0.040 A 
ATOM     12  C   UNL     1       5.888  -4.171  26.228  0.00  0.00    +0.052 A 
ATOM     13  C   UNL     1       6.809  -5.161  26.589  0.00  0.00    +0.159 A 
ATOM     14  C   UNL     1       8.169  -4.913  26.482  0.00  0.00    +0.049 A 
ATOM     15  C   UNL     1       8.613  -3.685  26.009  0.00  0.00    +0.008 A 
ATOM     16  C   UNL     1       7.711  -2.679  25.625  0.00  0.00    -0.041 A 
ATOM     17  C   UNL     1       8.189  -1.315  25.152  0.00  0.00    +0.023 C 
ATOM     18  C   UNL     1       9.691  -1.279  24.817  0.00  0.00    +0.009 C 
ATOM     19  C   UNL     1      10.132   0.048  24.217  0.00  0.00    +0.015 C 
ENDROOT
BRANCH  13  20
ATOM     20  O   UNL     1       6.484  -6.370  27.141  0.00  0.00    -0.325 OA
BRANCH  20  21
ATOM     21  S   UNL     1       5.819  -6.466  28.619  0.00  0.00    +0.251 S 
ATOM     22  O   UNL     1       4.460  -6.942  28.526  0.00  0.00    -0.108 OA
ATOM     23  O   UNL     1       6.185  -5.283  29.364  0.00  0.00    -0.108 OA
BRANCH  21  24
ATOM     24  O   UNL     1       6.696  -7.661  29.281  0.00  0.00    -0.222 OA
ATOM     25  H   UNL     1       6.104  -8.163  29.881  0.00  0.00    +0.248 HD
ENDBRANCH  21  24
ENDBRANCH  20  21
ENDBRANCH  13  20
TORSDOF 3
ENDMDL
MODEL 9
REMARK VINA RESULT:      -7.2      4.520      8.343
REMARK  Name = 
REMARK  4 active torsions:
REMARK  status: ('A' for Active; 'I' for Inactive)
REMARK    1  A    between atoms: C_1  and  C_2
REMARK    2  A    between atoms: C_15  and  O_16
REMARK    3  A    between atoms: O_16  and  S_17
REMARK    4  A    between atoms: S_17  and  O_18
REMARK                            x       y       z     vdW  Elec       q    Type
REMARK                         _______ _______ _______ _____ _____    ______ ____
ROOT
ATOM      1  C   UNL     1       8.278   3.382  25.398  0.00  0.00    +0.019 C 
ATOM      2  C   UNL     1       8.234   3.707  23.888  0.00  0.00    +0.029 C 
ATOM      3  C   UNL     1       8.703   5.126  23.671  0.00  0.00    +0.139 C 
ATOM      4  O   UNL     1       7.969   6.085  23.475  0.00  0.00    -0.297 OA
ATOM      5  C   UNL     1      10.211   5.190  23.681  0.00  0.00    +0.075 C 
ATOM      6  C   UNL     1      10.609   3.693  23.571  0.00  0.00    +0.012 C 
ATOM      7  C   UNL     1       9.325   3.003  23.051  0.00  0.00    +0.006 C 
ATOM      8  C   UNL     1       9.137   1.466  23.054  0.00  0.00    +0.001 C 
ATOM      9  C   UNL     1       9.980   0.734  21.986  0.00  0.00    +0.009 C 
ATOM     10  C   UNL     1       9.804  -0.802  22.050  0.00  0.00    +0.036 C 
ATOM     11  C   UNL     1       8.463  -1.303  22.551  0.00  0.00    -0.040 A 
ATOM     12  C   UNL     1       8.243  -2.692  22.679  0.00  0.00    +0.052 A 
ATOM     13  C   UNL     1       7.019  -3.178  23.152  0.00  0.00    +0.159 A 
ATOM     14  C   UNL     1       6.005  -2.292  23.486  0.00  0.00    +0.049 A 
ATOM     15  C   UNL     1       6.210  -0.925  23.357  0.00  0.00    +0.008 A 
ATOM     16  C   UNL     1       7.434  -0.408  22.898  0.00  0.00    -0.041 A 
ATOM     17  C   UNL     1       7.650   1.085  22.708  0.00  0.00    +0.023 C 
ATOM     18  C   UNL     1       6.564   1.947  23.375  0.00  0.00    +0.009 C 
ATOM     19  C   UNL     1       6.860   3.437  23.297  0.00  0.00    +0.015 C 
ENDROOT
BRANCH  13  20
ATOM     20  O   UNL     1       6.683  -4.501  23.241  0.00  0.00    -0.325 OA
BRANCH  20  21
ATOM     21  S   UNL     1       6.418  -5.390  21.909  0.00  0.00    +0.251 S 
ATOM     22  O   UNL     1       7.557  -6.235  21.637  0.00  0.00    -0.108 OA
ATOM     23  O   UNL     1       5.813  -4.545  20.905  0.00  0.00    -0.108 OA
BRANCH  21  24
ATOM     24  O   UNL     1       5.217  -6.361  22.412  0.00  0.00    -0.222 OA
ATOM     25  H   UNL     1       4.667  -5.846  23.040  0.00  0.00    +0.248 HD
ENDBRANCH  21  24
ENDBRANCH  20  21
ENDBRANCH  13  20
TORSDOF 3
ENDMDL
