MODEL 1
REMARK VINA RESULT:      -7.5      0.000      0.000
REMARK  Name = 
REMARK  6 active torsions:
REMARK  status: ('A' for Active; 'I' for Inactive)
REMARK    1  A    between atoms: O_1  and  C_2
REMARK    2  A    between atoms: C_2  and  C_4
REMARK    3  A    between atoms: C_5  and  N_6
REMARK    4  A    between atoms: C_7  and  C_9
REMARK    5  A    between atoms: C_19  and  O_20
REMARK    6  A    between atoms: O_20  and  C_21
REMARK                            x       y       z     vdW  Elec       q    Type
REMARK                         _______ _______ _______ _____ _____    ______ ____
ROOT
ATOM      1  C   UNL     1       8.554  -4.076  24.338  0.00  0.00    +0.083 A 
ATOM      2  C   UNL     1       9.609  -3.173  24.127  0.00  0.00    +0.063 A 
ATOM      3  C   UNL     1       9.502  -2.148  23.187  0.00  0.00    +0.133 A 
ATOM      4  C   UNL     1       8.314  -2.030  22.455  0.00  0.00    +0.048 A 
ATOM      5  C   UNL     1       7.275  -2.955  22.615  0.00  0.00    +0.028 A 
ATOM      6  C   UNL     1       7.392  -3.987  23.550  0.00  0.00    +0.048 A 
ENDROOT
BRANCH   6   7
ATOM      7  N   UNL     1       6.344  -4.908  23.751  0.00  0.00    -0.281 N 
ATOM      8  H   UNL     1       6.235  -5.614  23.022  0.00  0.00    +0.155 HD
ATOM      9  C   UNL     1       5.181  -4.633  24.442  0.00  0.00    +0.250 C 
ATOM     10  O   UNL     1       4.893  -3.569  24.976  0.00  0.00    -0.270 OA
BRANCH   9  11
ATOM     11  C   UNL     1       4.154  -5.702  24.349  0.00  0.00    +0.055 A 
ATOM     12  C   UNL     1       3.302  -5.711  23.239  0.00  0.00    +0.016 A 
ATOM     13  C   UNL     1       2.359  -6.732  23.079  0.00  0.00    +0.021 A 
ATOM     14  C   UNL     1       2.263  -7.742  24.035  0.00  0.00    +0.042 A 
ATOM     15 CL   UNL     1       1.112  -9.003  23.836  0.00  0.00    -0.083 Cl
ATOM     16  C   UNL     1       3.094  -7.737  25.153  0.00  0.00    +0.040 A 
ATOM     17  C   UNL     1       4.042  -6.719  25.320  0.00  0.00    +0.054 A 
ATOM     18 CL   UNL     1       4.991  -6.760  26.762  0.00  0.00    -0.083 Cl
ENDBRANCH   9  11
ENDBRANCH   6   7
BRANCH   1  19
ATOM     19  C   UNL     1       8.706  -5.197  25.314  0.00  0.00    +0.339 C 
ATOM     20  O   UNL     1       7.956  -5.352  26.266  0.00  0.00    -0.245 OA
BRANCH  19  21
ATOM     21  O   UNL     1       9.777  -5.993  25.118  0.00  0.00    -0.477 OA
ATOM     22  H   UNL     1       9.748  -6.867  25.546  0.00  0.00    +0.295 HD
ENDBRANCH  19  21
ENDBRANCH   1  19
BRANCH   3  23
ATOM     23  O   UNL     1      10.444  -1.180  22.913  0.00  0.00    -0.424 OA
BRANCH  23  24
ATOM     24  C   UNL     1      10.188   0.170  23.124  0.00  0.00    +0.323 A 
ATOM     25  N   UNL     1       9.950   0.636  24.363  0.00  0.00    -0.203 NA
ATOM     26  C   UNL     1       9.643   1.941  24.468  0.00  0.00    +0.118 A 
ATOM     27  C   UNL     1       9.524   2.779  23.387  0.00  0.00    +0.040 A 
ATOM     28  C   UNL     1       9.750   2.196  22.164  0.00  0.00    +0.118 A 
ATOM     29  N   UNL     1      10.076   0.899  22.002  0.00  0.00    -0.203 NA
ENDBRANCH  23  24
ENDBRANCH   3  23
TORSDOF 6
ENDMDL
MODEL 2
REMARK VINA RESULT:      -7.5      2.711      3.896
REMARK  Name = 
REMARK  6 active torsions:
REMARK  status: ('A' for Active; 'I' for Inactive)
REMARK    1  A    between atoms: O_1  and  C_2
REMARK    2  A    between atoms: C_2  and  C_4
REMARK    3  A    between atoms: C_5  and  N_6
REMARK    4  A    between atoms: C_7  and  C_9
REMARK    5  A    between atoms: C_19  and  O_20
REMARK    6  A    between atoms: O_20  and  C_21
REMARK                            x       y       z     vdW  Elec       q    Type
REMARK                         _______ _______ _______ _____ _____    ______ ____
ROOT
ATOM      1  C   UNL     1       8.954  -0.352  25.089  0.00  0.00    +0.083 A 
ATOM      2  C   UNL     1       9.802   0.762  24.989  0.00  0.00    +0.063 A 
ATOM      3  C   UNL     1      10.341   1.150  23.762  0.00  0.00    +0.133 A 
ATOM      4  C   UNL     1      10.016   0.405  22.621  0.00  0.00    +0.048 A 
ATOM      5  C   UNL     1       9.217  -0.741  22.715  0.00  0.00    +0.028 A 
ATOM      6  C   UNL     1       8.689  -1.131  23.948  0.00  0.00    +0.048 A 
ENDROOT
BRANCH   6   7
ATOM      7  N   UNL     1       7.853  -2.261  24.057  0.00  0.00    -0.281 N 
ATOM      8  H   UNL     1       6.944  -2.094  24.488  0.00  0.00    +0.155 HD
ATOM      9  C   UNL     1       8.304  -3.560  24.186  0.00  0.00    +0.250 C 
ATOM     10  O   UNL     1       9.475  -3.917  24.222  0.00  0.00    -0.270 OA
BRANCH   9  11
ATOM     11  C   UNL     1       7.232  -4.546  24.475  0.00  0.00    +0.055 A 
ATOM     12  C   UNL     1       6.911  -4.806  25.812  0.00  0.00    +0.016 A 
ATOM     13  C   UNL     1       5.869  -5.683  26.132  0.00  0.00    +0.021 A 
ATOM     14  C   UNL     1       5.151  -6.308  25.112  0.00  0.00    +0.042 A 
ATOM     15 CL   UNL     1       3.865  -7.378  25.502  0.00  0.00    -0.083 Cl
ATOM     16  C   UNL     1       5.472  -6.071  23.777  0.00  0.00    +0.040 A 
ATOM     17  C   UNL     1       6.512  -5.193  23.449  0.00  0.00    +0.054 A 
ATOM     18 CL   UNL     1       6.877  -5.001  21.771  0.00  0.00    -0.083 Cl
ENDBRANCH   9  11
ENDBRANCH   6   7
BRANCH   1  19
ATOM     19  C   UNL     1       8.427  -0.780  26.420  0.00  0.00    +0.339 C 
ATOM     20  O   UNL     1       7.285  -1.184  26.580  0.00  0.00    -0.245 OA
BRANCH  19  21
ATOM     21  O   UNL     1       9.275  -0.622  27.457  0.00  0.00    -0.477 OA
ATOM     22  H   UNL     1       9.362  -1.380  28.062  0.00  0.00    +0.295 HD
ENDBRANCH  19  21
ENDBRANCH   1  19
BRANCH   3  23
ATOM     23  O   UNL     1      11.150   2.239  23.525  0.00  0.00    -0.424 OA
BRANCH  23  24
ATOM     24  C   UNL     1      10.671   3.540  23.616  0.00  0.00    +0.323 A 
ATOM     25  N   UNL     1       9.348   3.782  23.638  0.00  0.00    -0.203 NA
ATOM     26  C   UNL     1       8.971   5.073  23.657  0.00  0.00    +0.118 A 
ATOM     27  C   UNL     1       9.857   6.121  23.611  0.00  0.00    +0.040 A 
ATOM     28  C   UNL     1      11.183   5.766  23.552  0.00  0.00    +0.118 A 
ATOM     29  N   UNL     1      11.617   4.491  23.548  0.00  0.00    -0.203 NA
ENDBRANCH  23  24
ENDBRANCH   3  23
TORSDOF 6
ENDMDL
MODEL 3
REMARK VINA RESULT:      -7.4      4.106      8.914
REMARK  Name = 
REMARK  6 active torsions:
REMARK  status: ('A' for Active; 'I' for Inactive)
REMARK    1  A    between atoms: O_1  and  C_2
REMARK    2  A    between atoms: C_2  and  C_4
REMARK    3  A    between atoms: C_5  and  N_6
REMARK    4  A    between atoms: C_7  and  C_9
REMARK    5  A    between atoms: C_19  and  O_20
REMARK    6  A    between atoms: O_20  and  C_21
REMARK                            x       y       z     vdW  Elec       q    Type
REMARK                         _______ _______ _______ _____ _____    ______ ____
ROOT
ATOM      1  C   UNL     1       9.148  -2.319  24.120  0.00  0.00    +0.083 A 
ATOM      2  C   UNL     1       8.984  -3.680  24.421  0.00  0.00    +0.063 A 
ATOM      3  C   UNL     1       8.587  -4.095  25.693  0.00  0.00    +0.133 A 
ATOM      4  C   UNL     1       8.350  -3.121  26.672  0.00  0.00    +0.048 A 
ATOM      5  C   UNL     1       8.563  -1.764  26.403  0.00  0.00    +0.028 A 
ATOM      6  C   UNL     1       8.971  -1.356  25.130  0.00  0.00    +0.048 A 
ENDROOT
BRANCH   6   7
ATOM      7  N   UNL     1       9.156   0.009  24.829  0.00  0.00    -0.281 N 
ATOM      8  H   UNL     1       9.915   0.469  25.333  0.00  0.00    +0.155 HD
ATOM      9  C   UNL     1       8.153   0.866  24.424  0.00  0.00    +0.250 C 
ATOM     10  O   UNL     1       6.974   0.574  24.265  0.00  0.00    -0.270 OA
BRANCH   9  11
ATOM     11  C   UNL     1       8.565   2.291  24.356  0.00  0.00    +0.055 A 
ATOM     12  C   UNL     1       8.051   3.178  25.308  0.00  0.00    +0.016 A 
ATOM     13  C   UNL     1       8.457   4.517  25.319  0.00  0.00    +0.021 A 
ATOM     14  C   UNL     1       9.373   4.972  24.371  0.00  0.00    +0.042 A 
ATOM     15 CL   UNL     1       9.880   6.614  24.389  0.00  0.00    -0.083 Cl
ATOM     16  C   UNL     1       9.880   4.103  23.406  0.00  0.00    +0.040 A 
ATOM     17  C   UNL     1       9.480   2.761  23.390  0.00  0.00    +0.054 A 
ATOM     18 CL   UNL     1      10.115   1.769  22.126  0.00  0.00    -0.083 Cl
ENDBRANCH   9  11
ENDBRANCH   6   7
BRANCH   1  19
ATOM     19  C   UNL     1       9.621  -1.899  22.767  0.00  0.00    +0.339 C 
ATOM     20  O   UNL     1      10.805  -1.828  22.473  0.00  0.00    -0.245 OA
BRANCH  19  21
ATOM     21  O   UNL     1       8.653  -1.528  21.904  0.00  0.00    -0.477 OA
ATOM     22  H   UNL     1       8.250  -2.240  21.376  0.00  0.00    +0.295 HD
ENDBRANCH  19  21
ENDBRANCH   1  19
BRANCH   3  23
ATOM     23  O   UNL     1       8.355  -5.389  26.103  0.00  0.00    -0.424 OA
BRANCH  23  24
ATOM     24  C   UNL     1       7.180  -5.753  26.749  0.00  0.00    +0.323 A 
ATOM     25  N   UNL     1       7.154  -5.913  28.084  0.00  0.00    -0.203 NA
ATOM     26  C   UNL     1       5.994  -6.333  28.619  0.00  0.00    +0.118 A 
ATOM     27  C   UNL     1       4.883  -6.639  27.872  0.00  0.00    +0.040 A 
ATOM     28  C   UNL     1       5.026  -6.478  26.516  0.00  0.00    +0.118 A 
ATOM     29  N   UNL     1       6.157  -6.044  25.928  0.00  0.00    -0.203 NA
ENDBRANCH  23  24
ENDBRANCH   3  23
TORSDOF 6
ENDMDL
MODEL 4
REMARK VINA RESULT:      -7.3      3.859      8.872
REMARK  Name = 
REMARK  6 active torsions:
REMARK  status: ('A' for Active; 'I' for Inactive)
REMARK    1  A    between atoms: O_1  and  C_2
REMARK    2  A    between atoms: C_2  and  C_4
REMARK    3  A    between atoms: C_5  and  N_6
REMARK    4  A    between atoms: C_7  and  C_9
REMARK    5  A    between atoms: C_19  and  O_20
REMARK    6  A    between atoms: O_20  and  C_21
REMARK                            x       y       z     vdW  Elec       q    Type
REMARK                         _______ _______ _______ _____ _____    ______ ____
ROOT
ATOM      1  C   UNL     1       8.215  -2.164  22.715  0.00  0.00    +0.083 A 
ATOM      2  C   UNL     1       7.746  -3.484  22.619  0.00  0.00    +0.063 A 
ATOM      3  C   UNL     1       6.473  -3.832  23.073  0.00  0.00    +0.133 A 
ATOM      4  C   UNL     1       5.663  -2.833  23.627  0.00  0.00    +0.048 A 
ATOM      5  C   UNL     1       6.138  -1.525  23.781  0.00  0.00    +0.028 A 
ATOM      6  C   UNL     1       7.417  -1.185  23.334  0.00  0.00    +0.048 A 
ENDROOT
BRANCH   6   7
ATOM      7  N   UNL     1       7.900   0.135  23.447  0.00  0.00    -0.281 N 
ATOM      8  H   UNL     1       8.204   0.566  22.574  0.00  0.00    +0.155 HD
ATOM      9  C   UNL     1       8.514   0.652  24.571  0.00  0.00    +0.250 C 
ATOM     10  O   UNL     1       8.725   0.053  25.618  0.00  0.00    -0.270 OA
BRANCH   9  11
ATOM     11  C   UNL     1       9.102   2.000  24.372  0.00  0.00    +0.055 A 
ATOM     12  C   UNL     1      10.280   2.109  23.624  0.00  0.00    +0.016 A 
ATOM     13  C   UNL     1      10.838   3.364  23.361  0.00  0.00    +0.021 A 
ATOM     14  C   UNL     1      10.222   4.514  23.854  0.00  0.00    +0.042 A 
ATOM     15 CL   UNL     1      10.901   6.058  23.525  0.00  0.00    -0.083 Cl
ATOM     16  C   UNL     1       9.059   4.419  24.615  0.00  0.00    +0.040 A 
ATOM     17  C   UNL     1       8.492   3.166  24.881  0.00  0.00    +0.054 A 
ATOM     18 CL   UNL     1       7.082   3.138  25.878  0.00  0.00    -0.083 Cl
ENDBRANCH   9  11
ENDBRANCH   6   7
BRANCH   1  19
ATOM     19  C   UNL     1       9.599  -1.823  22.268  0.00  0.00    +0.339 C 
ATOM     20  O   UNL     1      10.598  -2.258  22.819  0.00  0.00    -0.245 OA
BRANCH  19  21
ATOM     21  O   UNL     1       9.678  -0.937  21.254  0.00  0.00    -0.477 OA
ATOM     22  H   UNL     1       8.832  -0.595  20.913  0.00  0.00    +0.295 HD
ENDBRANCH  19  21
ENDBRANCH   1  19
BRANCH   3  23
ATOM     23  O   UNL     1       5.884  -5.075  23.001  0.00  0.00    -0.424 OA
BRANCH  23  24
ATOM     24  C   UNL     1       5.489  -5.764  24.142  0.00  0.00    +0.323 A 
ATOM     25  N   UNL     1       4.396  -6.547  24.123  0.00  0.00    -0.203 NA
ATOM     26  C   UNL     1       4.044  -7.121  25.288  0.00  0.00    +0.118 A 
ATOM     27  C   UNL     1       4.713  -6.907  26.468  0.00  0.00    +0.040 A 
ATOM     28  C   UNL     1       5.791  -6.061  26.387  0.00  0.00    +0.118 A 
ATOM     29  N   UNL     1       6.198  -5.473  25.245  0.00  0.00    -0.203 NA
ENDBRANCH  23  24
ENDBRANCH   3  23
TORSDOF 6
ENDMDL
MODEL 5
REMARK VINA RESULT:      -7.2      3.552      5.604
REMARK  Name = 
REMARK  6 active torsions:
REMARK  status: ('A' for Active; 'I' for Inactive)
REMARK    1  A    between atoms: O_1  and  C_2
REMARK    2  A    between atoms: C_2  and  C_4
REMARK    3  A    between atoms: C_5  and  N_6
REMARK    4  A    between atoms: C_7  and  C_9
REMARK    5  A    between atoms: C_19  and  O_20
REMARK    6  A    between atoms: O_20  and  C_21
REMARK                            x       y       z     vdW  Elec       q    Type
REMARK                         _______ _______ _______ _____ _____    ______ ____
ROOT
ATOM      1  C   UNL     1       9.357   1.647  24.026  0.00  0.00    +0.083 A 
ATOM      2  C   UNL     1       9.616   3.024  24.122  0.00  0.00    +0.063 A 
ATOM      3  C   UNL     1       8.898   3.947  23.360  0.00  0.00    +0.133 A 
ATOM      4  C   UNL     1       7.905   3.473  22.494  0.00  0.00    +0.048 A 
ATOM      5  C   UNL     1       7.674   2.100  22.346  0.00  0.00    +0.028 A 
ATOM      6  C   UNL     1       8.403   1.180  23.104  0.00  0.00    +0.048 A 
ENDROOT
BRANCH   6   7
ATOM      7  N   UNL     1       8.161  -0.205  22.995  0.00  0.00    -0.281 N 
ATOM      8  H   UNL     1       8.349  -0.612  22.079  0.00  0.00    +0.155 HD
ATOM      9  C   UNL     1       7.220  -0.896  23.733  0.00  0.00    +0.250 C 
ATOM     10  O   UNL     1       6.473  -0.420  24.577  0.00  0.00    -0.270 OA
BRANCH   9  11
ATOM     11  C   UNL     1       7.026  -2.303  23.298  0.00  0.00    +0.055 A 
ATOM     12  C   UNL     1       5.873  -2.621  22.573  0.00  0.00    +0.016 A 
ATOM     13  C   UNL     1       5.676  -3.920  22.092  0.00  0.00    +0.021 A 
ATOM     14  C   UNL     1       6.630  -4.905  22.344  0.00  0.00    +0.042 A 
ATOM     15 CL   UNL     1       6.394  -6.499  21.747  0.00  0.00    -0.083 Cl
ATOM     16  C   UNL     1       7.775  -4.606  23.080  0.00  0.00    +0.040 A 
ATOM     17  C   UNL     1       7.980  -3.307  23.563  0.00  0.00    +0.054 A 
ATOM     18 CL   UNL     1       9.398  -3.039  24.513  0.00  0.00    -0.083 Cl
ENDBRANCH   9  11
ENDBRANCH   6   7
BRANCH   1  19
ATOM     19  C   UNL     1      10.170   0.672  24.813  0.00  0.00    +0.339 C 
ATOM     20  O   UNL     1      11.234   0.225  24.415  0.00  0.00    -0.245 OA
BRANCH  19  21
ATOM     21  O   UNL     1       9.614   0.255  25.970  0.00  0.00    -0.477 OA
ATOM     22  H   UNL     1      10.212   0.190  26.736  0.00  0.00    +0.295 HD
ENDBRANCH  19  21
ENDBRANCH   1  19
BRANCH   3  23
ATOM     23  O   UNL     1       9.028   5.318  23.390  0.00  0.00    -0.424 OA
BRANCH  23  24
ATOM     24  C   UNL     1      10.082   5.938  24.049  0.00  0.00    +0.323 A 
ATOM     25  N   UNL     1      11.345   5.793  23.609  0.00  0.00    -0.203 NA
ATOM     26  C   UNL     1      12.311   6.369  24.346  0.00  0.00    +0.118 A 
ATOM     27  C   UNL     1      12.069   7.042  25.519  0.00  0.00    +0.040 A 
ATOM     28  C   UNL     1      10.750   7.101  25.899  0.00  0.00    +0.118 A 
ATOM     29  N   UNL     1       9.741   6.556  25.192  0.00  0.00    -0.203 NA
ENDBRANCH  23  24
ENDBRANCH   3  23
TORSDOF 6
ENDMDL
MODEL 6
REMARK VINA RESULT:      -7.1      3.704      8.707
REMARK  Name = 
REMARK  6 active torsions:
REMARK  status: ('A' for Active; 'I' for Inactive)
REMARK    1  A    between atoms: O_1  and  C_2
REMARK    2  A    between atoms: C_2  and  C_4
REMARK    3  A    between atoms: C_5  and  N_6
REMARK    4  A    between atoms: C_7  and  C_9
REMARK    5  A    between atoms: C_19  and  O_20
REMARK    6  A    between atoms: O_20  and  C_21
REMARK                            x       y       z     vdW  Elec       q    Type
REMARK                         _______ _______ _______ _____ _____    ______ ____
ROOT
ATOM      1  C   UNL     1       8.068  -4.248  25.246  0.00  0.00    +0.083 A 
ATOM      2  C   UNL     1       7.520  -5.481  25.636  0.00  0.00    +0.063 A 
ATOM      3  C   UNL     1       6.219  -5.567  26.132  0.00  0.00    +0.133 A 
ATOM      4  C   UNL     1       5.461  -4.393  26.233  0.00  0.00    +0.048 A 
ATOM      5  C   UNL     1       6.013  -3.150  25.901  0.00  0.00    +0.028 A 
ATOM      6  C   UNL     1       7.320  -3.069  25.415  0.00  0.00    +0.048 A 
ENDROOT
BRANCH   6   7
ATOM      7  N   UNL     1       7.881  -1.830  25.042  0.00  0.00    -0.281 N 
ATOM      8  H   UNL     1       8.425  -1.838  24.178  0.00  0.00    +0.155 HD
ATOM      9  C   UNL     1       8.252  -0.839  25.928  0.00  0.00    +0.250 C 
ATOM     10  O   UNL     1       8.148  -0.885  27.147  0.00  0.00    -0.270 OA
BRANCH   9  11
ATOM     11  C   UNL     1       8.993   0.285  25.303  0.00  0.00    +0.055 A 
ATOM     12  C   UNL     1      10.315   0.069  24.901  0.00  0.00    +0.016 A 
ATOM     13  C   UNL     1      11.034   1.080  24.255  0.00  0.00    +0.021 A 
ATOM     14  C   UNL     1      10.430   2.314  24.015  0.00  0.00    +0.042 A 
ATOM     15 CL   UNL     1      11.308   3.555  23.213  0.00  0.00    -0.083 Cl
ATOM     16  C   UNL     1       9.120   2.550  24.425  0.00  0.00    +0.040 A 
ATOM     17  C   UNL     1       8.393   1.541  25.071  0.00  0.00    +0.054 A 
ATOM     18 CL   UNL     1       6.795   1.938  25.594  0.00  0.00    -0.083 Cl
ENDBRANCH   9  11
ENDBRANCH   6   7
BRANCH   1  19
ATOM     19  C   UNL     1       9.480  -4.171  24.763  0.00  0.00    +0.339 C 
ATOM     20  O   UNL     1       9.861  -3.326  23.967  0.00  0.00    -0.245 OA
BRANCH  19  21
ATOM     21  O   UNL     1      10.299  -5.145  25.210  0.00  0.00    -0.477 OA
ATOM     22  H   UNL     1      10.086  -6.051  24.924  0.00  0.00    +0.295 HD
ENDBRANCH  19  21
ENDBRANCH   1  19
BRANCH   3  23
ATOM     23  O   UNL     1       5.556  -6.713  26.510  0.00  0.00    -0.424 OA
BRANCH  23  24
ATOM     24  C   UNL     1       4.298  -7.029  26.011  0.00  0.00    +0.323 A 
ATOM     25  N   UNL     1       4.144  -7.397  24.727  0.00  0.00    -0.203 NA
ATOM     26  C   UNL     1       2.884  -7.616  24.309  0.00  0.00    +0.118 A 
ATOM     27  C   UNL     1       1.781  -7.441  25.108  0.00  0.00    +0.040 A 
ATOM     28  C   UNL     1       2.045  -7.028  26.391  0.00  0.00    +0.118 A 
ATOM     29  N   UNL     1       3.286  -6.809  26.867  0.00  0.00    -0.203 NA
ENDBRANCH  23  24
ENDBRANCH   3  23
TORSDOF 6
ENDMDL
MODEL 7
REMARK VINA RESULT:      -7.0      3.658      8.595
REMARK  Name = 
REMARK  6 active torsions:
REMARK  status: ('A' for Active; 'I' for Inactive)
REMARK    1  A    between atoms: O_1  and  C_2
REMARK    2  A    between atoms: C_2  and  C_4
REMARK    3  A    between atoms: C_5  and  N_6
REMARK    4  A    between atoms: C_7  and  C_9
REMARK    5  A    between atoms: C_19  and  O_20
REMARK    6  A    between atoms: O_20  and  C_21
REMARK                            x       y       z     vdW  Elec       q    Type
REMARK                         _______ _______ _______ _____ _____    ______ ____
ROOT
ATOM      1  C   UNL     1       8.267  -4.182  25.353  0.00  0.00    +0.083 A 
ATOM      2  C   UNL     1       7.679  -5.370  25.814  0.00  0.00    +0.063 A 
ATOM      3  C   UNL     1       6.411  -5.369  26.396  0.00  0.00    +0.133 A 
ATOM      4  C   UNL     1       5.728  -4.152  26.510  0.00  0.00    +0.048 A 
ATOM      5  C   UNL     1       6.324  -2.951  26.107  0.00  0.00    +0.028 A 
ATOM      6  C   UNL     1       7.599  -2.957  25.535  0.00  0.00    +0.048 A 
ENDROOT
BRANCH   6   7
ATOM      7  N   UNL     1       8.202  -1.763  25.089  0.00  0.00    -0.281 N 
ATOM      8  H   UNL     1       8.669  -1.214  25.811  0.00  0.00    +0.155 HD
ATOM      9  C   UNL     1       7.764  -1.018  24.012  0.00  0.00    +0.250 C 
ATOM     10  O   UNL     1       6.807  -1.280  23.295  0.00  0.00    -0.270 OA
BRANCH   9  11
ATOM     11  C   UNL     1       8.447   0.292  23.866  0.00  0.00    +0.055 A 
ATOM     12  C   UNL     1       8.185   1.288  24.812  0.00  0.00    +0.016 A 
ATOM     13  C   UNL     1       8.849   2.518  24.749  0.00  0.00    +0.021 A 
ATOM     14  C   UNL     1       9.773   2.754  23.732  0.00  0.00    +0.042 A 
ATOM     15 CL   UNL     1      10.597   4.260  23.657  0.00  0.00    -0.083 Cl
ATOM     16  C   UNL     1      10.032   1.777  22.773  0.00  0.00    +0.040 A 
ATOM     17  C   UNL     1       9.372   0.543  22.831  0.00  0.00    +0.054 A 
ATOM     18 CL   UNL     1       9.712  -0.588  21.570  0.00  0.00    -0.083 Cl
ENDBRANCH   9  11
ENDBRANCH   6   7
BRANCH   1  19
ATOM     19  C   UNL     1       9.646  -4.197  24.778  0.00  0.00    +0.339 C 
ATOM     20  O   UNL     1      10.040  -3.360  23.981  0.00  0.00    -0.245 OA
BRANCH  19  21
ATOM     21  O   UNL     1      10.414  -5.245  25.142  0.00  0.00    -0.477 OA
ATOM     22  H   UNL     1      11.372  -5.147  25.002  0.00  0.00    +0.295 HD
ENDBRANCH  19  21
ENDBRANCH   1  19
BRANCH   3  23
ATOM     23  O   UNL     1       5.712  -6.465  26.850  0.00  0.00    -0.424 OA
BRANCH  23  24
ATOM     24  C   UNL     1       4.514  -6.862  26.267  0.00  0.00    +0.323 A 
ATOM     25  N   UNL     1       4.466  -7.202  24.967  0.00  0.00    -0.203 NA
ATOM     26  C   UNL     1       3.255  -7.506  24.467  0.00  0.00    +0.118 A 
ATOM     27  C   UNL     1       2.096  -7.441  25.200  0.00  0.00    +0.040 A 
ATOM     28  C   UNL     1       2.250  -7.046  26.507  0.00  0.00    +0.118 A 
ATOM     29  N   UNL     1       3.439  -6.746  27.064  0.00  0.00    -0.203 NA
ENDBRANCH  23  24
ENDBRANCH   3  23
TORSDOF 6
ENDMDL
MODEL 8
REMARK VINA RESULT:      -7.0      1.899      2.528
REMARK  Name = 
REMARK  6 active torsions:
REMARK  status: ('A' for Active; 'I' for Inactive)
REMARK    1  A    between atoms: O_1  and  C_2
REMARK    2  A    between atoms: C_2  and  C_4
REMARK    3  A    between atoms: C_5  and  N_6
REMARK    4  A    between atoms: C_7  and  C_9
REMARK    5  A    between atoms: C_19  and  O_20
REMARK    6  A    between atoms: O_20  and  C_21
REMARK                            x       y       z     vdW  Elec       q    Type
REMARK                         _______ _______ _______ _____ _____    ______ ____
ROOT
ATOM      1  C   UNL     1       8.400  -3.893  25.091  0.00  0.00    +0.083 A 
ATOM      2  C   UNL     1       9.358  -3.264  24.281  0.00  0.00    +0.063 A 
ATOM      3  C   UNL     1       8.984  -2.322  23.322  0.00  0.00    +0.133 A 
ATOM      4  C   UNL     1       7.626  -2.009  23.183  0.00  0.00    +0.048 A 
ATOM      5  C   UNL     1       6.654  -2.668  23.945  0.00  0.00    +0.028 A 
ATOM      6  C   UNL     1       7.034  -3.619  24.896  0.00  0.00    +0.048 A 
ENDROOT
BRANCH   6   7
ATOM      7  N   UNL     1       6.073  -4.268  25.698  0.00  0.00    -0.281 N 
ATOM      8  H   UNL     1       6.204  -4.169  26.705  0.00  0.00    +0.155 HD
ATOM      9  C   UNL     1       5.388  -5.409  25.332  0.00  0.00    +0.250 C 
ATOM     10  O   UNL     1       5.508  -6.015  24.274  0.00  0.00    -0.270 OA
BRANCH   9  11
ATOM     11  C   UNL     1       4.576  -6.004  26.424  0.00  0.00    +0.055 A 
ATOM     12  C   UNL     1       5.231  -6.421  27.587  0.00  0.00    +0.016 A 
ATOM     13  C   UNL     1       4.501  -6.934  28.665  0.00  0.00    +0.021 A 
ATOM     14  C   UNL     1       3.113  -7.036  28.576  0.00  0.00    +0.042 A 
ATOM     15 CL   UNL     1       2.213  -7.656  29.903  0.00  0.00    -0.083 Cl
ATOM     16  C   UNL     1       2.449  -6.640  27.417  0.00  0.00    +0.040 A 
ATOM     17  C   UNL     1       3.173  -6.124  26.334  0.00  0.00    +0.054 A 
ATOM     18 CL   UNL     1       2.276  -5.711  24.917  0.00  0.00    -0.083 Cl
ENDBRANCH   9  11
ENDBRANCH   6   7
BRANCH   1  19
ATOM     19  C   UNL     1       8.815  -4.935  26.078  0.00  0.00    +0.339 C 
ATOM     20  O   UNL     1       8.400  -4.961  27.226  0.00  0.00    -0.245 OA
BRANCH  19  21
ATOM     21  O   UNL     1       9.743  -5.811  25.640  0.00  0.00    -0.477 OA
ATOM     22  H   UNL     1      10.294  -6.233  26.322  0.00  0.00    +0.295 HD
ENDBRANCH  19  21
ENDBRANCH   1  19
BRANCH   3  23
ATOM     23  O   UNL     1       9.825  -1.610  22.495  0.00  0.00    -0.424 OA
BRANCH  23  24
ATOM     24  C   UNL     1      10.127  -0.274  22.733  0.00  0.00    +0.323 A 
ATOM     25  N   UNL     1      10.613   0.116  23.924  0.00  0.00    -0.203 NA
ATOM     26  C   UNL     1      10.811   1.435  24.093  0.00  0.00    +0.118 A 
ATOM     27  C   UNL     1      10.502   2.374  23.140  0.00  0.00    +0.040 A 
ATOM     28  C   UNL     1       9.976   1.875  21.974  0.00  0.00    +0.118 A 
ATOM     29  N   UNL     1       9.772   0.563  21.745  0.00  0.00    -0.203 NA
ENDBRANCH  23  24
ENDBRANCH   3  23
TORSDOF 6
ENDMDL
MODEL 9
REMARK VINA RESULT:      -7.0      1.553      2.394
REMARK  Name = 
REMARK  6 active torsions:
REMARK  status: ('A' for Active; 'I' for Inactive)
REMARK    1  A    between atoms: O_1  and  C_2
REMARK    2  A    between atoms: C_2  and  C_4
REMARK    3  A    between atoms: C_5  and  N_6
REMARK    4  A    between atoms: C_7  and  C_9
REMARK    5  A    between atoms: C_19  and  O_20
REMARK    6  A    between atoms: O_20  and  C_21
REMARK                            x       y       z     vdW  Elec       q    Type
REMARK                         _______ _______ _______ _____ _____    ______ ____
ROOT
ATOM      1  C   UNL     1       7.219  -4.223  22.732  0.00  0.00    +0.083 A 
ATOM      2  C   UNL     1       8.313  -3.356  22.588  0.00  0.00    +0.063 A 
ATOM      3  C   UNL     1       9.072  -2.962  23.691  0.00  0.00    +0.133 A 
ATOM      4  C   UNL     1       8.722  -3.454  24.955  0.00  0.00    +0.048 A 
ATOM      5  C   UNL     1       7.600  -4.275  25.122  0.00  0.00    +0.028 A 
ATOM      6  C   UNL     1       6.838  -4.657  24.016  0.00  0.00    +0.048 A 
ENDROOT
BRANCH   6   7
ATOM      7  N   UNL     1       5.726  -5.511  24.159  0.00  0.00    -0.281 N 
ATOM      8  H   UNL     1       5.809  -6.419  23.701  0.00  0.00    +0.155 HD
ATOM      9  C   UNL     1       4.423  -5.082  24.320  0.00  0.00    +0.250 C 
ATOM     10  O   UNL     1       4.047  -3.918  24.363  0.00  0.00    -0.270 OA
BRANCH   9  11
ATOM     11  C   UNL     1       3.416  -6.171  24.255  0.00  0.00    +0.055 A 
ATOM     12  C   UNL     1       2.631  -6.284  23.102  0.00  0.00    +0.016 A 
ATOM     13  C   UNL     1       1.710  -7.329  22.972  0.00  0.00    +0.021 A 
ATOM     14  C   UNL     1       1.568  -8.260  24.001  0.00  0.00    +0.042 A 
ATOM     15 CL   UNL     1       0.444  -9.549  23.840  0.00  0.00    -0.083 Cl
ATOM     16  C   UNL     1       2.331  -8.150  25.162  0.00  0.00    +0.040 A 
ATOM     17  C   UNL     1       3.257  -7.107  25.299  0.00  0.00    +0.054 A 
ATOM     18 CL   UNL     1       4.119  -7.015  26.792  0.00  0.00    -0.083 Cl
ENDBRANCH   9  11
ENDBRANCH   6   7
BRANCH   1  19
ATOM     19  C   UNL     1       6.389  -4.593  21.547  0.00  0.00    +0.339 C 
ATOM     20  O   UNL     1       6.424  -5.702  21.035  0.00  0.00    -0.245 OA
BRANCH  19  21
ATOM     21  O   UNL     1       5.647  -3.595  21.024  0.00  0.00    -0.477 OA
ATOM     22  H   UNL     1       6.102  -2.998  20.405  0.00  0.00    +0.295 HD
ENDBRANCH  19  21
ENDBRANCH   1  19
BRANCH   3  23
ATOM     23  O   UNL     1      10.185  -2.152  23.677  0.00  0.00    -0.424 OA
BRANCH  23  24
ATOM     24  C   UNL     1      10.092  -0.784  23.446  0.00  0.00    +0.323 A 
ATOM     25  N   UNL     1       9.906  -0.312  22.201  0.00  0.00    -0.203 NA
ATOM     26  C   UNL     1       9.898   1.025  22.057  0.00  0.00    +0.118 A 
ATOM     27  C   UNL     1      10.110   1.898  23.095  0.00  0.00    +0.040 A 
ATOM     28  C   UNL     1      10.328   1.314  24.319  0.00  0.00    +0.118 A 
ATOM     29  N   UNL     1      10.330  -0.018  24.523  0.00  0.00    -0.203 NA
ENDBRANCH  23  24
ENDBRANCH   3  23
TORSDOF 6
ENDMDL
