MODEL 1
REMARK VINA RESULT:      -7.2      0.000      0.000
REMARK  Name = 
REMARK  3 active torsions:
REMARK  status: ('A' for Active; 'I' for Inactive)
REMARK    1  A    between atoms: C_5  and  N_6
REMARK    2  A    between atoms: N_6  and  S_7
REMARK    3  A    between atoms: S_7  and  C_10
REMARK                            x       y       z     vdW  Elec       q    Type
REMARK                         _______ _______ _______ _____ _____    ______ ____
ROOT
ATOM      1  S   UNL     1       8.877  -2.842  24.184  0.00  0.00    +0.072 S 
ATOM      2  O   UNL     1      10.191  -3.447  24.124  0.00  0.00    -0.150 OA
ATOM      3  O   UNL     1       8.258  -2.273  23.004  0.00  0.00    -0.150 OA
ENDROOT
BRANCH   1   4
ATOM      4  C   UNL     1       7.742  -4.050  24.837  0.00  0.00    +0.109 A 
ATOM      5  C   UNL     1       6.837  -4.703  23.991  0.00  0.00    +0.034 A 
ATOM      6  C   UNL     1       5.907  -5.609  24.526  0.00  0.00    -0.029 A 
ATOM      7  C   UNL     1       5.866  -5.814  25.920  0.00  0.00    -0.042 A 
ATOM      8  C   UNL     1       4.873  -6.788  26.511  0.00  0.00    +0.050 C 
ATOM      9  C   UNL     1       3.732  -7.117  25.543  0.00  0.00    +0.086 C 
ATOM     10  N   UNL     1       4.257  -7.460  24.220  0.00  0.00    -0.312 NA
ATOM     11  H   UNL     1       3.490  -7.754  23.616  0.00  0.00    +0.122 HD
ATOM     12  C   UNL     1       6.773  -5.150  26.756  0.00  0.00    +0.006 A 
ATOM     13  C   UNL     1       4.908  -6.289  23.616  0.00  0.00    +0.116 C 
ATOM     14  C   UNL     1       7.706  -4.265  26.218  0.00  0.00    +0.029 A 
ENDBRANCH   1   4
BRANCH   1  15
ATOM     15  N   UNL     1       8.868  -1.624  25.349  0.00  0.00    -0.216 N 
ATOM     16  H   UNL     1       9.148  -1.936  26.276  0.00  0.00    +0.174 HD
BRANCH  15  21
ATOM     17 CL   UNL     1       9.945   3.993  23.822  0.00  0.00    -0.084 Cl
ATOM     18  C   UNL     1       9.638   2.357  24.257  0.00  0.00    +0.041 A 
ATOM     19  C   UNL     1      10.659   1.410  24.164  0.00  0.00    +0.022 A 
ATOM     20  C   UNL     1      10.417   0.083  24.527  0.00  0.00    +0.026 A 
ATOM     21  C   UNL     1       9.148  -0.288  24.970  0.00  0.00    +0.048 A 
ATOM     22  C   UNL     1       8.124   0.657  25.048  0.00  0.00    +0.026 A 
ATOM     23  C   UNL     1       8.370   1.986  24.699  0.00  0.00    +0.022 A 
ENDBRANCH  15  21
ENDBRANCH   1  15
TORSDOF 3
ENDMDL
MODEL 2
REMARK VINA RESULT:      -7.1      1.849      1.937
REMARK  Name = 
REMARK  3 active torsions:
REMARK  status: ('A' for Active; 'I' for Inactive)
REMARK    1  A    between atoms: C_5  and  N_6
REMARK    2  A    between atoms: N_6  and  S_7
REMARK    3  A    between atoms: S_7  and  C_10
REMARK                            x       y       z     vdW  Elec       q    Type
REMARK                         _______ _______ _______ _____ _____    ______ ____
ROOT
ATOM      1  S   UNL     1       9.184  -2.414  24.094  0.00  0.00    +0.072 S 
ATOM      2  O   UNL     1       9.197  -1.344  25.068  0.00  0.00    -0.150 OA
ATOM      3  O   UNL     1      10.405  -3.087  23.699  0.00  0.00    -0.150 OA
ENDROOT
BRANCH   1   4
ATOM      4  C   UNL     1       8.059  -3.671  24.669  0.00  0.00    +0.109 A 
ATOM      5  C   UNL     1       7.225  -4.342  23.768  0.00  0.00    +0.034 A 
ATOM      6  C   UNL     1       6.301  -5.289  24.240  0.00  0.00    -0.029 A 
ATOM      7  C   UNL     1       6.193  -5.517  25.626  0.00  0.00    -0.042 A 
ATOM      8  C   UNL     1       5.206  -6.533  26.150  0.00  0.00    +0.050 C 
ATOM      9  C   UNL     1       4.130  -6.888  25.119  0.00  0.00    +0.086 C 
ATOM     10  N   UNL     1       4.736  -7.191  23.821  0.00  0.00    -0.312 NA
ATOM     11  H   UNL     1       4.013  -7.502  23.173  0.00  0.00    +0.122 HD
ATOM     12  C   UNL     1       7.031  -4.835  26.518  0.00  0.00    +0.006 A 
ATOM     13  C   UNL     1       5.375  -5.989  23.268  0.00  0.00    +0.116 C 
ATOM     14  C   UNL     1       7.959  -3.909  26.044  0.00  0.00    +0.029 A 
ENDBRANCH   1   4
BRANCH   1  15
ATOM     15  N   UNL     1       8.468  -1.872  22.668  0.00  0.00    -0.216 N 
ATOM     16  H   UNL     1       7.825  -2.539  22.247  0.00  0.00    +0.174 HD
BRANCH  15  21
ATOM     17 CL   UNL     1       7.360   3.904  21.998  0.00  0.00    -0.084 Cl
ATOM     18  C   UNL     1       7.686   2.226  22.182  0.00  0.00    +0.041 A 
ATOM     19  C   UNL     1       8.876   1.691  21.687  0.00  0.00    +0.022 A 
ATOM     20  C   UNL     1       9.150   0.330  21.845  0.00  0.00    +0.026 A 
ATOM     21  C   UNL     1       8.223  -0.488  22.488  0.00  0.00    +0.048 A 
ATOM     22  C   UNL     1       7.026   0.045  22.970  0.00  0.00    +0.026 A 
ATOM     23  C   UNL     1       6.759   1.408  22.825  0.00  0.00    +0.022 A 
ENDBRANCH  15  21
ENDBRANCH   1  15
TORSDOF 3
ENDMDL
MODEL 3
REMARK VINA RESULT:      -7.0      1.706      2.149
REMARK  Name = 
REMARK  3 active torsions:
REMARK  status: ('A' for Active; 'I' for Inactive)
REMARK    1  A    between atoms: C_5  and  N_6
REMARK    2  A    between atoms: N_6  and  S_7
REMARK    3  A    between atoms: S_7  and  C_10
REMARK                            x       y       z     vdW  Elec       q    Type
REMARK                         _______ _______ _______ _____ _____    ______ ____
ROOT
ATOM      1  S   UNL     1       7.551  -2.791  23.018  0.00  0.00    +0.072 S 
ATOM      2  O   UNL     1       7.259  -3.624  21.871  0.00  0.00    -0.150 OA
ATOM      3  O   UNL     1       6.846  -1.545  23.241  0.00  0.00    -0.150 OA
ENDROOT
BRANCH   1   4
ATOM      4  C   UNL     1       7.341  -3.778  24.486  0.00  0.00    +0.109 A 
ATOM      5  C   UNL     1       6.245  -4.642  24.609  0.00  0.00    +0.034 A 
ATOM      6  C   UNL     1       6.058  -5.371  25.795  0.00  0.00    -0.029 A 
ATOM      7  C   UNL     1       6.952  -5.187  26.868  0.00  0.00    -0.042 A 
ATOM      8  C   UNL     1       6.766  -5.966  28.149  0.00  0.00    +0.050 C 
ATOM      9  C   UNL     1       5.357  -6.553  28.275  0.00  0.00    +0.086 C 
ATOM     10  N   UNL     1       4.970  -7.242  27.043  0.00  0.00    -0.312 NA
ATOM     11  H   UNL     1       4.066  -7.694  27.176  0.00  0.00    +0.122 HD
ATOM     12  C   UNL     1       8.041  -4.316  26.734  0.00  0.00    +0.006 A 
ATOM     13  C   UNL     1       4.856  -6.279  25.939  0.00  0.00    +0.116 C 
ATOM     14  C   UNL     1       8.234  -3.607  25.549  0.00  0.00    +0.029 A 
ENDBRANCH   1   4
BRANCH   1  15
ATOM     15  N   UNL     1       9.192  -2.407  23.036  0.00  0.00    -0.216 N 
ATOM     16  H   UNL     1       9.772  -3.046  22.496  0.00  0.00    +0.174 HD
BRANCH  15  21
ATOM     17 CL   UNL     1      10.831   3.270  23.389  0.00  0.00    -0.084 Cl
ATOM     18  C   UNL     1      10.363   1.618  23.293  0.00  0.00    +0.041 A 
ATOM     19  C   UNL     1      10.357   0.830  24.445  0.00  0.00    +0.022 A 
ATOM     20  C   UNL     1       9.967  -0.510  24.374  0.00  0.00    +0.026 A 
ATOM     21  C   UNL     1       9.595  -1.054  23.145  0.00  0.00    +0.048 A 
ATOM     22  C   UNL     1       9.616  -0.268  21.991  0.00  0.00    +0.026 A 
ATOM     23  C   UNL     1       9.992   1.074  22.065  0.00  0.00    +0.022 A 
ENDBRANCH  15  21
ENDBRANCH   1  15
TORSDOF 3
ENDMDL
MODEL 4
REMARK VINA RESULT:      -6.8      1.223      1.800
REMARK  Name = 
REMARK  3 active torsions:
REMARK  status: ('A' for Active; 'I' for Inactive)
REMARK    1  A    between atoms: C_5  and  N_6
REMARK    2  A    between atoms: N_6  and  S_7
REMARK    3  A    between atoms: S_7  and  C_10
REMARK                            x       y       z     vdW  Elec       q    Type
REMARK                         _______ _______ _______ _____ _____    ______ ____
ROOT
ATOM      1  S   UNL     1       9.419  -1.702  23.180  0.00  0.00    +0.072 S 
ATOM      2  O   UNL     1      10.663  -2.303  22.748  0.00  0.00    -0.150 OA
ATOM      3  O   UNL     1       8.610  -0.913  22.273  0.00  0.00    -0.150 OA
ENDROOT
BRANCH   1   4
ATOM      4  C   UNL     1       8.374  -2.996  23.819  0.00  0.00    +0.109 A 
ATOM      5  C   UNL     1       7.555  -3.736  22.958  0.00  0.00    +0.034 A 
ATOM      6  C   UNL     1       6.692  -4.713  23.480  0.00  0.00    -0.029 A 
ATOM      7  C   UNL     1       6.627  -4.903  24.875  0.00  0.00    -0.042 A 
ATOM      8  C   UNL     1       5.706  -5.952  25.452  0.00  0.00    +0.050 C 
ATOM      9  C   UNL     1       4.626  -6.392  24.458  0.00  0.00    +0.086 C 
ATOM     10  N   UNL     1       5.217  -6.704  23.155  0.00  0.00    -0.312 NA
ATOM     11  H   UNL     1       4.497  -7.071  22.534  0.00  0.00    +0.122 HD
ATOM     12  C   UNL     1       7.448  -4.153  25.726  0.00  0.00    +0.006 A 
ATOM     13  C   UNL     1       5.782  -5.489  22.552  0.00  0.00    +0.116 C 
ATOM     14  C   UNL     1       8.317  -3.196  25.202  0.00  0.00    +0.029 A 
ENDBRANCH   1   4
BRANCH   1  15
ATOM     15  N   UNL     1       9.700  -0.725  24.524  0.00  0.00    -0.216 N 
ATOM     16  H   UNL     1      10.355  -1.122  25.195  0.00  0.00    +0.174 HD
BRANCH  15  21
ATOM     17 CL   UNL     1       9.503   5.157  23.895  0.00  0.00    -0.084 Cl
ATOM     18  C   UNL     1       9.557   3.449  24.089  0.00  0.00    +0.041 A 
ATOM     19  C   UNL     1       8.544   2.798  24.793  0.00  0.00    +0.022 A 
ATOM     20  C   UNL     1       8.578   1.409  24.943  0.00  0.00    +0.026 A 
ATOM     21  C   UNL     1       9.635   0.684  24.394  0.00  0.00    +0.048 A 
ATOM     22  C   UNL     1      10.655   1.338  23.703  0.00  0.00    +0.026 A 
ATOM     23  C   UNL     1      10.613   2.725  23.541  0.00  0.00    +0.022 A 
ENDBRANCH  15  21
ENDBRANCH   1  15
TORSDOF 3
ENDMDL
MODEL 5
REMARK VINA RESULT:      -6.8      3.807      8.415
REMARK  Name = 
REMARK  3 active torsions:
REMARK  status: ('A' for Active; 'I' for Inactive)
REMARK    1  A    between atoms: C_5  and  N_6
REMARK    2  A    between atoms: N_6  and  S_7
REMARK    3  A    between atoms: S_7  and  C_10
REMARK                            x       y       z     vdW  Elec       q    Type
REMARK                         _______ _______ _______ _____ _____    ______ ____
ROOT
ATOM      1  S   UNL     1       9.596  -0.333  23.985  0.00  0.00    +0.072 S 
ATOM      2  O   UNL     1      10.208  -1.014  22.863  0.00  0.00    -0.150 OA
ATOM      3  O   UNL     1      10.337  -0.074  25.202  0.00  0.00    -0.150 OA
ENDROOT
BRANCH   1   4
ATOM      4  C   UNL     1       8.977   1.235  23.408  0.00  0.00    +0.109 A 
ATOM      5  C   UNL     1       9.586   2.429  23.811  0.00  0.00    +0.034 A 
ATOM      6  C   UNL     1       9.054   3.662  23.398  0.00  0.00    -0.029 A 
ATOM      7  C   UNL     1       7.879   3.680  22.619  0.00  0.00    -0.042 A 
ATOM      8  C   UNL     1       7.296   4.997  22.165  0.00  0.00    +0.050 C 
ATOM      9  C   UNL     1       7.825   6.182  22.978  0.00  0.00    +0.086 C 
ATOM     10  N   UNL     1       9.285   6.129  23.081  0.00  0.00    -0.312 NA
ATOM     11  H   UNL     1       9.622   6.967  23.555  0.00  0.00    +0.122 HD
ATOM     12  C   UNL     1       7.276   2.478  22.228  0.00  0.00    +0.006 A 
ATOM     13  C   UNL     1       9.694   4.953  23.861  0.00  0.00    +0.116 C 
ATOM     14  C   UNL     1       7.818   1.257  22.625  0.00  0.00    +0.029 A 
ENDBRANCH   1   4
BRANCH   1  15
ATOM     15  N   UNL     1       8.202  -1.156  24.454  0.00  0.00    -0.216 N 
ATOM     16  H   UNL     1       7.452  -0.550  24.778  0.00  0.00    +0.174 HD
BRANCH  15  21
ATOM     17 CL   UNL     1       6.809  -6.311  21.898  0.00  0.00    -0.084 Cl
ATOM     18  C   UNL     1       7.215  -4.809  22.631  0.00  0.00    +0.041 A 
ATOM     19  C   UNL     1       6.717  -3.619  22.097  0.00  0.00    +0.022 A 
ATOM     20  C   UNL     1       7.035  -2.397  22.696  0.00  0.00    +0.026 A 
ATOM     21  C   UNL     1       7.861  -2.377  23.820  0.00  0.00    +0.048 A 
ATOM     22  C   UNL     1       8.370  -3.566  24.343  0.00  0.00    +0.026 A 
ATOM     23  C   UNL     1       8.040  -4.788  23.753  0.00  0.00    +0.022 A 
ENDBRANCH  15  21
ENDBRANCH   1  15
TORSDOF 3
ENDMDL
MODEL 6
REMARK VINA RESULT:      -6.8      3.518      7.575
REMARK  Name = 
REMARK  3 active torsions:
REMARK  status: ('A' for Active; 'I' for Inactive)
REMARK    1  A    between atoms: C_5  and  N_6
REMARK    2  A    between atoms: N_6  and  S_7
REMARK    3  A    between atoms: S_7  and  C_10
REMARK                            x       y       z     vdW  Elec       q    Type
REMARK                         _______ _______ _______ _____ _____    ______ ____
ROOT
ATOM      1  S   UNL     1       8.629  -4.432  24.633  0.00  0.00    +0.072 S 
ATOM      2  O   UNL     1       8.484  -5.430  23.594  0.00  0.00    -0.150 OA
ATOM      3  O   UNL     1       9.570  -4.610  25.720  0.00  0.00    -0.150 OA
ENDROOT
BRANCH   1   4
ATOM      4  C   UNL     1       9.020  -2.878  23.855  0.00  0.00    +0.109 A 
ATOM      5  C   UNL     1       9.579  -1.832  24.601  0.00  0.00    +0.034 A 
ATOM      6  C   UNL     1       9.828  -0.592  23.991  0.00  0.00    -0.029 A 
ATOM      7  C   UNL     1       9.467  -0.401  22.642  0.00  0.00    -0.042 A 
ATOM      8  C   UNL     1       9.731   0.926  21.971  0.00  0.00    +0.050 C 
ATOM      9  C   UNL     1       9.974   2.053  22.980  0.00  0.00    +0.086 C 
ATOM     10  N   UNL     1      10.949   1.641  23.992  0.00  0.00    -0.312 NA
ATOM     11  H   UNL     1      11.158   2.429  24.603  0.00  0.00    +0.122 HD
ATOM     12  C   UNL     1       8.904  -1.453  21.909  0.00  0.00    +0.006 A 
ATOM     13  C   UNL     1      10.401   0.547  24.806  0.00  0.00    +0.116 C 
ATOM     14  C   UNL     1       8.674  -2.688  22.513  0.00  0.00    +0.029 A 
ENDBRANCH   1   4
BRANCH   1  15
ATOM     15  N   UNL     1       7.133  -4.144  25.353  0.00  0.00    -0.216 N 
ATOM     16  H   UNL     1       7.062  -3.240  25.815  0.00  0.00    +0.174 HD
BRANCH  15  21
ATOM     17 CL   UNL     1       2.254  -6.441  22.910  0.00  0.00    -0.084 Cl
ATOM     18  C   UNL     1       3.668  -5.777  23.630  0.00  0.00    +0.041 A 
ATOM     19  C   UNL     1       4.296  -6.451  24.678  0.00  0.00    +0.022 A 
ATOM     20  C   UNL     1       5.451  -5.920  25.259  0.00  0.00    +0.026 A 
ATOM     21  C   UNL     1       5.962  -4.711  24.790  0.00  0.00    +0.048 A 
ATOM     22  C   UNL     1       5.325  -4.030  23.752  0.00  0.00    +0.026 A 
ATOM     23  C   UNL     1       4.179  -4.568  23.162  0.00  0.00    +0.022 A 
ENDBRANCH  15  21
ENDBRANCH   1  15
TORSDOF 3
ENDMDL
MODEL 7
REMARK VINA RESULT:      -6.7      2.088      2.751
REMARK  Name = 
REMARK  3 active torsions:
REMARK  status: ('A' for Active; 'I' for Inactive)
REMARK    1  A    between atoms: C_5  and  N_6
REMARK    2  A    between atoms: N_6  and  S_7
REMARK    3  A    between atoms: S_7  and  C_10
REMARK                            x       y       z     vdW  Elec       q    Type
REMARK                         _______ _______ _______ _____ _____    ______ ____
ROOT
ATOM      1  S   UNL     1       9.710  -1.143  22.974  0.00  0.00    +0.072 S 
ATOM      2  O   UNL     1      10.740  -2.016  22.453  0.00  0.00    -0.150 OA
ATOM      3  O   UNL     1       8.902  -0.324  22.092  0.00  0.00    -0.150 OA
ENDROOT
BRANCH   1   4
ATOM      4  C   UNL     1       8.587  -2.130  23.943  0.00  0.00    +0.109 A 
ATOM      5  C   UNL     1       9.070  -3.169  24.748  0.00  0.00    +0.034 A 
ATOM      6  C   UNL     1       8.171  -3.978  25.461  0.00  0.00    -0.029 A 
ATOM      7  C   UNL     1       6.785  -3.763  25.319  0.00  0.00    -0.042 A 
ATOM      8  C   UNL     1       5.806  -4.623  26.082  0.00  0.00    +0.050 C 
ATOM      9  C   UNL     1       6.442  -5.919  26.594  0.00  0.00    +0.086 C 
ATOM     10  N   UNL     1       7.712  -5.642  27.268  0.00  0.00    -0.312 NA
ATOM     11  H   UNL     1       8.077  -6.504  27.671  0.00  0.00    +0.122 HD
ATOM     12  C   UNL     1       6.315  -2.724  24.506  0.00  0.00    +0.006 A 
ATOM     13  C   UNL     1       8.692  -5.122  26.305  0.00  0.00    +0.116 C 
ATOM     14  C   UNL     1       7.212  -1.911  23.814  0.00  0.00    +0.029 A 
ENDBRANCH   1   4
BRANCH   1  15
ATOM     15  N   UNL     1      10.380  -0.088  24.105  0.00  0.00    -0.216 N 
ATOM     16  H   UNL     1      11.365  -0.259  24.297  0.00  0.00    +0.174 HD
BRANCH  15  21
ATOM     17 CL   UNL     1       8.265   5.417  24.613  0.00  0.00    -0.084 Cl
ATOM     18  C   UNL     1       8.882   3.820  24.454  0.00  0.00    +0.041 A 
ATOM     19  C   UNL     1      10.057   3.597  23.735  0.00  0.00    +0.022 A 
ATOM     20  C   UNL     1      10.568   2.302  23.614  0.00  0.00    +0.026 A 
ATOM     21  C   UNL     1       9.890   1.237  24.205  0.00  0.00    +0.048 A 
ATOM     22  C   UNL     1       8.707   1.459  24.912  0.00  0.00    +0.026 A 
ATOM     23  C   UNL     1       8.204   2.755  25.045  0.00  0.00    +0.022 A 
ENDBRANCH  15  21
ENDBRANCH   1  15
TORSDOF 3
ENDMDL
MODEL 8
REMARK VINA RESULT:      -6.6      3.713      8.576
REMARK  Name = 
REMARK  3 active torsions:
REMARK  status: ('A' for Active; 'I' for Inactive)
REMARK    1  A    between atoms: C_5  and  N_6
REMARK    2  A    between atoms: N_6  and  S_7
REMARK    3  A    between atoms: S_7  and  C_10
REMARK                            x       y       z     vdW  Elec       q    Type
REMARK                         _______ _______ _______ _____ _____    ______ ____
ROOT
ATOM      1  S   UNL     1       9.351  -0.556  24.326  0.00  0.00    +0.072 S 
ATOM      2  O   UNL     1      10.209  -1.097  23.293  0.00  0.00    -0.150 OA
ATOM      3  O   UNL     1       9.607  -0.814  25.728  0.00  0.00    -0.150 OA
ENDROOT
BRANCH   1   4
ATOM      4  C   UNL     1       9.295   1.214  24.124  0.00  0.00    +0.109 A 
ATOM      5  C   UNL     1      10.449   1.925  23.775  0.00  0.00    +0.034 A 
ATOM      6  C   UNL     1      10.406   3.326  23.677  0.00  0.00    -0.029 A 
ATOM      7  C   UNL     1       9.207   4.002  23.979  0.00  0.00    -0.042 A 
ATOM      8  C   UNL     1       9.144   5.508  23.875  0.00  0.00    +0.050 C 
ATOM      9  C   UNL     1      10.534   6.152  23.866  0.00  0.00    +0.086 C 
ATOM     10  N   UNL     1      11.410   5.479  22.905  0.00  0.00    -0.312 NA
ATOM     11  H   UNL     1      12.301   5.972  22.855  0.00  0.00    +0.122 HD
ATOM     12  C   UNL     1       8.061   3.279  24.332  0.00  0.00    +0.006 A 
ATOM     13  C   UNL     1      11.662   4.096  23.333  0.00  0.00    +0.116 C 
ATOM     14  C   UNL     1       8.103   1.888  24.411  0.00  0.00    +0.029 A 
ENDBRANCH   1   4
BRANCH   1  15
ATOM     15  N   UNL     1       7.760  -1.033  24.046  0.00  0.00    -0.216 N 
ATOM     16  H   UNL     1       7.144  -0.275  23.761  0.00  0.00    +0.174 HD
BRANCH  15  21
ATOM     17 CL   UNL     1       6.611  -6.446  21.942  0.00  0.00    -0.084 Cl
ATOM     18  C   UNL     1       6.943  -4.877  22.564  0.00  0.00    +0.041 A 
ATOM     19  C   UNL     1       7.727  -4.736  23.710  0.00  0.00    +0.022 A 
ATOM     20  C   UNL     1       8.009  -3.462  24.212  0.00  0.00    +0.026 A 
ATOM     21  C   UNL     1       7.492  -2.340  23.567  0.00  0.00    +0.048 A 
ATOM     22  C   UNL     1       6.696  -2.483  22.430  0.00  0.00    +0.026 A 
ATOM     23  C   UNL     1       6.427  -3.755  21.920  0.00  0.00    +0.022 A 
ENDBRANCH  15  21
ENDBRANCH   1  15
TORSDOF 3
ENDMDL
MODEL 9
REMARK VINA RESULT:      -6.6      3.613      7.372
REMARK  Name = 
REMARK  3 active torsions:
REMARK  status: ('A' for Active; 'I' for Inactive)
REMARK    1  A    between atoms: C_5  and  N_6
REMARK    2  A    between atoms: N_6  and  S_7
REMARK    3  A    between atoms: S_7  and  C_10
REMARK                            x       y       z     vdW  Elec       q    Type
REMARK                         _______ _______ _______ _____ _____    ______ ____
ROOT
ATOM      1  S   UNL     1       8.364  -4.724  24.138  0.00  0.00    +0.072 S 
ATOM      2  O   UNL     1       8.008  -5.205  22.820  0.00  0.00    -0.150 OA
ATOM      3  O   UNL     1       9.483  -5.285  24.867  0.00  0.00    -0.150 OA
ENDROOT
BRANCH   1   4
ATOM      4  C   UNL     1       8.643  -2.967  24.028  0.00  0.00    +0.109 A 
ATOM      5  C   UNL     1       8.837  -2.357  22.783  0.00  0.00    +0.034 A 
ATOM      6  C   UNL     1       9.115  -0.982  22.713  0.00  0.00    -0.029 A 
ATOM      7  C   UNL     1       9.242  -0.241  23.905  0.00  0.00    -0.042 A 
ATOM      8  C   UNL     1       9.538   1.239  23.845  0.00  0.00    +0.050 C 
ATOM      9  C   UNL     1      10.092   1.670  22.484  0.00  0.00    +0.086 C 
ATOM     10  N   UNL     1       9.269   1.136  21.397  0.00  0.00    -0.312 NA
ATOM     11  H   UNL     1       9.606   1.500  20.506  0.00  0.00    +0.122 HD
ATOM     12  C   UNL     1       9.050  -0.865  25.144  0.00  0.00    +0.006 A 
ATOM     13  C   UNL     1       9.358  -0.330  21.369  0.00  0.00    +0.116 C 
ATOM     14  C   UNL     1       8.757  -2.227  25.209  0.00  0.00    +0.029 A 
ENDBRANCH   1   4
BRANCH   1  15
ATOM     15  N   UNL     1       7.031  -4.845  25.163  0.00  0.00    -0.216 N 
ATOM     16  H   UNL     1       7.110  -4.289  26.012  0.00  0.00    +0.174 HD
BRANCH  15  21
ATOM     17 CL   UNL     1       1.644  -5.878  22.938  0.00  0.00    -0.084 Cl
ATOM     18  C   UNL     1       3.212  -5.572  23.575  0.00  0.00    +0.041 A 
ATOM     19  C   UNL     1       3.758  -4.290  23.490  0.00  0.00    +0.022 A 
ATOM     20  C   UNL     1       5.026  -4.034  24.018  0.00  0.00    +0.026 A 
ATOM     21  C   UNL     1       5.743  -5.069  24.616  0.00  0.00    +0.048 A 
ATOM     22  C   UNL     1       5.202  -6.353  24.687  0.00  0.00    +0.026 A 
ATOM     23  C   UNL     1       3.929  -6.605  24.173  0.00  0.00    +0.022 A 
ENDBRANCH  15  21
ENDBRANCH   1  15
TORSDOF 3
ENDMDL
