MODEL 1
REMARK VINA RESULT:      -7.8      0.000      0.000
REMARK  Name = 
REMARK  8 active torsions:
REMARK  status: ('A' for Active; 'I' for Inactive)
REMARK    1  A    between atoms: C_1  and  C_2
REMARK    2  A    between atoms: C_2  and  N_4
REMARK    3  A    between atoms: C_2  and  C_33
REMARK    4  A    between atoms: C_9  and  C_11
REMARK    5  A    between atoms: C_12  and  C_23
REMARK    6  A    between atoms: C_14  and  C_15
REMARK    7  A    between atoms: N_21  and  C_22
REMARK    8  A    between atoms: C_25  and  C_29
REMARK                            x       y       z     vdW  Elec       q    Type
REMARK                         _______ _______ _______ _____ _____    ______ ____
ROOT
ATOM      1  C   UNL     1       4.881  -2.685  25.848  0.00  0.00    +0.095 A 
ATOM      2  N   UNL     1       3.579  -3.189  25.957  0.00  0.00    -0.329 N 
ATOM      3  C   UNL     1       2.456  -2.493  26.557  0.00  0.00    +0.150 C 
ATOM      4  C   UNL     1       3.529  -4.454  25.414  0.00  0.00    +0.114 A 
ATOM      5  N   UNL     1       4.745  -4.852  25.113  0.00  0.00    -0.231 NA
ATOM      6  C   UNL     1       5.594  -3.783  25.340  0.00  0.00    +0.099 A 
ENDROOT
BRANCH   1  11
ATOM      7  N   UNL     1       5.286   1.570  24.086  0.00  0.00    -0.307 N 
ATOM      8  H   UNL     1       4.297   1.773  24.134  0.00  0.00    +0.149 HD
ATOM      9  C   UNL     1       5.582   0.782  25.177  0.00  0.00    +0.216 A 
ATOM     10  N   UNL     1       5.122  -0.469  25.093  0.00  0.00    -0.213 NA
ATOM     11  C   UNL     1       5.221  -1.283  26.159  0.00  0.00    +0.094 A 
ATOM     12  C   UNL     1       5.664  -0.809  27.366  0.00  0.00    +0.050 A 
ATOM     13  C   UNL     1       6.187   0.466  27.347  0.00  0.00    +0.116 A 
ATOM     14  N   UNL     1       6.177   1.268  26.265  0.00  0.00    -0.223 NA
BRANCH   7  16
ATOM     15  C   UNL     1       6.225   3.539  25.062  0.00  0.00    +0.033 C 
ATOM     16  C   UNL     1       6.108   2.721  23.764  0.00  0.00    +0.100 C 
BRANCH  16  17
ATOM     17  C   UNL     1       7.488   2.352  23.244  0.00  0.00    -0.027 A 
ATOM     18  C   UNL     1       8.660   2.639  23.960  0.00  0.00    +0.005 A 
ATOM     19  C   UNL     1       9.913   2.302  23.443  0.00  0.00    +0.000 A 
ATOM     20  C   UNL     1      10.014   1.679  22.200  0.00  0.00    +0.000 A 
ATOM     21  C   UNL     1       8.862   1.398  21.471  0.00  0.00    +0.000 A 
ATOM     22  C   UNL     1       7.608   1.732  21.989  0.00  0.00    +0.005 A 
ENDBRANCH  16  17
ENDBRANCH   7  16
ENDBRANCH   1  11
BRANCH   4  23
ATOM     23  C   UNL     1       2.249  -5.239  25.188  0.00  0.00    +0.058 C 
ATOM     24  C   UNL     1       2.269  -6.606  25.883  0.00  0.00    +0.026 C 
ATOM     25  C   UNL     1       3.156  -7.608  25.152  0.00  0.00    +0.081 C 
ATOM     26  N   UNL     1       2.737  -7.777  23.758  0.00  0.00    -0.316 NA
ATOM     27  H   UNL     1       3.372  -8.432  23.304  0.00  0.00    +0.122 HD
ATOM     28  C   UNL     1       2.789  -6.503  23.035  0.00  0.00    +0.081 C 
ATOM     29  C   UNL     1       1.918  -5.438  23.700  0.00  0.00    +0.026 C 
ENDBRANCH   4  23
BRANCH   6  30
ATOM     30  C   UNL     1       7.024  -3.933  25.055  0.00  0.00    +0.003 A 
ATOM     31  C   UNL     1       7.728  -4.996  25.645  0.00  0.00    +0.010 A 
ATOM     32  C   UNL     1       9.109  -5.135  25.477  0.00  0.00    +0.001 A 
ATOM     33  C   UNL     1       9.820  -4.181  24.753  0.00  0.00    +0.012 A 
ATOM     34  C   UNL     1       9.144  -3.121  24.137  0.00  0.00    +0.055 A 
ATOM     35  C   UNL     1       7.740  -3.061  24.231  0.00  0.00    +0.022 A 
BRANCH  34  36
ATOM     36  C   UNL     1       9.915  -2.026  23.445  0.00  0.00    +0.417 C 
ATOM     37  F   UNL     1      10.110  -0.930  24.225  0.00  0.00    -0.166 F 
ATOM     38  F   UNL     1       9.278  -1.582  22.323  0.00  0.00    -0.166 F 
ATOM     39  F   UNL     1      11.151  -2.417  23.022  0.00  0.00    -0.166 F 
ENDBRANCH  34  36
ENDBRANCH   6  30
TORSDOF 6
ENDMDL
MODEL 2
REMARK VINA RESULT:      -7.7      2.927      8.460
REMARK  Name = 
REMARK  8 active torsions:
REMARK  status: ('A' for Active; 'I' for Inactive)
REMARK    1  A    between atoms: C_1  and  C_2
REMARK    2  A    between atoms: C_2  and  N_4
REMARK    3  A    between atoms: C_2  and  C_33
REMARK    4  A    between atoms: C_9  and  C_11
REMARK    5  A    between atoms: C_12  and  C_23
REMARK    6  A    between atoms: C_14  and  C_15
REMARK    7  A    between atoms: N_21  and  C_22
REMARK    8  A    between atoms: C_25  and  C_29
REMARK                            x       y       z     vdW  Elec       q    Type
REMARK                         _______ _______ _______ _____ _____    ______ ____
ROOT
ATOM      1  C   UNL     1       8.276  -1.872  25.244  0.00  0.00    +0.095 A 
ATOM      2  N   UNL     1       9.274  -1.562  24.312  0.00  0.00    -0.329 N 
ATOM      3  C   UNL     1      10.186  -2.515  23.708  0.00  0.00    +0.150 C 
ATOM      4  C   UNL     1       9.265  -0.208  24.062  0.00  0.00    +0.114 A 
ATOM      5  N   UNL     1       8.436   0.387  24.892  0.00  0.00    -0.231 NA
ATOM      6  C   UNL     1       7.793  -0.606  25.610  0.00  0.00    +0.099 A 
ENDROOT
BRANCH   1  11
ATOM      7  N   UNL     1       4.989  -5.092  24.788  0.00  0.00    -0.307 N 
ATOM      8  H   UNL     1       5.271  -5.364  23.857  0.00  0.00    +0.149 HD
ATOM      9  C   UNL     1       6.142  -4.763  25.469  0.00  0.00    +0.216 A 
ATOM     10  N   UNL     1       6.696  -3.610  25.087  0.00  0.00    -0.213 NA
ATOM     11  C   UNL     1       7.900  -3.260  25.576  0.00  0.00    +0.094 A 
ATOM     12  C   UNL     1       8.623  -4.129  26.351  0.00  0.00    +0.050 A 
ATOM     13  C   UNL     1       7.950  -5.261  26.757  0.00  0.00    +0.116 A 
ATOM     14  N   UNL     1       6.708  -5.587  26.349  0.00  0.00    -0.223 NA
BRANCH   7  16
ATOM     15  C   UNL     1       3.345  -5.170  26.521  0.00  0.00    +0.033 C 
ATOM     16  C   UNL     1       4.006  -5.974  25.388  0.00  0.00    +0.100 C 
BRANCH  16  17
ATOM     17  C   UNL     1       2.957  -6.467  24.405  0.00  0.00    -0.027 A 
ATOM     18  C   UNL     1       2.287  -5.600  23.527  0.00  0.00    +0.005 A 
ATOM     19  C   UNL     1       1.314  -6.084  22.649  0.00  0.00    +0.000 A 
ATOM     20  C   UNL     1       0.992  -7.440  22.640  0.00  0.00    +0.000 A 
ATOM     21  C   UNL     1       1.638  -8.312  23.512  0.00  0.00    +0.000 A 
ATOM     22  C   UNL     1       2.614  -7.829  24.388  0.00  0.00    +0.005 A 
ENDBRANCH  16  17
ENDBRANCH   7  16
ENDBRANCH   1  11
BRANCH   4  23
ATOM     23  C   UNL     1      10.080   0.470  22.975  0.00  0.00    +0.058 C 
ATOM     24  C   UNL     1      10.440   1.918  23.328  0.00  0.00    +0.026 C 
ATOM     25  C   UNL     1       9.247   2.856  23.185  0.00  0.00    +0.081 C 
ATOM     26  N   UNL     1       8.688   2.809  21.832  0.00  0.00    -0.316 NA
ATOM     27  H   UNL     1       7.879   3.429  21.791  0.00  0.00    +0.122 HD
ATOM     28  C   UNL     1       8.250   1.453  21.490  0.00  0.00    +0.081 C 
ATOM     29  C   UNL     1       9.392   0.444  21.601  0.00  0.00    +0.026 C 
ENDBRANCH   4  23
BRANCH   6  30
ATOM     30  C   UNL     1       6.778  -0.230  26.599  0.00  0.00    +0.003 A 
ATOM     31  C   UNL     1       7.162   0.536  27.713  0.00  0.00    +0.010 A 
ATOM     32  C   UNL     1       6.253   0.848  28.728  0.00  0.00    +0.001 A 
ATOM     33  C   UNL     1       4.952   0.357  28.670  0.00  0.00    +0.012 A 
ATOM     34  C   UNL     1       4.534  -0.393  27.564  0.00  0.00    +0.055 A 
ATOM     35  C   UNL     1       5.435  -0.604  26.503  0.00  0.00    +0.022 A 
BRANCH  34  36
ATOM     36  C   UNL     1       3.163  -1.020  27.544  0.00  0.00    +0.417 C 
ATOM     37  F   UNL     1       2.154  -0.110  27.522  0.00  0.00    -0.166 F 
ATOM     38  F   UNL     1       2.943  -1.801  28.641  0.00  0.00    -0.166 F 
ATOM     39  F   UNL     1       2.958  -1.842  26.475  0.00  0.00    -0.166 F 
ENDBRANCH  34  36
ENDBRANCH   6  30
TORSDOF 6
ENDMDL
MODEL 3
REMARK VINA RESULT:      -7.6      3.025      8.517
REMARK  Name = 
REMARK  8 active torsions:
REMARK  status: ('A' for Active; 'I' for Inactive)
REMARK    1  A    between atoms: C_1  and  C_2
REMARK    2  A    between atoms: C_2  and  N_4
REMARK    3  A    between atoms: C_2  and  C_33
REMARK    4  A    between atoms: C_9  and  C_11
REMARK    5  A    between atoms: C_12  and  C_23
REMARK    6  A    between atoms: C_14  and  C_15
REMARK    7  A    between atoms: N_21  and  C_22
REMARK    8  A    between atoms: C_25  and  C_29
REMARK                            x       y       z     vdW  Elec       q    Type
REMARK                         _______ _______ _______ _____ _____    ______ ____
ROOT
ATOM      1  C   UNL     1       8.474  -1.829  25.122  0.00  0.00    +0.095 A 
ATOM      2  N   UNL     1       9.350  -1.451  24.098  0.00  0.00    -0.329 N 
ATOM      3  C   UNL     1      10.228  -2.347  23.369  0.00  0.00    +0.150 C 
ATOM      4  C   UNL     1       9.257  -0.092  23.892  0.00  0.00    +0.114 A 
ATOM      5  N   UNL     1       8.501   0.444  24.825  0.00  0.00    -0.231 NA
ATOM      6  C   UNL     1       7.983  -0.595  25.578  0.00  0.00    +0.099 A 
ENDROOT
BRANCH   1  11
ATOM      7  N   UNL     1       5.316  -5.196  24.870  0.00  0.00    -0.307 N 
ATOM      8  H   UNL     1       5.528  -5.435  23.911  0.00  0.00    +0.149 HD
ATOM      9  C   UNL     1       6.506  -4.826  25.457  0.00  0.00    +0.216 A 
ATOM     10  N   UNL     1       6.970  -3.638  25.058  0.00  0.00    -0.213 NA
ATOM     11  C   UNL     1       8.194  -3.240  25.450  0.00  0.00    +0.094 A 
ATOM     12  C   UNL     1       9.021  -4.088  26.139  0.00  0.00    +0.050 A 
ATOM     13  C   UNL     1       8.440  -5.260  26.573  0.00  0.00    +0.116 A 
ATOM     14  N   UNL     1       7.185  -5.638  26.265  0.00  0.00    -0.223 NA
BRANCH   7  16
ATOM     15  C   UNL     1       3.773  -5.367  26.687  0.00  0.00    +0.033 C 
ATOM     16  C   UNL     1       4.431  -6.138  25.529  0.00  0.00    +0.100 C 
BRANCH  16  17
ATOM     17  C   UNL     1       3.371  -6.718  24.607  0.00  0.00    -0.027 A 
ATOM     18  C   UNL     1       2.981  -6.080  23.419  0.00  0.00    +0.005 A 
ATOM     19  C   UNL     1       1.989  -6.632  22.605  0.00  0.00    +0.000 A 
ATOM     20  C   UNL     1       1.368  -7.825  22.969  0.00  0.00    +0.000 A 
ATOM     21  C   UNL     1       1.734  -8.465  24.150  0.00  0.00    +0.000 A 
ATOM     22  C   UNL     1       2.728  -7.915  24.963  0.00  0.00    +0.005 A 
ENDBRANCH  16  17
ENDBRANCH   7  16
ENDBRANCH   1  11
BRANCH   4  23
ATOM     23  C   UNL     1       9.919   0.649  22.744  0.00  0.00    +0.058 C 
ATOM     24  C   UNL     1      10.370   2.060  23.138  0.00  0.00    +0.026 C 
ATOM     25  C   UNL     1       9.197   3.028  23.244  0.00  0.00    +0.081 C 
ATOM     26  N   UNL     1       8.440   3.091  21.992  0.00  0.00    -0.316 NA
ATOM     27  H   UNL     1       7.653   3.727  22.118  0.00  0.00    +0.122 HD
ATOM     28  C   UNL     1       7.916   1.772  21.627  0.00  0.00    +0.081 C 
ATOM     29  C   UNL     1       9.032   0.737  21.491  0.00  0.00    +0.026 C 
ENDBRANCH   4  23
BRANCH   6  30
ATOM     30  C   UNL     1       7.068  -0.290  26.682  0.00  0.00    +0.003 A 
ATOM     31  C   UNL     1       5.788  -0.870  26.686  0.00  0.00    +0.010 A 
ATOM     32  C   UNL     1       4.847  -0.545  27.668  0.00  0.00    +0.001 A 
ATOM     33  C   UNL     1       5.155   0.405  28.638  0.00  0.00    +0.012 A 
ATOM     34  C   UNL     1       6.428   0.986  28.672  0.00  0.00    +0.055 A 
ATOM     35  C   UNL     1       7.395   0.565  27.738  0.00  0.00    +0.022 A 
BRANCH  34  36
ATOM     36  C   UNL     1       6.734   2.094  29.648  0.00  0.00    +0.417 C 
ATOM     37  F   UNL     1       7.072   3.264  29.046  0.00  0.00    -0.166 F 
ATOM     38  F   UNL     1       7.777   1.777  30.469  0.00  0.00    -0.166 F 
ATOM     39  F   UNL     1       5.696   2.381  30.484  0.00  0.00    -0.166 F 
ENDBRANCH  34  36
ENDBRANCH   6  30
TORSDOF 6
ENDMDL
MODEL 4
REMARK VINA RESULT:      -7.4      3.235      5.234
REMARK  Name = 
REMARK  8 active torsions:
REMARK  status: ('A' for Active; 'I' for Inactive)
REMARK    1  A    between atoms: C_1  and  C_2
REMARK    2  A    between atoms: C_2  and  N_4
REMARK    3  A    between atoms: C_2  and  C_33
REMARK    4  A    between atoms: C_9  and  C_11
REMARK    5  A    between atoms: C_12  and  C_23
REMARK    6  A    between atoms: C_14  and  C_15
REMARK    7  A    between atoms: N_21  and  C_22
REMARK    8  A    between atoms: C_25  and  C_29
REMARK                            x       y       z     vdW  Elec       q    Type
REMARK                         _______ _______ _______ _____ _____    ______ ____
ROOT
ATOM      1  C   UNL     1       6.443  -0.590  25.287  0.00  0.00    +0.095 A 
ATOM      2  N   UNL     1       5.984  -1.903  25.449  0.00  0.00    -0.329 N 
ATOM      3  C   UNL     1       4.728  -2.283  26.066  0.00  0.00    +0.150 C 
ATOM      4  C   UNL     1       6.914  -2.781  24.938  0.00  0.00    +0.114 A 
ATOM      5  N   UNL     1       8.005  -2.124  24.608  0.00  0.00    -0.231 NA
ATOM      6  C   UNL     1       7.740  -0.777  24.783  0.00  0.00    +0.099 A 
ENDROOT
BRANCH   1  11
ATOM      7  N   UNL     1       3.997   2.808  23.326  0.00  0.00    -0.307 N 
ATOM      8  H   UNL     1       3.185   2.233  23.150  0.00  0.00    +0.149 HD
ATOM      9  C   UNL     1       4.543   2.369  24.513  0.00  0.00    +0.216 A 
ATOM     10  N   UNL     1       5.156   1.185  24.431  0.00  0.00    -0.213 NA
ATOM     11  C   UNL     1       5.596   0.589  25.554  0.00  0.00    +0.094 A 
ATOM     12  C   UNL     1       5.306   1.112  26.787  0.00  0.00    +0.050 A 
ATOM     13  C   UNL     1       4.738   2.368  26.779  0.00  0.00    +0.116 A 
ATOM     14  N   UNL     1       4.369   3.021  25.661  0.00  0.00    -0.223 NA
BRANCH   7  16
ATOM     15  C   UNL     1       5.170   4.848  22.908  0.00  0.00    +0.033 C 
ATOM     16  C   UNL     1       3.776   4.224  23.097  0.00  0.00    +0.100 C 
BRANCH  16  17
ATOM     17  C   UNL     1       2.899   4.510  21.889  0.00  0.00    -0.027 A 
ATOM     18  C   UNL     1       2.564   5.817  21.500  0.00  0.00    +0.005 A 
ATOM     19  C   UNL     1       1.739   6.043  20.395  0.00  0.00    +0.000 A 
ATOM     20  C   UNL     1       1.233   4.967  19.668  0.00  0.00    +0.000 A 
ATOM     21  C   UNL     1       1.545   3.666  20.047  0.00  0.00    +0.000 A 
ATOM     22  C   UNL     1       2.372   3.438  21.150  0.00  0.00    +0.005 A 
ENDBRANCH  16  17
ENDBRANCH   7  16
ENDBRANCH   1  11
BRANCH   4  23
ATOM     23  C   UNL     1       6.684  -4.272  24.770  0.00  0.00    +0.058 C 
ATOM     24  C   UNL     1       6.337  -4.964  26.094  0.00  0.00    +0.026 C 
ATOM     25  C   UNL     1       7.559  -5.132  26.991  0.00  0.00    +0.081 C 
ATOM     26  N   UNL     1       8.622  -5.879  26.314  0.00  0.00    -0.316 NA
ATOM     27  H   UNL     1       9.425  -5.942  26.939  0.00  0.00    +0.122 HD
ATOM     28  C   UNL     1       9.042  -5.200  25.085  0.00  0.00    +0.081 C 
ATOM     29  C   UNL     1       7.874  -4.997  24.121  0.00  0.00    +0.026 C 
ENDBRANCH   4  23
BRANCH   6  30
ATOM     30  C   UNL     1       8.780   0.204  24.458  0.00  0.00    +0.003 A 
ATOM     31  C   UNL     1      10.130  -0.169  24.579  0.00  0.00    +0.010 A 
ATOM     32  C   UNL     1      11.160   0.753  24.365  0.00  0.00    +0.001 A 
ATOM     33  C   UNL     1      10.855   2.080  24.073  0.00  0.00    +0.012 A 
ATOM     34  C   UNL     1       9.520   2.477  23.927  0.00  0.00    +0.055 A 
ATOM     35  C   UNL     1       8.504   1.509  24.042  0.00  0.00    +0.022 A 
BRANCH  34  36
ATOM     36  C   UNL     1       9.176   3.931  23.721  0.00  0.00    +0.417 C 
ATOM     37  F   UNL     1      10.266   4.719  23.525  0.00  0.00    -0.166 F 
ATOM     38  F   UNL     1       8.518   4.457  24.794  0.00  0.00    -0.166 F 
ATOM     39  F   UNL     1       8.353   4.147  22.656  0.00  0.00    -0.166 F 
ENDBRANCH  34  36
ENDBRANCH   6  30
TORSDOF 6
ENDMDL
MODEL 5
REMARK VINA RESULT:      -7.3      2.978      8.200
REMARK  Name = 
REMARK  8 active torsions:
REMARK  status: ('A' for Active; 'I' for Inactive)
REMARK    1  A    between atoms: C_1  and  C_2
REMARK    2  A    between atoms: C_2  and  N_4
REMARK    3  A    between atoms: C_2  and  C_33
REMARK    4  A    between atoms: C_9  and  C_11
REMARK    5  A    between atoms: C_12  and  C_23
REMARK    6  A    between atoms: C_14  and  C_15
REMARK    7  A    between atoms: N_21  and  C_22
REMARK    8  A    between atoms: C_25  and  C_29
REMARK                            x       y       z     vdW  Elec       q    Type
REMARK                         _______ _______ _______ _____ _____    ______ ____
ROOT
ATOM      1  C   UNL     1       8.420  -1.070  24.925  0.00  0.00    +0.095 A 
ATOM      2  N   UNL     1       9.344  -0.185  24.357  0.00  0.00    -0.329 N 
ATOM      3  C   UNL     1      10.479  -0.567  23.538  0.00  0.00    +0.150 C 
ATOM      4  C   UNL     1       9.016   1.107  24.703  0.00  0.00    +0.114 A 
ATOM      5  N   UNL     1       8.041   1.092  25.585  0.00  0.00    -0.231 NA
ATOM      6  C   UNL     1       7.633  -0.223  25.722  0.00  0.00    +0.099 A 
ENDROOT
BRANCH   1  11
ATOM      7  N   UNL     1       6.444  -4.238  22.199  0.00  0.00    -0.307 N 
ATOM      8  H   UNL     1       7.035  -4.041  21.403  0.00  0.00    +0.149 HD
ATOM      9  C   UNL     1       7.222  -4.063  23.323  0.00  0.00    +0.216 A 
ATOM     10  N   UNL     1       7.507  -2.789  23.602  0.00  0.00    -0.213 NA
ATOM     11  C   UNL     1       8.379  -2.506  24.586  0.00  0.00    +0.094 A 
ATOM     12  C   UNL     1       9.078  -3.503  25.213  0.00  0.00    +0.050 A 
ATOM     13  C   UNL     1       8.671  -4.787  24.920  0.00  0.00    +0.116 A 
ATOM     14  N   UNL     1       7.735  -5.089  23.999  0.00  0.00    -0.223 NA
BRANCH   7  16
ATOM     15  C   UNL     1       6.610  -6.607  21.926  0.00  0.00    +0.033 C 
ATOM     16  C   UNL     1       5.628  -5.428  22.046  0.00  0.00    +0.100 C 
BRANCH  16  17
ATOM     17  C   UNL     1       4.667  -5.654  23.202  0.00  0.00    -0.027 A 
ATOM     18  C   UNL     1       4.724  -6.801  24.010  0.00  0.00    +0.005 A 
ATOM     19  C   UNL     1       3.813  -6.986  25.053  0.00  0.00    +0.000 A 
ATOM     20  C   UNL     1       2.828  -6.031  25.299  0.00  0.00    +0.000 A 
ATOM     21  C   UNL     1       2.749  -4.895  24.500  0.00  0.00    +0.000 A 
ATOM     22  C   UNL     1       3.662  -4.707  23.458  0.00  0.00    +0.005 A 
ENDBRANCH  16  17
ENDBRANCH   7  16
ENDBRANCH   1  11
BRANCH   4  23
ATOM     23  C   UNL     1       9.680   2.344  24.125  0.00  0.00    +0.058 C 
ATOM     24  C   UNL     1       8.976   3.639  24.548  0.00  0.00    +0.026 C 
ATOM     25  C   UNL     1       7.663   3.848  23.802  0.00  0.00    +0.081 C 
ATOM     26  N   UNL     1       7.867   3.856  22.351  0.00  0.00    -0.316 NA
ATOM     27  H   UNL     1       6.962   3.971  21.895  0.00  0.00    +0.122 HD
ATOM     28  C   UNL     1       8.459   2.596  21.896  0.00  0.00    +0.081 C 
ATOM     29  C   UNL     1       9.789   2.310  22.592  0.00  0.00    +0.026 C 
ENDBRANCH   4  23
BRANCH   6  30
ATOM     30  C   UNL     1       6.524  -0.536  26.629  0.00  0.00    +0.003 A 
ATOM     31  C   UNL     1       6.088   0.444  27.536  0.00  0.00    +0.010 A 
ATOM     32  C   UNL     1       5.094   0.169  28.480  0.00  0.00    +0.001 A 
ATOM     33  C   UNL     1       4.552  -1.111  28.565  0.00  0.00    +0.012 A 
ATOM     34  C   UNL     1       4.952  -2.104  27.662  0.00  0.00    +0.055 A 
ATOM     35  C   UNL     1       5.876  -1.774  26.652  0.00  0.00    +0.022 A 
BRANCH  34  36
ATOM     36  C   UNL     1       4.454  -3.518  27.816  0.00  0.00    +0.417 C 
ATOM     37  F   UNL     1       5.064  -4.399  26.979  0.00  0.00    -0.166 F 
ATOM     38  F   UNL     1       3.117  -3.620  27.560  0.00  0.00    -0.166 F 
ATOM     39  F   UNL     1       4.615  -4.016  29.075  0.00  0.00    -0.166 F 
ENDBRANCH  34  36
ENDBRANCH   6  30
TORSDOF 6
ENDMDL
MODEL 6
REMARK VINA RESULT:      -7.3      3.282      5.290
REMARK  Name = 
REMARK  8 active torsions:
REMARK  status: ('A' for Active; 'I' for Inactive)
REMARK    1  A    between atoms: C_1  and  C_2
REMARK    2  A    between atoms: C_2  and  N_4
REMARK    3  A    between atoms: C_2  and  C_33
REMARK    4  A    between atoms: C_9  and  C_11
REMARK    5  A    between atoms: C_12  and  C_23
REMARK    6  A    between atoms: C_14  and  C_15
REMARK    7  A    between atoms: N_21  and  C_22
REMARK    8  A    between atoms: C_25  and  C_29
REMARK                            x       y       z     vdW  Elec       q    Type
REMARK                         _______ _______ _______ _____ _____    ______ ____
ROOT
ATOM      1  C   UNL     1       7.564  -1.159  24.880  0.00  0.00    +0.095 A 
ATOM      2  N   UNL     1       7.550  -2.264  24.021  0.00  0.00    -0.329 N 
ATOM      3  C   UNL     1       8.393  -2.429  22.852  0.00  0.00    +0.150 C 
ATOM      4  C   UNL     1       6.607  -3.170  24.452  0.00  0.00    +0.114 A 
ATOM      5  N   UNL     1       5.907  -2.643  25.433  0.00  0.00    -0.231 NA
ATOM      6  C   UNL     1       6.485  -1.423  25.739  0.00  0.00    +0.099 A 
ENDROOT
BRANCH   1  11
ATOM      7  N   UNL     1       8.289   3.352  24.170  0.00  0.00    -0.307 N 
ATOM      8  H   UNL     1       8.043   3.623  25.112  0.00  0.00    +0.149 HD
ATOM      9  C   UNL     1       8.908   2.124  24.261  0.00  0.00    +0.216 A 
ATOM     10  N   UNL     1       8.083   1.113  24.547  0.00  0.00    -0.213 NA
ATOM     11  C   UNL     1       8.594  -0.104  24.806  0.00  0.00    +0.094 A 
ATOM     12  C   UNL     1       9.947  -0.290  24.914  0.00  0.00    +0.050 A 
ATOM     13  C   UNL     1      10.725   0.783  24.532  0.00  0.00    +0.116 A 
ATOM     14  N   UNL     1      10.230   1.986  24.184  0.00  0.00    -0.223 NA
BRANCH   7  16
ATOM     15  C   UNL     1       7.708   5.206  22.778  0.00  0.00    +0.033 C 
ATOM     16  C   UNL     1       8.882   4.419  23.386  0.00  0.00    +0.100 C 
BRANCH  16  17
ATOM     17  C   UNL     1       9.774   5.342  24.199  0.00  0.00    -0.027 A 
ATOM     18  C   UNL     1       9.291   6.083  25.290  0.00  0.00    +0.005 A 
ATOM     19  C   UNL     1      10.135   6.937  26.003  0.00  0.00    +0.000 A 
ATOM     20  C   UNL     1      11.473   7.067  25.635  0.00  0.00    +0.000 A 
ATOM     21  C   UNL     1      11.966   6.350  24.549  0.00  0.00    +0.000 A 
ATOM     22  C   UNL     1      11.123   5.493  23.837  0.00  0.00    +0.005 A 
ENDBRANCH  16  17
ENDBRANCH   7  16
ENDBRANCH   1  11
BRANCH   4  23
ATOM     23  C   UNL     1       6.434  -4.565  23.880  0.00  0.00    +0.058 C 
ATOM     24  C   UNL     1       5.382  -4.617  22.765  0.00  0.00    +0.026 C 
ATOM     25  C   UNL     1       3.961  -4.535  23.313  0.00  0.00    +0.081 C 
ATOM     26  N   UNL     1       3.698  -5.603  24.280  0.00  0.00    -0.316 NA
ATOM     27  H   UNL     1       2.750  -5.493  24.639  0.00  0.00    +0.122 HD
ATOM     28  C   UNL     1       4.631  -5.534  25.408  0.00  0.00    +0.081 C 
ATOM     29  C   UNL     1       6.086  -5.616  24.947  0.00  0.00    +0.026 C 
ENDBRANCH   4  23
BRANCH   6  30
ATOM     30  C   UNL     1       5.924  -0.620  26.829  0.00  0.00    +0.003 A 
ATOM     31  C   UNL     1       4.529  -0.566  26.988  0.00  0.00    +0.010 A 
ATOM     32  C   UNL     1       3.939   0.252  27.956  0.00  0.00    +0.001 A 
ATOM     33  C   UNL     1       4.736   1.070  28.753  0.00  0.00    +0.012 A 
ATOM     34  C   UNL     1       6.130   1.023  28.633  0.00  0.00    +0.055 A 
ATOM     35  C   UNL     1       6.706   0.113  27.725  0.00  0.00    +0.022 A 
BRANCH  34  36
ATOM     36  C   UNL     1       6.994   1.982  29.412  0.00  0.00    +0.417 C 
ATOM     37  F   UNL     1       8.121   1.409  29.910  0.00  0.00    -0.166 F 
ATOM     38  F   UNL     1       6.334   2.509  30.484  0.00  0.00    -0.166 F 
ATOM     39  F   UNL     1       7.405   3.058  28.682  0.00  0.00    -0.166 F 
ENDBRANCH  34  36
ENDBRANCH   6  30
TORSDOF 6
ENDMDL
MODEL 7
REMARK VINA RESULT:      -7.2      2.568      4.496
REMARK  Name = 
REMARK  8 active torsions:
REMARK  status: ('A' for Active; 'I' for Inactive)
REMARK    1  A    between atoms: C_1  and  C_2
REMARK    2  A    between atoms: C_2  and  N_4
REMARK    3  A    between atoms: C_2  and  C_33
REMARK    4  A    between atoms: C_9  and  C_11
REMARK    5  A    between atoms: C_12  and  C_23
REMARK    6  A    between atoms: C_14  and  C_15
REMARK    7  A    between atoms: N_21  and  C_22
REMARK    8  A    between atoms: C_25  and  C_29
REMARK                            x       y       z     vdW  Elec       q    Type
REMARK                         _______ _______ _______ _____ _____    ______ ____
ROOT
ATOM      1  C   UNL     1       6.200  -2.612  24.538  0.00  0.00    +0.095 A 
ATOM      2  N   UNL     1       5.583  -3.448  23.599  0.00  0.00    -0.329 N 
ATOM      3  C   UNL     1       6.159  -3.856  22.332  0.00  0.00    +0.150 C 
ATOM      4  C   UNL     1       4.339  -3.818  24.060  0.00  0.00    +0.114 A 
ATOM      5  N   UNL     1       4.057  -3.145  25.154  0.00  0.00    -0.231 NA
ATOM      6  C   UNL     1       5.186  -2.418  25.490  0.00  0.00    +0.099 A 
ENDROOT
BRANCH   1  11
ATOM      7  N   UNL     1       9.040   0.983  23.918  0.00  0.00    -0.307 N 
ATOM      8  H   UNL     1       8.997   1.288  24.880  0.00  0.00    +0.149 HD
ATOM      9  C   UNL     1       8.971  -0.393  23.935  0.00  0.00    +0.216 A 
ATOM     10  N   UNL     1       7.765  -0.879  24.241  0.00  0.00    -0.213 NA
ATOM     11  C   UNL     1       7.614  -2.202  24.433  0.00  0.00    +0.094 A 
ATOM     12  C   UNL     1       8.699  -3.037  24.453  0.00  0.00    +0.050 A 
ATOM     13  C   UNL     1       9.892  -2.470  24.057  0.00  0.00    +0.116 A 
ATOM     14  N   UNL     1      10.046  -1.161  23.774  0.00  0.00    -0.223 NA
BRANCH   7  16
ATOM     15  C   UNL     1       9.629   1.502  21.660  0.00  0.00    +0.033 C 
ATOM     16  C   UNL     1      10.054   1.659  23.131  0.00  0.00    +0.100 C 
BRANCH  16  17
ATOM     17  C   UNL     1      10.210   3.130  23.482  0.00  0.00    -0.027 A 
ATOM     18  C   UNL     1       9.142   3.903  23.964  0.00  0.00    +0.005 A 
ATOM     19  C   UNL     1       9.317   5.257  24.258  0.00  0.00    +0.000 A 
ATOM     20  C   UNL     1      10.560   5.860  24.072  0.00  0.00    +0.000 A 
ATOM     21  C   UNL     1      11.627   5.111  23.584  0.00  0.00    +0.000 A 
ATOM     22  C   UNL     1      11.454   3.755  23.291  0.00  0.00    +0.005 A 
ENDBRANCH  16  17
ENDBRANCH   7  16
ENDBRANCH   1  11
BRANCH   4  23
ATOM     23  C   UNL     1       3.456  -4.861  23.401  0.00  0.00    +0.058 C 
ATOM     24  C   UNL     1       2.049  -4.910  24.009  0.00  0.00    +0.026 C 
ATOM     25  C   UNL     1       2.039  -5.589  25.374  0.00  0.00    +0.081 C 
ATOM     26  N   UNL     1       2.584  -6.947  25.301  0.00  0.00    -0.316 NA
ATOM     27  H   UNL     1       2.583  -7.350  26.237  0.00  0.00    +0.122 HD
ATOM     28  C   UNL     1       3.963  -6.934  24.805  0.00  0.00    +0.081 C 
ATOM     29  C   UNL     1       4.065  -6.273  23.430  0.00  0.00    +0.026 C 
ENDBRANCH   4  23
BRANCH   6  30
ATOM     30  C   UNL     1       5.168  -1.589  26.699  0.00  0.00    +0.003 A 
ATOM     31  C   UNL     1       4.238  -1.879  27.711  0.00  0.00    +0.010 A 
ATOM     32  C   UNL     1       4.121  -1.069  28.844  0.00  0.00    +0.001 A 
ATOM     33  C   UNL     1       4.902   0.077  28.962  0.00  0.00    +0.012 A 
ATOM     34  C   UNL     1       5.853   0.382  27.980  0.00  0.00    +0.055 A 
ATOM     35  C   UNL     1       6.027  -0.505  26.901  0.00  0.00    +0.022 A 
BRANCH  34  36
ATOM     36  C   UNL     1       6.625   1.676  28.044  0.00  0.00    +0.417 C 
ATOM     37  F   UNL     1       5.830   2.772  28.162  0.00  0.00    -0.166 F 
ATOM     38  F   UNL     1       7.379   1.876  26.924  0.00  0.00    -0.166 F 
ATOM     39  F   UNL     1       7.506   1.731  29.082  0.00  0.00    -0.166 F 
ENDBRANCH  34  36
ENDBRANCH   6  30
TORSDOF 6
ENDMDL
MODEL 8
REMARK VINA RESULT:      -7.2      2.951      4.253
REMARK  Name = 
REMARK  8 active torsions:
REMARK  status: ('A' for Active; 'I' for Inactive)
REMARK    1  A    between atoms: C_1  and  C_2
REMARK    2  A    between atoms: C_2  and  N_4
REMARK    3  A    between atoms: C_2  and  C_33
REMARK    4  A    between atoms: C_9  and  C_11
REMARK    5  A    between atoms: C_12  and  C_23
REMARK    6  A    between atoms: C_14  and  C_15
REMARK    7  A    between atoms: N_21  and  C_22
REMARK    8  A    between atoms: C_25  and  C_29
REMARK                            x       y       z     vdW  Elec       q    Type
REMARK                         _______ _______ _______ _____ _____    ______ ____
ROOT
ATOM      1  C   UNL     1       5.758  -0.804  25.733  0.00  0.00    +0.095 A 
ATOM      2  N   UNL     1       5.032  -1.959  26.048  0.00  0.00    -0.329 N 
ATOM      3  C   UNL     1       3.769  -1.989  26.761  0.00  0.00    +0.150 C 
ATOM      4  C   UNL     1       5.706  -3.067  25.584  0.00  0.00    +0.114 A 
ATOM      5  N   UNL     1       6.889  -2.708  25.138  0.00  0.00    -0.231 NA
ATOM      6  C   UNL     1       6.943  -1.326  25.188  0.00  0.00    +0.099 A 
ENDROOT
BRANCH   1  11
ATOM      7  N   UNL     1       4.051   2.899  23.554  0.00  0.00    -0.307 N 
ATOM      8  H   UNL     1       3.122   2.513  23.455  0.00  0.00    +0.149 HD
ATOM      9  C   UNL     1       4.542   2.441  24.757  0.00  0.00    +0.216 A 
ATOM     10  N   UNL     1       4.866   1.145  24.763  0.00  0.00    -0.213 NA
ATOM     11  C   UNL     1       5.215   0.555  25.920  0.00  0.00    +0.094 A 
ATOM     12  C   UNL     1       5.113   1.226  27.110  0.00  0.00    +0.050 A 
ATOM     13  C   UNL     1       4.844   2.575  27.008  0.00  0.00    +0.116 A 
ATOM     14  N   UNL     1       4.578   3.205  25.848  0.00  0.00    -0.223 NA
BRANCH   7  16
ATOM     15  C   UNL     1       5.611   4.547  22.804  0.00  0.00    +0.033 C 
ATOM     16  C   UNL     1       4.146   4.304  23.207  0.00  0.00    +0.100 C 
BRANCH  16  17
ATOM     17  C   UNL     1       3.212   4.712  22.079  0.00  0.00    -0.027 A 
ATOM     18  C   UNL     1       2.926   6.056  21.792  0.00  0.00    +0.005 A 
ATOM     19  C   UNL     1       2.047   6.394  20.760  0.00  0.00    +0.000 A 
ATOM     20  C   UNL     1       1.438   5.395  20.004  0.00  0.00    +0.000 A 
ATOM     21  C   UNL     1       1.701   4.057  20.282  0.00  0.00    +0.000 A 
ATOM     22  C   UNL     1       2.582   3.718  21.312  0.00  0.00    +0.005 A 
ENDBRANCH  16  17
ENDBRANCH   7  16
ENDBRANCH   1  11
BRANCH   4  23
ATOM     23  C   UNL     1       5.139  -4.476  25.579  0.00  0.00    +0.058 C 
ATOM     24  C   UNL     1       6.162  -5.518  25.111  0.00  0.00    +0.026 C 
ATOM     25  C   UNL     1       6.378  -5.471  23.602  0.00  0.00    +0.081 C 
ATOM     26  N   UNL     1       5.121  -5.661  22.875  0.00  0.00    -0.316 NA
ATOM     27  H   UNL     1       5.309  -5.595  21.875  0.00  0.00    +0.122 HD
ATOM     28  C   UNL     1       4.145  -4.628  23.232  0.00  0.00    +0.081 C 
ATOM     29  C   UNL     1       3.862  -4.610  24.734  0.00  0.00    +0.026 C 
ENDBRANCH   4  23
BRANCH   6  30
ATOM     30  C   UNL     1       8.150  -0.640  24.716  0.00  0.00    +0.003 A 
ATOM     31  C   UNL     1       9.247  -0.516  25.585  0.00  0.00    +0.010 A 
ATOM     32  C   UNL     1      10.388   0.203  25.216  0.00  0.00    +0.001 A 
ATOM     33  C   UNL     1      10.431   0.854  23.986  0.00  0.00    +0.012 A 
ATOM     34  C   UNL     1       9.361   0.733  23.090  0.00  0.00    +0.055 A 
ATOM     35  C   UNL     1       8.269  -0.084  23.440  0.00  0.00    +0.022 A 
BRANCH  34  36
ATOM     36  C   UNL     1       9.351   1.522  21.805  0.00  0.00    +0.417 C 
ATOM     37  F   UNL     1       8.455   2.544  21.808  0.00  0.00    -0.166 F 
ATOM     38  F   UNL     1       9.034   0.744  20.731  0.00  0.00    -0.166 F 
ATOM     39  F   UNL     1      10.559   2.076  21.500  0.00  0.00    -0.166 F 
ENDBRANCH  34  36
ENDBRANCH   6  30
TORSDOF 6
ENDMDL
MODEL 9
REMARK VINA RESULT:      -7.2      2.964      8.264
REMARK  Name = 
REMARK  8 active torsions:
REMARK  status: ('A' for Active; 'I' for Inactive)
REMARK    1  A    between atoms: C_1  and  C_2
REMARK    2  A    between atoms: C_2  and  N_4
REMARK    3  A    between atoms: C_2  and  C_33
REMARK    4  A    between atoms: C_9  and  C_11
REMARK    5  A    between atoms: C_12  and  C_23
REMARK    6  A    between atoms: C_14  and  C_15
REMARK    7  A    between atoms: N_21  and  C_22
REMARK    8  A    between atoms: C_25  and  C_29
REMARK                            x       y       z     vdW  Elec       q    Type
REMARK                         _______ _______ _______ _____ _____    ______ ____
ROOT
ATOM      1  C   UNL     1       8.206  -1.770  25.346  0.00  0.00    +0.095 A 
ATOM      2  N   UNL     1       9.247  -1.494  24.452  0.00  0.00    -0.329 N 
ATOM      3  C   UNL     1      10.055  -2.488  23.771  0.00  0.00    +0.150 C 
ATOM      4  C   UNL     1       9.392  -0.131  24.322  0.00  0.00    +0.114 A 
ATOM      5  N   UNL     1       8.621   0.479  25.196  0.00  0.00    -0.231 NA
ATOM      6  C   UNL     1       7.861  -0.494  25.820  0.00  0.00    +0.099 A 
ENDROOT
BRANCH   1  11
ATOM      7  N   UNL     1       5.033  -4.822  23.934  0.00  0.00    -0.307 N 
ATOM      8  H   UNL     1       5.564  -5.125  23.129  0.00  0.00    +0.149 HD
ATOM      9  C   UNL     1       5.946  -4.542  24.927  0.00  0.00    +0.216 A 
ATOM     10  N   UNL     1       6.651  -3.426  24.727  0.00  0.00    -0.213 NA
ATOM     11  C   UNL     1       7.672  -3.131  25.552  0.00  0.00    +0.094 A 
ATOM     12  C   UNL     1       8.082  -4.022  26.509  0.00  0.00    +0.050 A 
ATOM     13  C   UNL     1       7.257  -5.110  26.697  0.00  0.00    +0.116 A 
ATOM     14  N   UNL     1       6.178  -5.378  25.937  0.00  0.00    -0.223 NA
BRANCH   7  16
ATOM     15  C   UNL     1       4.408  -7.014  24.654  0.00  0.00    +0.033 C 
ATOM     16  C   UNL     1       3.869  -5.641  24.213  0.00  0.00    +0.100 C 
BRANCH  16  17
ATOM     17  C   UNL     1       2.963  -5.058  25.286  0.00  0.00    -0.027 A 
ATOM     18  C   UNL     1       2.619  -5.771  26.445  0.00  0.00    +0.005 A 
ATOM     19  C   UNL     1       1.769  -5.212  27.401  0.00  0.00    +0.000 A 
ATOM     20  C   UNL     1       1.245  -3.934  27.210  0.00  0.00    +0.000 A 
ATOM     21  C   UNL     1       1.565  -3.218  26.061  0.00  0.00    +0.000 A 
ATOM     22  C   UNL     1       2.418  -3.776  25.105  0.00  0.00    +0.005 A 
ENDBRANCH  16  17
ENDBRANCH   7  16
ENDBRANCH   1  11
BRANCH   4  23
ATOM     23  C   UNL     1      10.294   0.543  23.304  0.00  0.00    +0.058 C 
ATOM     24  C   UNL     1      10.505   2.032  23.600  0.00  0.00    +0.026 C 
ATOM     25  C   UNL     1       9.279   2.866  23.244  0.00  0.00    +0.081 C 
ATOM     26  N   UNL     1       8.907   2.697  21.837  0.00  0.00    -0.316 NA
ATOM     27  H   UNL     1       8.070   3.249  21.652  0.00  0.00    +0.122 HD
ATOM     28  C   UNL     1       8.612   1.294  21.535  0.00  0.00    +0.081 C 
ATOM     29  C   UNL     1       9.797   0.384  21.858  0.00  0.00    +0.026 C 
ENDBRANCH   4  23
BRANCH   6  30
ATOM     30  C   UNL     1       6.879  -0.094  26.832  0.00  0.00    +0.003 A 
ATOM     31  C   UNL     1       7.051   1.129  27.502  0.00  0.00    +0.010 A 
ATOM     32  C   UNL     1       6.193   1.518  28.536  0.00  0.00    +0.001 A 
ATOM     33  C   UNL     1       5.173   0.665  28.950  0.00  0.00    +0.012 A 
ATOM     34  C   UNL     1       4.964  -0.551  28.288  0.00  0.00    +0.055 A 
ATOM     35  C   UNL     1       5.773  -0.874  27.182  0.00  0.00    +0.022 A 
BRANCH  34  36
ATOM     36  C   UNL     1       3.935  -1.529  28.799  0.00  0.00    +0.417 C 
ATOM     37  F   UNL     1       3.975  -1.697  30.147  0.00  0.00    -0.166 F 
ATOM     38  F   UNL     1       4.099  -2.771  28.259  0.00  0.00    -0.166 F 
ATOM     39  F   UNL     1       2.654  -1.174  28.496  0.00  0.00    -0.166 F 
ENDBRANCH  34  36
ENDBRANCH   6  30
TORSDOF 6
ENDMDL
