MODEL 1
REMARK VINA RESULT:      -7.5      0.000      0.000
REMARK  Name = 
REMARK  6 active torsions:
REMARK  status: ('A' for Active; 'I' for Inactive)
REMARK    1  A    between atoms: C_1  and  N_2
REMARK    2  A    between atoms: N_2  and  C_3
REMARK    3  A    between atoms: C_9  and  C_10
REMARK    4  A    between atoms: C_11  and  O_13
REMARK    5  A    between atoms: O_13  and  C_14
REMARK    6  A    between atoms: C_35  and  O_37
REMARK                            x       y       z     vdW  Elec       q    Type
REMARK                         _______ _______ _______ _____ _____    ______ ____
ROOT
ATOM      1  C   UNL     1       3.615   0.114  27.470  0.00  0.00    +0.091 C 
ATOM      2  C   UNL     1       4.392   1.278  26.813  0.00  0.00    +0.187 C 
ATOM      3  C   UNL     1       5.897   1.260  27.259  0.00  0.00    +0.174 C 
ATOM      4  C   UNL     1       6.176   2.049  28.552  0.00  0.00    +0.069 C 
ATOM      5  N   UNL     1       6.728   1.712  26.149  0.00  0.00    -0.307 N 
ATOM      6  C   UNL     1       7.079   1.031  25.035  0.00  0.00    +0.077 A 
ATOM      7  C   UNL     1       6.672  -0.242  24.704  0.00  0.00    +0.077 A 
ATOM      8  N   UNL     1       6.459  -1.204  25.645  0.00  0.00    -0.311 N 
ATOM      9  C   UNL     1       5.861  -1.150  26.964  0.00  0.00    +0.224 C 
ATOM     10  C   UNL     1       6.827  -2.330  24.896  0.00  0.00    +0.052 A 
ATOM     11  C   UNL     1       7.317  -3.606  25.184  0.00  0.00    +0.026 A 
ATOM     12  C   UNL     1       6.888  -4.614  24.315  0.00  0.00    +0.002 A 
ATOM     13  C   UNL     1       6.001  -4.319  23.280  0.00  0.00    +0.001 A 
ATOM     14  C   UNL     1       5.881  -3.002  22.828  0.00  0.00    +0.010 A 
ATOM     15  C   UNL     1       6.618  -2.023  23.515  0.00  0.00    +0.008 A 
ATOM     16  C   UNL     1       6.933  -0.648  23.367  0.00  0.00    +0.022 A 
ATOM     17  C   UNL     1       8.142  -0.264  22.676  0.00  0.00    +0.054 A 
ATOM     18  C   UNL     1       9.161  -0.937  21.917  0.00  0.00    +0.247 C 
ATOM     19  O   UNL     1       9.292  -2.078  21.493  0.00  0.00    -0.270 OA
ATOM     20  N   UNL     1      10.196   0.005  21.809  0.00  0.00    -0.282 N 
ATOM     21  H   UNL     1      11.109  -0.318  21.524  0.00  0.00    +0.152 HD
ATOM     22  C   UNL     1       9.968   1.246  22.494  0.00  0.00    +0.235 C 
ATOM     23  C   UNL     1       8.645   0.999  23.051  0.00  0.00    +0.021 A 
ATOM     24  C   UNL     1       7.979   1.589  24.133  0.00  0.00    +0.018 A 
ATOM     25  C   UNL     1       8.215   2.847  24.717  0.00  0.00    +0.008 A 
ATOM     26  C   UNL     1       9.024   3.959  24.381  0.00  0.00    +0.010 A 
ATOM     27  C   UNL     1       8.946   5.138  25.119  0.00  0.00    +0.001 A 
ATOM     28  C   UNL     1       8.034   5.262  26.152  0.00  0.00    +0.002 A 
ATOM     29  C   UNL     1       7.220   4.189  26.529  0.00  0.00    +0.026 A 
ATOM     30  C   UNL     1       7.342   2.954  25.881  0.00  0.00    +0.053 A 
ATOM     31  O   UNL     1       6.395  -0.045  27.662  0.00  0.00    -0.328 OA
ATOM     32  C   UNL     1       4.312  -1.200  27.050  0.00  0.00    +0.076 C 
ENDROOT
BRANCH   1  34
ATOM     33  C   UNL     1       3.529  -0.820  29.790  0.00  0.00    +0.101 C 
ATOM     34  N   UNL     1       3.511   0.355  28.919  0.00  0.00    -0.314 NA
ATOM     35  H   UNL     1       4.211   1.027  29.235  0.00  0.00    +0.122 HD
ENDBRANCH   1  34
BRANCH   2  36
ATOM     36  O   UNL     1       3.824   2.587  27.012  0.00  0.00    -0.373 OA
ATOM     37  C   UNL     1       3.453   3.268  25.822  0.00  0.00    +0.194 C 
ENDBRANCH   2  36
BRANCH  22  38
ATOM     38  O   UNL     1       9.958   2.258  21.528  0.00  0.00    -0.370 OA
ATOM     39  H   UNL     1      10.847   2.274  21.152  0.00  0.00    +0.212 HD
ENDBRANCH  22  38
TORSDOF 3
ENDMDL
MODEL 2
REMARK VINA RESULT:      -7.4      2.504      5.719
REMARK  Name = 
REMARK  6 active torsions:
REMARK  status: ('A' for Active; 'I' for Inactive)
REMARK    1  A    between atoms: C_1  and  N_2
REMARK    2  A    between atoms: N_2  and  C_3
REMARK    3  A    between atoms: C_9  and  C_10
REMARK    4  A    between atoms: C_11  and  O_13
REMARK    5  A    between atoms: O_13  and  C_14
REMARK    6  A    between atoms: C_35  and  O_37
REMARK                            x       y       z     vdW  Elec       q    Type
REMARK                         _______ _______ _______ _____ _____    ______ ____
ROOT
ATOM      1  C   UNL     1       5.316   2.539  27.340  0.00  0.00    +0.091 C 
ATOM      2  C   UNL     1       5.160   1.150  28.001  0.00  0.00    +0.187 C 
ATOM      3  C   UNL     1       4.453   0.148  27.021  0.00  0.00    +0.174 C 
ATOM      4  C   UNL     1       2.916   0.160  27.114  0.00  0.00    +0.069 C 
ATOM      5  N   UNL     1       5.006  -1.186  27.225  0.00  0.00    -0.307 N 
ATOM      6  C   UNL     1       6.200  -1.670  26.815  0.00  0.00    +0.077 A 
ATOM      7  C   UNL     1       7.171  -0.961  26.142  0.00  0.00    +0.077 A 
ATOM      8  N   UNL     1       6.865   0.016  25.244  0.00  0.00    -0.311 N 
ATOM      9  C   UNL     1       5.844   1.046  25.245  0.00  0.00    +0.224 C 
ATOM     10  C   UNL     1       7.952  -0.137  24.373  0.00  0.00    +0.052 A 
ATOM     11  C   UNL     1       8.196   0.123  23.023  0.00  0.00    +0.026 A 
ATOM     12  C   UNL     1       9.507   0.506  22.722  0.00  0.00    +0.002 A 
ATOM     13  C   UNL     1      10.450   0.644  23.741  0.00  0.00    +0.001 A 
ATOM     14  C   UNL     1      10.245  -0.001  24.963  0.00  0.00    +0.010 A 
ATOM     15  C   UNL     1       9.034  -0.697  25.121  0.00  0.00    +0.008 A 
ATOM     16  C   UNL     1       8.446  -1.583  26.060  0.00  0.00    +0.022 A 
ATOM     17  C   UNL     1       8.588  -3.009  25.881  0.00  0.00    +0.054 A 
ATOM     18  C   UNL     1       9.328  -3.876  25.004  0.00  0.00    +0.247 C 
ATOM     19  O   UNL     1      10.196  -3.692  24.161  0.00  0.00    -0.270 OA
ATOM     20  N   UNL     1       8.748  -5.140  25.191  0.00  0.00    -0.282 N 
ATOM     21  H   UNL     1       8.941  -5.861  24.511  0.00  0.00    +0.152 HD
ATOM     22  C   UNL     1       7.630  -5.174  26.093  0.00  0.00    +0.235 C 
ATOM     23  C   UNL     1       7.563  -3.771  26.479  0.00  0.00    +0.021 A 
ATOM     24  C   UNL     1       6.510  -3.012  27.004  0.00  0.00    +0.018 A 
ATOM     25  C   UNL     1       5.367  -3.468  27.687  0.00  0.00    +0.008 A 
ATOM     26  C   UNL     1       4.953  -4.721  28.199  0.00  0.00    +0.010 A 
ATOM     27  C   UNL     1       3.787  -4.826  28.953  0.00  0.00    +0.001 A 
ATOM     28  C   UNL     1       3.047  -3.698  29.265  0.00  0.00    +0.002 A 
ATOM     29  C   UNL     1       3.409  -2.440  28.776  0.00  0.00    +0.026 A 
ATOM     30  C   UNL     1       4.516  -2.308  27.928  0.00  0.00    +0.053 A 
ATOM     31  O   UNL     1       4.611   0.465  25.611  0.00  0.00    -0.328 OA
ATOM     32  C   UNL     1       6.138   2.343  26.045  0.00  0.00    +0.076 C 
ENDROOT
BRANCH   1  34
ATOM     33  C   UNL     1       3.815   4.069  26.048  0.00  0.00    +0.101 C 
ATOM     34  N   UNL     1       3.988   3.152  27.174  0.00  0.00    -0.314 NA
ATOM     35  H   UNL     1       3.252   2.446  27.157  0.00  0.00    +0.122 HD
ENDBRANCH   1  34
BRANCH   2  36
ATOM     36  O   UNL     1       4.501   1.150  29.282  0.00  0.00    -0.373 OA
ATOM     37  C   UNL     1       5.314   0.749  30.376  0.00  0.00    +0.194 C 
ENDBRANCH   2  36
BRANCH  22  38
ATOM     38  O   UNL     1       7.984  -6.004  27.162  0.00  0.00    -0.370 OA
ATOM     39  H   UNL     1       8.804  -6.440  26.899  0.00  0.00    +0.212 HD
ENDBRANCH  22  38
TORSDOF 3
ENDMDL
MODEL 3
REMARK VINA RESULT:      -7.2      2.339      6.395
REMARK  Name = 
REMARK  6 active torsions:
REMARK  status: ('A' for Active; 'I' for Inactive)
REMARK    1  A    between atoms: C_1  and  N_2
REMARK    2  A    between atoms: N_2  and  C_3
REMARK    3  A    between atoms: C_9  and  C_10
REMARK    4  A    between atoms: C_11  and  O_13
REMARK    5  A    between atoms: O_13  and  C_14
REMARK    6  A    between atoms: C_35  and  O_37
REMARK                            x       y       z     vdW  Elec       q    Type
REMARK                         _______ _______ _______ _____ _____    ______ ____
ROOT
ATOM      1  C   UNL     1       5.604  -4.483  22.320  0.00  0.00    +0.091 C 
ATOM      2  C   UNL     1       4.903  -4.004  23.612  0.00  0.00    +0.187 C 
ATOM      3  C   UNL     1       5.892  -4.054  24.829  0.00  0.00    +0.174 C 
ATOM      4  C   UNL     1       5.914  -5.408  25.563  0.00  0.00    +0.069 C 
ATOM      5  N   UNL     1       5.596  -2.945  25.729  0.00  0.00    -0.307 N 
ATOM      6  C   UNL     1       5.898  -1.636  25.573  0.00  0.00    +0.077 A 
ATOM      7  C   UNL     1       6.524  -1.076  24.482  0.00  0.00    +0.077 A 
ATOM      8  N   UNL     1       7.481  -1.740  23.773  0.00  0.00    -0.311 N 
ATOM      9  C   UNL     1       7.595  -3.126  23.367  0.00  0.00    +0.224 C 
ATOM     10  C   UNL     1       8.262  -0.645  23.379  0.00  0.00    +0.052 A 
ATOM     11  C   UNL     1       9.600  -0.446  23.031  0.00  0.00    +0.026 A 
ATOM     12  C   UNL     1       9.818   0.538  22.061  0.00  0.00    +0.002 A 
ATOM     13  C   UNL     1       8.738   1.208  21.485  0.00  0.00    +0.001 A 
ATOM     14  C   UNL     1       7.510   1.238  22.151  0.00  0.00    +0.010 A 
ATOM     15  C   UNL     1       7.415   0.506  23.347  0.00  0.00    +0.008 A 
ATOM     16  C   UNL     1       6.488   0.343  24.408  0.00  0.00    +0.022 A 
ATOM     17  C   UNL     1       6.600   1.170  25.586  0.00  0.00    +0.054 A 
ATOM     18  C   UNL     1       7.386   2.306  25.985  0.00  0.00    +0.247 C 
ATOM     19  O   UNL     1       8.169   3.045  25.403  0.00  0.00    -0.270 OA
ATOM     20  N   UNL     1       7.193   2.396  27.372  0.00  0.00    -0.282 N 
ATOM     21  H   UNL     1       7.829   2.969  27.908  0.00  0.00    +0.152 HD
ATOM     22  C   UNL     1       6.376   1.363  27.945  0.00  0.00    +0.235 C 
ATOM     23  C   UNL     1       6.050   0.595  26.751  0.00  0.00    +0.021 A 
ATOM     24  C   UNL     1       5.634  -0.734  26.598  0.00  0.00    +0.018 A 
ATOM     25  C   UNL     1       5.020  -1.567  27.551  0.00  0.00    +0.008 A 
ATOM     26  C   UNL     1       4.492  -1.366  28.849  0.00  0.00    +0.010 A 
ATOM     27  C   UNL     1       3.823  -2.395  29.507  0.00  0.00    +0.001 A 
ATOM     28  C   UNL     1       3.611  -3.610  28.879  0.00  0.00    +0.002 A 
ATOM     29  C   UNL     1       4.120  -3.861  27.602  0.00  0.00    +0.026 A 
ATOM     30  C   UNL     1       4.889  -2.890  26.949  0.00  0.00    +0.053 A 
ATOM     31  O   UNL     1       7.298  -3.952  24.473  0.00  0.00    -0.328 OA
ATOM     32  C   UNL     1       6.826  -3.564  22.091  0.00  0.00    +0.076 C 
ENDROOT
BRANCH   1  34
ATOM     33  C   UNL     1       7.155  -6.392  21.860  0.00  0.00    +0.101 C 
ATOM     34  N   UNL     1       5.891  -5.923  22.427  0.00  0.00    -0.314 NA
ATOM     35  H   UNL     1       5.806  -6.248  23.390  0.00  0.00    +0.122 HD
ENDBRANCH   1  34
BRANCH   2  36
ATOM     36  O   UNL     1       3.675  -4.685  23.933  0.00  0.00    -0.373 OA
ATOM     37  C   UNL     1       2.599  -3.838  24.312  0.00  0.00    +0.194 C 
ENDBRANCH   2  36
BRANCH  22  38
ATOM     38  O   UNL     1       5.252   1.982  28.502  0.00  0.00    -0.370 OA
ATOM     39  H   UNL     1       5.581   2.765  28.960  0.00  0.00    +0.212 HD
ENDBRANCH  22  38
TORSDOF 3
ENDMDL
MODEL 4
REMARK VINA RESULT:      -7.1      1.664      5.129
REMARK  Name = 
REMARK  6 active torsions:
REMARK  status: ('A' for Active; 'I' for Inactive)
REMARK    1  A    between atoms: C_1  and  N_2
REMARK    2  A    between atoms: N_2  and  C_3
REMARK    3  A    between atoms: C_9  and  C_10
REMARK    4  A    between atoms: C_11  and  O_13
REMARK    5  A    between atoms: O_13  and  C_14
REMARK    6  A    between atoms: C_35  and  O_37
REMARK                            x       y       z     vdW  Elec       q    Type
REMARK                         _______ _______ _______ _____ _____    ______ ____
ROOT
ATOM      1  C   UNL     1       4.663   2.338  27.966  0.00  0.00    +0.091 C 
ATOM      2  C   UNL     1       5.378   0.968  27.913  0.00  0.00    +0.187 C 
ATOM      3  C   UNL     1       4.859   0.120  26.698  0.00  0.00    +0.174 C 
ATOM      4  C   UNL     1       3.625  -0.744  27.019  0.00  0.00    +0.069 C 
ATOM      5  N   UNL     1       5.962  -0.672  26.166  0.00  0.00    -0.307 N 
ATOM      6  C   UNL     1       6.997  -0.258  25.400  0.00  0.00    +0.077 A 
ATOM      7  C   UNL     1       7.238   1.037  25.000  0.00  0.00    +0.077 A 
ATOM      8  N   UNL     1       6.231   1.912  24.723  0.00  0.00    -0.311 N 
ATOM      9  C   UNL     1       4.951   2.146  25.362  0.00  0.00    +0.224 C 
ATOM     10  C   UNL     1       6.864   2.669  23.728  0.00  0.00    +0.052 A 
ATOM     11  C   UNL     1       6.446   3.436  22.638  0.00  0.00    +0.026 A 
ATOM     12  C   UNL     1       7.246   4.548  22.356  0.00  0.00    +0.002 A 
ATOM     13  C   UNL     1       8.345   4.846  23.163  0.00  0.00    +0.001 A 
ATOM     14  C   UNL     1       8.911   3.843  23.956  0.00  0.00    +0.010 A 
ATOM     15  C   UNL     1       8.274   2.591  23.951  0.00  0.00    +0.008 A 
ATOM     16  C   UNL     1       8.523   1.283  24.441  0.00  0.00    +0.022 A 
ATOM     17  C   UNL     1       9.184   0.318  23.596  0.00  0.00    +0.054 A 
ATOM     18  C   UNL     1       9.834   0.335  22.313  0.00  0.00    +0.247 C 
ATOM     19  O   UNL     1      10.153   1.224  21.534  0.00  0.00    -0.270 OA
ATOM     20  N   UNL     1       9.970  -1.019  21.972  0.00  0.00    -0.282 N 
ATOM     21  H   UNL     1      10.182  -1.252  21.013  0.00  0.00    +0.152 HD
ATOM     22  C   UNL     1       9.404  -1.947  22.910  0.00  0.00    +0.235 C 
ATOM     23  C   UNL     1       8.892  -1.025  23.915  0.00  0.00    +0.021 A 
ATOM     24  C   UNL     1       7.898  -1.185  24.888  0.00  0.00    +0.018 A 
ATOM     25  C   UNL     1       7.411  -2.383  25.443  0.00  0.00    +0.008 A 
ATOM     26  C   UNL     1       7.800  -3.742  25.363  0.00  0.00    +0.010 A 
ATOM     27  C   UNL     1       7.169  -4.704  26.148  0.00  0.00    +0.001 A 
ATOM     28  C   UNL     1       6.195  -4.340  27.060  0.00  0.00    +0.002 A 
ATOM     29  C   UNL     1       5.769  -3.012  27.170  0.00  0.00    +0.026 A 
ATOM     30  C   UNL     1       6.303  -2.032  26.326  0.00  0.00    +0.053 A 
ATOM     31  O   UNL     1       4.324   0.903  25.597  0.00  0.00    -0.328 OA
ATOM     32  C   UNL     1       4.936   3.052  26.622  0.00  0.00    +0.076 C 
ENDROOT
BRANCH   1  34
ATOM     33  C   UNL     1       2.286   3.098  27.772  0.00  0.00    +0.101 C 
ATOM     34  N   UNL     1       3.246   2.135  28.312  0.00  0.00    -0.314 NA
ATOM     35  H   UNL     1       2.941   1.187  28.090  0.00  0.00    +0.122 HD
ENDBRANCH   1  34
BRANCH   2  36
ATOM     36  O   UNL     1       5.317   0.196  29.128  0.00  0.00    -0.373 OA
ATOM     37  C   UNL     1       5.811   0.856  30.285  0.00  0.00    +0.194 C 
ENDBRANCH   2  36
BRANCH  22  38
ATOM     38  O   UNL     1      10.451  -2.736  23.397  0.00  0.00    -0.370 OA
ATOM     39  H   UNL     1      11.196  -2.585  22.803  0.00  0.00    +0.212 HD
ENDBRANCH  22  38
TORSDOF 3
ENDMDL
MODEL 5
REMARK VINA RESULT:      -7.1      1.913      2.739
REMARK  Name = 
REMARK  6 active torsions:
REMARK  status: ('A' for Active; 'I' for Inactive)
REMARK    1  A    between atoms: C_1  and  N_2
REMARK    2  A    between atoms: N_2  and  C_3
REMARK    3  A    between atoms: C_9  and  C_10
REMARK    4  A    between atoms: C_11  and  O_13
REMARK    5  A    between atoms: O_13  and  C_14
REMARK    6  A    between atoms: C_35  and  O_37
REMARK                            x       y       z     vdW  Elec       q    Type
REMARK                         _______ _______ _______ _____ _____    ______ ____
ROOT
ATOM      1  C   UNL     1       3.817   2.735  26.229  0.00  0.00    +0.091 C 
ATOM      2  C   UNL     1       5.058   2.885  25.318  0.00  0.00    +0.187 C 
ATOM      3  C   UNL     1       6.371   2.565  26.116  0.00  0.00    +0.174 C 
ATOM      4  C   UNL     1       6.981   3.783  26.834  0.00  0.00    +0.069 C 
ATOM      5  N   UNL     1       7.326   1.920  25.221  0.00  0.00    -0.307 N 
ATOM      6  C   UNL     1       7.321   0.645  24.770  0.00  0.00    +0.077 A 
ATOM      7  C   UNL     1       6.362  -0.305  25.043  0.00  0.00    +0.077 A 
ATOM      8  N   UNL     1       5.712  -0.359  26.239  0.00  0.00    -0.311 N 
ATOM      9  C   UNL     1       5.201   0.683  27.108  0.00  0.00    +0.224 C 
ATOM     10  C   UNL     1       5.508  -1.743  26.317  0.00  0.00    +0.052 A 
ATOM     11  C   UNL     1       5.335  -2.671  27.346  0.00  0.00    +0.026 A 
ATOM     12  C   UNL     1       4.486  -3.740  27.041  0.00  0.00    +0.002 A 
ATOM     13  C   UNL     1       3.852  -3.802  25.800  0.00  0.00    +0.001 A 
ATOM     14  C   UNL     1       4.373  -3.080  24.722  0.00  0.00    +0.010 A 
ATOM     15  C   UNL     1       5.481  -2.256  24.983  0.00  0.00    +0.008 A 
ATOM     16  C   UNL     1       6.411  -1.480  24.244  0.00  0.00    +0.022 A 
ATOM     17  C   UNL     1       7.662  -2.070  23.831  0.00  0.00    +0.054 A 
ATOM     18  C   UNL     1       8.247  -3.383  23.852  0.00  0.00    +0.247 C 
ATOM     19  O   UNL     1       7.825  -4.498  24.134  0.00  0.00    -0.270 OA
ATOM     20  N   UNL     1       9.605  -3.166  23.574  0.00  0.00    -0.282 N 
ATOM     21  H   UNL     1      10.259  -3.910  23.769  0.00  0.00    +0.152 HD
ATOM     22  C   UNL     1       9.987  -1.790  23.424  0.00  0.00    +0.235 C 
ATOM     23  C   UNL     1       8.701  -1.138  23.626  0.00  0.00    +0.021 A 
ATOM     24  C   UNL     1       8.385   0.173  24.008  0.00  0.00    +0.018 A 
ATOM     25  C   UNL     1       9.184   1.325  23.900  0.00  0.00    +0.008 A 
ATOM     26  C   UNL     1      10.425   1.616  23.285  0.00  0.00    +0.010 A 
ATOM     27  C   UNL     1      10.909   2.922  23.253  0.00  0.00    +0.001 A 
ATOM     28  C   UNL     1      10.156   3.964  23.766  0.00  0.00    +0.002 A 
ATOM     29  C   UNL     1       8.929   3.727  24.391  0.00  0.00    +0.026 A 
ATOM     30  C   UNL     1       8.456   2.417  24.539  0.00  0.00    +0.053 A 
ATOM     31  O   UNL     1       6.189   1.681  27.255  0.00  0.00    -0.328 OA
ATOM     32  C   UNL     1       3.812   1.284  26.764  0.00  0.00    +0.076 C 
ENDROOT
BRANCH   1  34
ATOM     33  C   UNL     1       3.239   3.479  28.547  0.00  0.00    +0.101 C 
ATOM     34  N   UNL     1       3.829   3.798  27.247  0.00  0.00    -0.314 NA
ATOM     35  H   UNL     1       4.767   4.175  27.380  0.00  0.00    +0.122 HD
ENDBRANCH   1  34
BRANCH   2  36
ATOM     36  O   UNL     1       5.175   4.153  24.644  0.00  0.00    -0.373 OA
ATOM     37  C   UNL     1       5.195   4.080  23.226  0.00  0.00    +0.194 C 
ENDBRANCH   2  36
BRANCH  22  38
ATOM     38  O   UNL     1      10.464  -1.631  22.118  0.00  0.00    -0.370 OA
ATOM     39  H   UNL     1       9.705  -1.351  21.591  0.00  0.00    +0.212 HD
ENDBRANCH  22  38
TORSDOF 3
ENDMDL
MODEL 6
REMARK VINA RESULT:      -7.1      2.527      6.154
REMARK  Name = 
REMARK  6 active torsions:
REMARK  status: ('A' for Active; 'I' for Inactive)
REMARK    1  A    between atoms: C_1  and  N_2
REMARK    2  A    between atoms: N_2  and  C_3
REMARK    3  A    between atoms: C_9  and  C_10
REMARK    4  A    between atoms: C_11  and  O_13
REMARK    5  A    between atoms: O_13  and  C_14
REMARK    6  A    between atoms: C_35  and  O_37
REMARK                            x       y       z     vdW  Elec       q    Type
REMARK                         _______ _______ _______ _____ _____    ______ ____
ROOT
ATOM      1  C   UNL     1       3.187  -3.653  28.088  0.00  0.00    +0.091 C 
ATOM      2  C   UNL     1       4.134  -4.321  27.064  0.00  0.00    +0.187 C 
ATOM      3  C   UNL     1       3.911  -3.720  25.631  0.00  0.00    +0.174 C 
ATOM      4  C   UNL     1       2.821  -4.439  24.813  0.00  0.00    +0.069 C 
ATOM      5  N   UNL     1       5.189  -3.679  24.929  0.00  0.00    -0.307 N 
ATOM      6  C   UNL     1       6.213  -2.813  25.103  0.00  0.00    +0.077 A 
ATOM      7  C   UNL     1       6.264  -1.800  26.034  0.00  0.00    +0.077 A 
ATOM      8  N   UNL     1       5.156  -1.106  26.415  0.00  0.00    -0.311 N 
ATOM      9  C   UNL     1       3.792  -1.527  26.668  0.00  0.00    +0.224 C 
ATOM     10  C   UNL     1       5.751   0.135  26.676  0.00  0.00    +0.052 A 
ATOM     11  C   UNL     1       5.327   1.466  26.678  0.00  0.00    +0.026 A 
ATOM     12  C   UNL     1       5.945   2.282  27.633  0.00  0.00    +0.002 A 
ATOM     13  C   UNL     1       6.877   1.742  28.520  0.00  0.00    +0.001 A 
ATOM     14  C   UNL     1       7.520   0.543  28.201  0.00  0.00    +0.010 A 
ATOM     15  C   UNL     1       7.119  -0.101  27.018  0.00  0.00    +0.008 A 
ATOM     16  C   UNL     1       7.539  -1.199  26.225  0.00  0.00    +0.022 A 
ATOM     17  C   UNL     1       8.450  -0.979  25.126  0.00  0.00    +0.054 A 
ATOM     18  C   UNL     1       9.224   0.125  24.626  0.00  0.00    +0.247 C 
ATOM     19  O   UNL     1       9.466   1.251  25.041  0.00  0.00    -0.270 OA
ATOM     20  N   UNL     1       9.635  -0.286  23.349  0.00  0.00    -0.282 N 
ATOM     21  H   UNL     1       9.990   0.412  22.712  0.00  0.00    +0.152 HD
ATOM     22  C   UNL     1       9.141  -1.568  22.930  0.00  0.00    +0.235 C 
ATOM     23  C   UNL     1       8.367  -1.947  24.104  0.00  0.00    +0.021 A 
ATOM     24  C   UNL     1       7.315  -2.859  24.255  0.00  0.00    +0.018 A 
ATOM     25  C   UNL     1       6.988  -3.953  23.433  0.00  0.00    +0.008 A 
ATOM     26  C   UNL     1       7.617  -4.591  22.337  0.00  0.00    +0.010 A 
ATOM     27  C   UNL     1       7.083  -5.759  21.798  0.00  0.00    +0.001 A 
ATOM     28  C   UNL     1       5.965  -6.347  22.362  0.00  0.00    +0.002 A 
ATOM     29  C   UNL     1       5.302  -5.751  23.439  0.00  0.00    +0.026 A 
ATOM     30  C   UNL     1       5.745  -4.522  23.943  0.00  0.00    +0.053 A 
ATOM     31  O   UNL     1       3.372  -2.371  25.616  0.00  0.00    -0.328 OA
ATOM     32  C   UNL     1       3.478  -2.134  28.062  0.00  0.00    +0.076 C 
ENDROOT
BRANCH   1  34
ATOM     33  C   UNL     1       0.750  -3.086  28.131  0.00  0.00    +0.101 C 
ATOM     34  N   UNL     1       1.799  -4.049  27.798  0.00  0.00    -0.314 NA
ATOM     35  H   UNL     1       1.693  -4.350  26.829  0.00  0.00    +0.122 HD
ENDBRANCH   1  34
BRANCH   2  36
ATOM     36  O   UNL     1       4.076  -5.760  27.021  0.00  0.00    -0.373 OA
ATOM     37  C   UNL     1       5.306  -6.418  27.289  0.00  0.00    +0.194 C 
ENDBRANCH   2  36
BRANCH  22  38
ATOM     38  O   UNL     1      10.251  -2.397  22.735  0.00  0.00    -0.370 OA
ATOM     39  H   UNL     1      11.026  -1.843  22.889  0.00  0.00    +0.212 HD
ENDBRANCH  22  38
TORSDOF 3
ENDMDL
MODEL 7
REMARK VINA RESULT:      -7.1      2.264      6.168
REMARK  Name = 
REMARK  6 active torsions:
REMARK  status: ('A' for Active; 'I' for Inactive)
REMARK    1  A    between atoms: C_1  and  N_2
REMARK    2  A    between atoms: N_2  and  C_3
REMARK    3  A    between atoms: C_9  and  C_10
REMARK    4  A    between atoms: C_11  and  O_13
REMARK    5  A    between atoms: O_13  and  C_14
REMARK    6  A    between atoms: C_35  and  O_37
REMARK                            x       y       z     vdW  Elec       q    Type
REMARK                         _______ _______ _______ _____ _____    ______ ____
ROOT
ATOM      1  C   UNL     1       8.097  -4.097  23.922  0.00  0.00    +0.091 C 
ATOM      2  C   UNL     1       6.733  -3.602  24.455  0.00  0.00    +0.187 C 
ATOM      3  C   UNL     1       6.900  -2.939  25.869  0.00  0.00    +0.174 C 
ATOM      4  C   UNL     1       6.790  -3.930  27.042  0.00  0.00    +0.069 C 
ATOM      5  N   UNL     1       5.955  -1.835  25.991  0.00  0.00    -0.307 N 
ATOM      6  C   UNL     1       6.029  -0.604  25.435  0.00  0.00    +0.077 A 
ATOM      7  C   UNL     1       7.018  -0.158  24.587  0.00  0.00    +0.077 A 
ATOM      8  N   UNL     1       8.314  -0.562  24.707  0.00  0.00    -0.311 N 
ATOM      9  C   UNL     1       8.899  -1.850  25.022  0.00  0.00    +0.224 C 
ATOM     10  C   UNL     1       8.950   0.602  24.255  0.00  0.00    +0.052 A 
ATOM     11  C   UNL     1      10.195   1.202  24.456  0.00  0.00    +0.026 A 
ATOM     12  C   UNL     1      10.701   1.897  23.352  0.00  0.00    +0.002 A 
ATOM     13  C   UNL     1       9.993   1.917  22.150  0.00  0.00    +0.001 A 
ATOM     14  C   UNL     1       8.623   1.646  22.152  0.00  0.00    +0.010 A 
ATOM     15  C   UNL     1       8.046   1.281  23.380  0.00  0.00    +0.008 A 
ATOM     16  C   UNL     1       6.748   1.061  23.908  0.00  0.00    +0.022 A 
ATOM     17  C   UNL     1       6.044   2.148  24.545  0.00  0.00    +0.054 A 
ATOM     18  C   UNL     1       6.249   3.562  24.711  0.00  0.00    +0.247 C 
ATOM     19  O   UNL     1       7.059   4.362  24.261  0.00  0.00    -0.270 OA
ATOM     20  N   UNL     1       5.327   3.936  25.701  0.00  0.00    -0.282 N 
ATOM     21  H   UNL     1       5.447   4.830  26.154  0.00  0.00    +0.152 HD
ATOM     22  C   UNL     1       4.554   2.860  26.255  0.00  0.00    +0.235 C 
ATOM     23  C   UNL     1       5.080   1.738  25.490  0.00  0.00    +0.021 A 
ATOM     24  C   UNL     1       5.083   0.363  25.759  0.00  0.00    +0.018 A 
ATOM     25  C   UNL     1       4.232  -0.356  26.617  0.00  0.00    +0.008 A 
ATOM     26  C   UNL     1       3.061  -0.037  27.347  0.00  0.00    +0.010 A 
ATOM     27  C   UNL     1       2.362  -1.029  28.030  0.00  0.00    +0.001 A 
ATOM     28  C   UNL     1       2.764  -2.351  27.956  0.00  0.00    +0.002 A 
ATOM     29  C   UNL     1       3.919  -2.715  27.256  0.00  0.00    +0.026 A 
ATOM     30  C   UNL     1       4.708  -1.735  26.644  0.00  0.00    +0.053 A 
ATOM     31  O   UNL     1       8.224  -2.400  26.134  0.00  0.00    -0.328 OA
ATOM     32  C   UNL     1       9.041  -2.874  23.863  0.00  0.00    +0.076 C 
ENDROOT
BRANCH   1  34
ATOM     33  C   UNL     1       9.915  -5.147  25.284  0.00  0.00    +0.101 C 
ATOM     34  N   UNL     1       8.559  -5.229  24.743  0.00  0.00    -0.314 NA
ATOM     35  H   UNL     1       7.902  -5.435  25.495  0.00  0.00    +0.122 HD
ENDBRANCH   1  34
BRANCH   2  36
ATOM     36  O   UNL     1       5.688  -4.593  24.485  0.00  0.00    -0.373 OA
ATOM     37  C   UNL     1       4.558  -4.298  23.676  0.00  0.00    +0.194 C 
ENDBRANCH   2  36
BRANCH  22  38
ATOM     38  O   UNL     1       3.211   3.120  25.962  0.00  0.00    -0.370 OA
ATOM     39  H   UNL     1       2.808   2.262  25.781  0.00  0.00    +0.212 HD
ENDBRANCH  22  38
TORSDOF 3
ENDMDL
MODEL 8
REMARK VINA RESULT:      -7.1      2.840      6.394
REMARK  Name = 
REMARK  6 active torsions:
REMARK  status: ('A' for Active; 'I' for Inactive)
REMARK    1  A    between atoms: C_1  and  N_2
REMARK    2  A    between atoms: N_2  and  C_3
REMARK    3  A    between atoms: C_9  and  C_10
REMARK    4  A    between atoms: C_11  and  O_13
REMARK    5  A    between atoms: O_13  and  C_14
REMARK    6  A    between atoms: C_35  and  O_37
REMARK                            x       y       z     vdW  Elec       q    Type
REMARK                         _______ _______ _______ _____ _____    ______ ____
ROOT
ATOM      1  C   UNL     1       8.782  -0.237  23.753  0.00  0.00    +0.091 C 
ATOM      2  C   UNL     1       8.118  -0.501  25.124  0.00  0.00    +0.187 C 
ATOM      3  C   UNL     1       6.557  -0.379  25.015  0.00  0.00    +0.174 C 
ATOM      4  C   UNL     1       6.023   1.049  25.239  0.00  0.00    +0.069 C 
ATOM      5  N   UNL     1       5.940  -1.344  25.918  0.00  0.00    -0.307 N 
ATOM      6  C   UNL     1       5.819  -2.682  25.758  0.00  0.00    +0.077 A 
ATOM      7  C   UNL     1       6.308  -3.417  24.701  0.00  0.00    +0.077 A 
ATOM      8  N   UNL     1       6.361  -2.920  23.433  0.00  0.00    -0.311 N 
ATOM      9  C   UNL     1       6.698  -1.605  22.924  0.00  0.00    +0.224 C 
ATOM     10  C   UNL     1       6.164  -4.110  22.721  0.00  0.00    +0.052 A 
ATOM     11  C   UNL     1       5.655  -4.452  21.466  0.00  0.00    +0.026 A 
ATOM     12  C   UNL     1       6.261  -5.560  20.864  0.00  0.00    +0.002 A 
ATOM     13  C   UNL     1       7.321  -6.211  21.497  0.00  0.00    +0.001 A 
ATOM     14  C   UNL     1       7.496  -6.066  22.876  0.00  0.00    +0.010 A 
ATOM     15  C   UNL     1       6.622  -5.189  23.540  0.00  0.00    +0.008 A 
ATOM     16  C   UNL     1       6.312  -4.827  24.876  0.00  0.00    +0.022 A 
ATOM     17  C   UNL     1       5.247  -5.511  25.571  0.00  0.00    +0.054 A 
ATOM     18  C   UNL     1       4.403  -6.647  25.315  0.00  0.00    +0.247 C 
ATOM     19  O   UNL     1       4.378  -7.510  24.446  0.00  0.00    -0.270 OA
ATOM     20  N   UNL     1       3.387  -6.553  26.279  0.00  0.00    -0.282 N 
ATOM     21  H   UNL     1       2.551  -7.103  26.148  0.00  0.00    +0.152 HD
ATOM     22  C   UNL     1       3.456  -5.398  27.130  0.00  0.00    +0.235 C 
ATOM     23  C   UNL     1       4.655  -4.758  26.607  0.00  0.00    +0.021 A 
ATOM     24  C   UNL     1       5.094  -3.430  26.679  0.00  0.00    +0.018 A 
ATOM     25  C   UNL     1       4.725  -2.443  27.611  0.00  0.00    +0.008 A 
ATOM     26  C   UNL     1       3.970  -2.444  28.809  0.00  0.00    +0.010 A 
ATOM     27  C   UNL     1       3.884  -1.294  29.590  0.00  0.00    +0.001 A 
ATOM     28  C   UNL     1       4.582  -0.152  29.241  0.00  0.00    +0.002 A 
ATOM     29  C   UNL     1       5.333  -0.098  28.063  0.00  0.00    +0.026 A 
ATOM     30  C   UNL     1       5.361  -1.197  27.196  0.00  0.00    +0.053 A 
ATOM     31  O   UNL     1       6.020  -0.631  23.688  0.00  0.00    -0.328 OA
ATOM     32  C   UNL     1       8.204  -1.269  22.756  0.00  0.00    +0.076 C 
ENDROOT
BRANCH   1  34
ATOM     33  C   UNL     1       8.584   1.502  21.964  0.00  0.00    +0.101 C 
ATOM     34  N   UNL     1       8.606   1.179  23.391  0.00  0.00    -0.314 NA
ATOM     35  H   UNL     1       7.785   1.580  23.845  0.00  0.00    +0.122 HD
ENDBRANCH   1  34
BRANCH   2  36
ATOM     36  O   UNL     1       8.611   0.307  26.211  0.00  0.00    -0.373 OA
ATOM     37  C   UNL     1       8.990  -0.418  27.373  0.00  0.00    +0.194 C 
ENDBRANCH   2  36
BRANCH  22  38
ATOM     38  O   UNL     1       3.627  -5.858  28.440  0.00  0.00    -0.370 OA
ATOM     39  H   UNL     1       2.788  -5.694  28.890  0.00  0.00    +0.212 HD
ENDBRANCH  22  38
TORSDOF 3
ENDMDL
MODEL 9
REMARK VINA RESULT:      -7.0      2.437      5.968
REMARK  Name = 
REMARK  6 active torsions:
REMARK  status: ('A' for Active; 'I' for Inactive)
REMARK    1  A    between atoms: C_1  and  N_2
REMARK    2  A    between atoms: N_2  and  C_3
REMARK    3  A    between atoms: C_9  and  C_10
REMARK    4  A    between atoms: C_11  and  O_13
REMARK    5  A    between atoms: O_13  and  C_14
REMARK    6  A    between atoms: C_35  and  O_37
REMARK                            x       y       z     vdW  Elec       q    Type
REMARK                         _______ _______ _______ _____ _____    ______ ____
ROOT
ATOM      1  C   UNL     1       9.644  -0.073  22.347  0.00  0.00    +0.091 C 
ATOM      2  C   UNL     1       9.153   0.097  23.804  0.00  0.00    +0.187 C 
ATOM      3  C   UNL     1       7.611   0.390  23.837  0.00  0.00    +0.174 C 
ATOM      4  C   UNL     1       7.256   1.886  23.739  0.00  0.00    +0.069 C 
ATOM      5  N   UNL     1       7.033  -0.236  25.021  0.00  0.00    -0.307 N 
ATOM      6  C   UNL     1       6.761  -1.545  25.228  0.00  0.00    +0.077 A 
ATOM      7  C   UNL     1       7.025  -2.573  24.351  0.00  0.00    +0.077 A 
ATOM      8  N   UNL     1       6.950  -2.413  23.000  0.00  0.00    -0.311 N 
ATOM      9  C   UNL     1       7.342  -1.319  22.133  0.00  0.00    +0.224 C 
ATOM     10  C   UNL     1       6.541  -3.706  22.647  0.00  0.00    +0.052 A 
ATOM     11  C   UNL     1       5.833  -4.276  21.587  0.00  0.00    +0.026 A 
ATOM     12  C   UNL     1       6.238  -5.567  21.231  0.00  0.00    +0.002 A 
ATOM     13  C   UNL     1       7.306  -6.175  21.892  0.00  0.00    +0.001 A 
ATOM     14  C   UNL     1       7.684  -5.720  23.158  0.00  0.00    +0.010 A 
ATOM     15  C   UNL     1       7.000  -4.601  23.663  0.00  0.00    +0.008 A 
ATOM     16  C   UNL     1       6.914  -3.886  24.885  0.00  0.00    +0.022 A 
ATOM     17  C   UNL     1       5.894  -4.234  25.845  0.00  0.00    +0.054 A 
ATOM     18  C   UNL     1       4.915  -5.279  25.986  0.00  0.00    +0.247 C 
ATOM     19  O   UNL     1       4.686  -6.317  25.379  0.00  0.00    -0.270 OA
ATOM     20  N   UNL     1       4.056  -4.820  26.997  0.00  0.00    -0.282 N 
ATOM     21  H   UNL     1       3.160  -5.272  27.105  0.00  0.00    +0.152 HD
ATOM     22  C   UNL     1       4.355  -3.511  27.506  0.00  0.00    +0.235 C 
ATOM     23  C   UNL     1       5.527  -3.180  26.708  0.00  0.00    +0.021 A 
ATOM     24  C   UNL     1       6.100  -1.943  26.385  0.00  0.00    +0.018 A 
ATOM     25  C   UNL     1       5.962  -0.719  27.063  0.00  0.00    +0.008 A 
ATOM     26  C   UNL     1       5.384  -0.328  28.295  0.00  0.00    +0.010 A 
ATOM     27  C   UNL     1       5.519   0.979  28.756  0.00  0.00    +0.001 A 
ATOM     28  C   UNL     1       6.271   1.900  28.048  0.00  0.00    +0.002 A 
ATOM     29  C   UNL     1       6.855   1.566  26.822  0.00  0.00    +0.026 A 
ATOM     30  C   UNL     1       6.654   0.294  26.273  0.00  0.00    +0.053 A 
ATOM     31  O   UNL     1       6.874  -0.107  22.688  0.00  0.00    -0.328 OA
ATOM     32  C   UNL     1       8.835  -1.233  21.721  0.00  0.00    +0.076 C 
ENDROOT
BRANCH   1  34
ATOM     33  C   UNL     1      10.533   2.245  22.032  0.00  0.00    +0.101 C 
ATOM     34  N   UNL     1       9.559   1.222  21.652  0.00  0.00    -0.314 NA
ATOM     35  H   UNL     1       9.568   1.101  20.639  0.00  0.00    +0.122 HD
ENDBRANCH   1  34
BRANCH   2  36
ATOM     36  O   UNL     1       9.868   1.075  24.584  0.00  0.00    -0.373 OA
ATOM     37  C   UNL     1      11.179   0.690  24.974  0.00  0.00    +0.194 C 
ENDBRANCH   2  36
BRANCH  22  38
ATOM     38  O   UNL     1       4.659  -3.653  28.864  0.00  0.00    -0.370 OA
ATOM     39  H   UNL     1       4.505  -4.583  29.074  0.00  0.00    +0.212 HD
ENDBRANCH  22  38
TORSDOF 3
ENDMDL
