MODEL 1
REMARK VINA RESULT:      -7.4      0.000      0.000
REMARK  Name = 
REMARK  19 active torsions:
REMARK  status: ('A' for Active; 'I' for Inactive)
REMARK    1  A    between atoms: O_1  and  C_2
REMARK    2  A    between atoms: C_5  and  C_7
REMARK    3  A    between atoms: C_7  and  O_8
REMARK    4  A    between atoms: O_8  and  P_9
REMARK    5  A    between atoms: P_9  and  O_10
REMARK    6  A    between atoms: P_9  and  O_12
REMARK    7  A    between atoms: O_12  and  P_13
REMARK    8  A    between atoms: P_13  and  O_14
REMARK    9  A    between atoms: P_13  and  O_16
REMARK   10  A    between atoms: O_16  and  C_17
REMARK   11  A    between atoms: C_17  and  C_18
REMARK   12  A    between atoms: C_21  and  N_33
REMARK   13  A    between atoms: C_23  and  O_25
REMARK   14  A    between atoms: O_25  and  P_26
REMARK   15  A    between atoms: P_26  and  O_27
REMARK   16  A    between atoms: P_26  and  O_28
REMARK   17  A    between atoms: C_30  and  O_32
REMARK   18  A    between atoms: C_45  and  O_47
REMARK   19  A    between atoms: C_48  and  O_50
REMARK                            x       y       z     vdW  Elec       q    Type
REMARK                         _______ _______ _______ _____ _____    ______ ____
ROOT
ATOM      1  C   UNL     1       8.480  -1.498  23.107  0.00  0.00    +0.178 C 
ATOM      2  C   UNL     1       7.329  -2.228  22.421  0.00  0.00    +0.179 C 
ATOM      3  C   UNL     1       7.235  -3.580  23.117  0.00  0.00    +0.211 C 
ATOM      4  C   UNL     1       8.360  -3.558  24.151  0.00  0.00    +0.254 C 
ATOM      5  O   UNL     1       8.642  -2.156  24.379  0.00  0.00    -0.346 OA
ENDROOT
BRANCH   4   6
ATOM      6  N   UNL     1       8.032  -4.203  25.412  0.00  0.00    -0.285 N 
ATOM      7  C   UNL     1       6.760  -4.448  25.859  0.00  0.00    +0.168 A 
ATOM      8  N   UNL     1       5.611  -3.957  25.316  0.00  0.00    -0.217 NA
ATOM      9  C   UNL     1       4.510  -4.451  25.828  0.00  0.00    +0.207 A 
ATOM     10  N   UNL     1       4.517  -5.426  26.838  0.00  0.00    -0.288 N 
ATOM     11  C   UNL     1       5.675  -5.907  27.412  0.00  0.00    +0.168 A 
ATOM     12  N   UNL     1       5.431  -6.841  28.301  0.00  0.00    -0.234 NA
ATOM     13  C   UNL     1       4.062  -6.983  28.288  0.00  0.00    +0.131 A 
ATOM     14  C   UNL     1       3.472  -6.106  27.403  0.00  0.00    +0.114 A 
ATOM     15  C   UNL     1       6.935  -5.352  26.885  0.00  0.00    +0.151 A 
ATOM     16  N   UNL     1       8.244  -5.600  27.149  0.00  0.00    -0.230 NA
ATOM     17  C   UNL     1       8.888  -4.893  26.238  0.00  0.00    +0.203 A 
ENDBRANCH   4   6
BRANCH   2  18
ATOM     18  O   UNL     1       6.073  -1.554  22.613  0.00  0.00    -0.386 OA
ATOM     19  H   UNL     1       5.880  -1.534  23.571  0.00  0.00    +0.210 HD
ENDBRANCH   2  18
BRANCH   1  20
ATOM     20  C   UNL     1       9.796  -1.552  22.308  0.00  0.00    +0.206 C 
BRANCH  20  21
ATOM     21  O   UNL     1      10.142  -0.280  21.764  0.00  0.00    -0.284 OA
BRANCH  21  22
ATOM     22  P   UNL     1       9.427   1.030  22.639  0.00  0.00    +0.483 P 
ATOM     23  O   UNL     1      10.667   1.097  23.535  0.00  0.00    -0.227 OA
BRANCH  22  24
ATOM     24  O   UNL     1       9.818   2.053  21.427  0.00  0.00    -0.302 OA
ATOM     25  H   UNL     1       9.136   1.904  20.739  0.00  0.00    +0.222 HD
ENDBRANCH  22  24
BRANCH  22  26
ATOM     26  O   UNL     1       8.711   2.340  23.513  0.00  0.00    -0.186 OA
BRANCH  26  27
ATOM     27  P   UNL     1       7.362   2.958  22.625  0.00  0.00    +0.483 P 
ATOM     28  O   UNL     1       6.955   1.568  22.133  0.00  0.00    -0.227 OA
BRANCH  27  29
ATOM     29  O   UNL     1       6.013   3.577  21.735  0.00  0.00    -0.302 OA
ATOM     30  H   UNL     1       5.427   3.951  22.422  0.00  0.00    +0.222 HD
ENDBRANCH  27  29
BRANCH  27  31
ATOM     31  O   UNL     1       6.545   3.266  24.014  0.00  0.00    -0.284 OA
BRANCH  31  32
ATOM     32  C   UNL     1       5.160   2.930  24.115  0.00  0.00    +0.206 C 
BRANCH  32  36
ATOM     33  C   UNL     1       6.185   0.308  25.337  0.00  0.00    +0.279 C 
ATOM     34  C   UNL     1       6.792   1.196  26.432  0.00  0.00    +0.201 C 
ATOM     35  C   UNL     1       5.846   2.390  26.510  0.00  0.00    +0.179 C 
ATOM     36  C   UNL     1       4.820   2.162  25.400  0.00  0.00    +0.179 C 
ATOM     37  O   UNL     1       4.841   0.748  25.141  0.00  0.00    -0.341 OA
BRANCH  33  38
ATOM     38  O   UNL     1       6.168  -1.045  25.746  0.00  0.00    -0.365 OA
ATOM     39  H   UNL     1       5.877  -1.027  26.674  0.00  0.00    +0.213 HD
ENDBRANCH  33  38
BRANCH  35  40
ATOM     40  O   UNL     1       5.188   2.397  27.786  0.00  0.00    -0.386 OA
ATOM     41  H   UNL     1       5.869   2.521  28.475  0.00  0.00    +0.210 HD
ENDBRANCH  35  40
BRANCH  34  42
ATOM     42  O   UNL     1       8.110   1.627  26.082  0.00  0.00    -0.384 OA
ATOM     43  H   UNL     1       8.218   1.444  25.129  0.00  0.00    +0.210 HD
ENDBRANCH  34  42
ENDBRANCH  32  36
ENDBRANCH  31  32
ENDBRANCH  27  31
ENDBRANCH  26  27
ENDBRANCH  22  26
ENDBRANCH  21  22
ENDBRANCH  20  21
ENDBRANCH   1  20
BRANCH   3  44
ATOM     44  O   UNL     1       7.380  -4.637  22.184  0.00  0.00    -0.276 OA
BRANCH  44  45
ATOM     45  P   UNL     1       6.068  -5.335  21.598  0.00  0.00    +0.473 P 
ATOM     46  O   UNL     1       6.003  -5.432  20.113  0.00  0.00    -0.228 OA
BRANCH  45  47
ATOM     47  O   UNL     1       6.082  -6.737  22.354  0.00  0.00    -0.303 OA
ATOM     48  H   UNL     1       6.814  -6.772  22.996  0.00  0.00    +0.222 HD
ENDBRANCH  45  47
BRANCH  45  49
ATOM     49  O   UNL     1       4.843  -4.569  22.273  0.00  0.00    -0.303 OA
ATOM     50  H   UNL     1       5.109  -3.701  22.637  0.00  0.00    +0.222 HD
ENDBRANCH  45  49
ENDBRANCH  44  45
ENDBRANCH   3  44
TORSDOF 19
ENDMDL
MODEL 2
REMARK VINA RESULT:      -7.2      4.123      8.025
REMARK  Name = 
REMARK  19 active torsions:
REMARK  status: ('A' for Active; 'I' for Inactive)
REMARK    1  A    between atoms: O_1  and  C_2
REMARK    2  A    between atoms: C_5  and  C_7
REMARK    3  A    between atoms: C_7  and  O_8
REMARK    4  A    between atoms: O_8  and  P_9
REMARK    5  A    between atoms: P_9  and  O_10
REMARK    6  A    between atoms: P_9  and  O_12
REMARK    7  A    between atoms: O_12  and  P_13
REMARK    8  A    between atoms: P_13  and  O_14
REMARK    9  A    between atoms: P_13  and  O_16
REMARK   10  A    between atoms: O_16  and  C_17
REMARK   11  A    between atoms: C_17  and  C_18
REMARK   12  A    between atoms: C_21  and  N_33
REMARK   13  A    between atoms: C_23  and  O_25
REMARK   14  A    between atoms: O_25  and  P_26
REMARK   15  A    between atoms: P_26  and  O_27
REMARK   16  A    between atoms: P_26  and  O_28
REMARK   17  A    between atoms: C_30  and  O_32
REMARK   18  A    between atoms: C_45  and  O_47
REMARK   19  A    between atoms: C_48  and  O_50
REMARK                            x       y       z     vdW  Elec       q    Type
REMARK                         _______ _______ _______ _____ _____    ______ ____
ROOT
ATOM      1  C   UNL     1       8.465  -4.504  26.218  0.00  0.00    +0.178 C 
ATOM      2  C   UNL     1       8.251  -5.395  24.998  0.00  0.00    +0.179 C 
ATOM      3  C   UNL     1       7.704  -4.474  23.915  0.00  0.00    +0.211 C 
ATOM      4  C   UNL     1       7.613  -3.104  24.587  0.00  0.00    +0.254 C 
ATOM      5  O   UNL     1       8.538  -3.162  25.699  0.00  0.00    -0.346 OA
ENDROOT
BRANCH   4   6
ATOM      6  N   UNL     1       7.953  -1.985  23.723  0.00  0.00    -0.285 N 
ATOM      7  C   UNL     1       7.920  -0.669  24.099  0.00  0.00    +0.168 A 
ATOM      8  N   UNL     1       7.378  -0.175  25.248  0.00  0.00    -0.217 NA
ATOM      9  C   UNL     1       7.600   1.100  25.453  0.00  0.00    +0.207 A 
ATOM     10  N   UNL     1       8.357   1.888  24.571  0.00  0.00    -0.288 N 
ATOM     11  C   UNL     1       8.885   1.403  23.394  0.00  0.00    +0.168 A 
ATOM     12  N   UNL     1       9.588   2.312  22.760  0.00  0.00    -0.234 NA
ATOM     13  C   UNL     1       9.528   3.424  23.569  0.00  0.00    +0.131 A 
ATOM     14  C   UNL     1       8.757   3.192  24.688  0.00  0.00    +0.114 A 
ATOM     15  C   UNL     1       8.630  -0.021  23.109  0.00  0.00    +0.151 A 
ATOM     16  N   UNL     1       9.012  -0.853  22.107  0.00  0.00    -0.230 NA
ATOM     17  C   UNL     1       8.592  -2.041  22.507  0.00  0.00    +0.203 A 
ENDBRANCH   4   6
BRANCH   2  18
ATOM     18  O   UNL     1       9.486  -5.950  24.513  0.00  0.00    -0.386 OA
ATOM     19  H   UNL     1       9.273  -6.642  23.856  0.00  0.00    +0.210 HD
ENDBRANCH   2  18
BRANCH   1  20
ATOM     20  C   UNL     1       7.333  -4.612  27.258  0.00  0.00    +0.206 C 
BRANCH  20  21
ATOM     21  O   UNL     1       7.295  -5.898  27.873  0.00  0.00    -0.284 OA
BRANCH  21  22
ATOM     22  P   UNL     1       5.758  -6.241  28.590  0.00  0.00    +0.483 P 
ATOM     23  O   UNL     1       6.239  -7.658  28.918  0.00  0.00    -0.227 OA
BRANCH  22  24
ATOM     24  O   UNL     1       6.195  -5.408  29.925  0.00  0.00    -0.302 OA
ATOM     25  H   UNL     1       5.465  -5.552  30.563  0.00  0.00    +0.222 HD
ENDBRANCH  22  24
BRANCH  22  26
ATOM     26  O   UNL     1       4.222  -6.585  29.308  0.00  0.00    -0.186 OA
BRANCH  26  27
ATOM     27  P   UNL     1       3.060  -5.424  28.765  0.00  0.00    +0.483 P 
ATOM     28  O   UNL     1       4.042  -4.793  27.777  0.00  0.00    -0.227 OA
BRANCH  27  29
ATOM     29  O   UNL     1       1.897  -4.263  28.224  0.00  0.00    -0.302 OA
ATOM     30  H   UNL     1       1.379  -4.743  27.549  0.00  0.00    +0.222 HD
ENDBRANCH  27  29
BRANCH  27  31
ATOM     31  O   UNL     1       2.217  -6.588  27.973  0.00  0.00    -0.284 OA
BRANCH  31  32
ATOM     32  C   UNL     1       1.283  -6.223  26.955  0.00  0.00    +0.206 C 
BRANCH  32  36
ATOM     33  C   UNL     1       2.562  -5.747  24.207  0.00  0.00    +0.279 C 
ATOM     34  C   UNL     1       3.574  -6.823  24.625  0.00  0.00    +0.201 C 
ATOM     35  C   UNL     1       2.783  -7.736  25.556  0.00  0.00    +0.179 C 
ATOM     36  C   UNL     1       1.408  -7.081  25.688  0.00  0.00    +0.179 C 
ATOM     37  O   UNL     1       1.264  -6.250  24.524  0.00  0.00    -0.341 OA
BRANCH  33  38
ATOM     38  O   UNL     1       2.633  -5.512  22.814  0.00  0.00    -0.365 OA
ATOM     39  H   UNL     1       3.140  -6.260  22.455  0.00  0.00    +0.213 HD
ENDBRANCH  33  38
BRANCH  35  40
ATOM     40  O   UNL     1       2.647  -9.032  24.953  0.00  0.00    -0.386 OA
ATOM     41  H   UNL     1       1.713  -9.307  25.038  0.00  0.00    +0.210 HD
ENDBRANCH  35  40
BRANCH  34  42
ATOM     42  O   UNL     1       4.686  -6.250  25.316  0.00  0.00    -0.384 OA
ATOM     43  H   UNL     1       5.040  -6.948  25.899  0.00  0.00    +0.210 HD
ENDBRANCH  34  42
ENDBRANCH  32  36
ENDBRANCH  31  32
ENDBRANCH  27  31
ENDBRANCH  26  27
ENDBRANCH  22  26
ENDBRANCH  21  22
ENDBRANCH  20  21
ENDBRANCH   1  20
BRANCH   3  44
ATOM     44  O   UNL     1       6.447  -4.933  23.452  0.00  0.00    -0.276 OA
BRANCH  44  45
ATOM     45  P   UNL     1       6.227  -5.132  21.882  0.00  0.00    +0.473 P 
ATOM     46  O   UNL     1       5.769  -3.924  21.141  0.00  0.00    -0.228 OA
BRANCH  45  47
ATOM     47  O   UNL     1       7.646  -5.693  21.425  0.00  0.00    -0.303 OA
ATOM     48  H   UNL     1       7.700  -6.653  21.579  0.00  0.00    +0.222 HD
ENDBRANCH  45  47
BRANCH  45  49
ATOM     49  O   UNL     1       5.272  -6.403  21.746  0.00  0.00    -0.303 OA
ATOM     50  H   UNL     1       4.605  -6.437  22.459  0.00  0.00    +0.222 HD
ENDBRANCH  45  49
ENDBRANCH  44  45
ENDBRANCH   3  44
TORSDOF 19
ENDMDL
MODEL 3
REMARK VINA RESULT:      -6.9      3.051      5.951
REMARK  Name = 
REMARK  19 active torsions:
REMARK  status: ('A' for Active; 'I' for Inactive)
REMARK    1  A    between atoms: O_1  and  C_2
REMARK    2  A    between atoms: C_5  and  C_7
REMARK    3  A    between atoms: C_7  and  O_8
REMARK    4  A    between atoms: O_8  and  P_9
REMARK    5  A    between atoms: P_9  and  O_10
REMARK    6  A    between atoms: P_9  and  O_12
REMARK    7  A    between atoms: O_12  and  P_13
REMARK    8  A    between atoms: P_13  and  O_14
REMARK    9  A    between atoms: P_13  and  O_16
REMARK   10  A    between atoms: O_16  and  C_17
REMARK   11  A    between atoms: C_17  and  C_18
REMARK   12  A    between atoms: C_21  and  N_33
REMARK   13  A    between atoms: C_23  and  O_25
REMARK   14  A    between atoms: O_25  and  P_26
REMARK   15  A    between atoms: P_26  and  O_27
REMARK   16  A    between atoms: P_26  and  O_28
REMARK   17  A    between atoms: C_30  and  O_32
REMARK   18  A    between atoms: C_45  and  O_47
REMARK   19  A    between atoms: C_48  and  O_50
REMARK                            x       y       z     vdW  Elec       q    Type
REMARK                         _______ _______ _______ _____ _____    ______ ____
ROOT
ATOM      1  C   UNL     1       4.196  -6.082  23.245  0.00  0.00    +0.178 C 
ATOM      2  C   UNL     1       4.436  -6.937  24.487  0.00  0.00    +0.179 C 
ATOM      3  C   UNL     1       4.590  -5.947  25.635  0.00  0.00    +0.211 C 
ATOM      4  C   UNL     1       4.451  -4.574  24.979  0.00  0.00    +0.254 C 
ATOM      5  O   UNL     1       3.734  -4.811  23.744  0.00  0.00    -0.346 OA
ENDROOT
BRANCH   4   6
ATOM      6  N   UNL     1       3.736  -3.592  25.779  0.00  0.00    -0.285 N 
ATOM      7  C   UNL     1       4.316  -2.519  26.403  0.00  0.00    +0.168 A 
ATOM      8  N   UNL     1       5.654  -2.305  26.553  0.00  0.00    -0.217 NA
ATOM      9  C   UNL     1       5.967  -1.135  27.053  0.00  0.00    +0.207 A 
ATOM     10  N   UNL     1       5.001  -0.171  27.384  0.00  0.00    -0.288 N 
ATOM     11  C   UNL     1       3.646  -0.390  27.261  0.00  0.00    +0.168 A 
ATOM     12  N   UNL     1       2.945   0.670  27.590  0.00  0.00    -0.234 NA
ATOM     13  C   UNL     1       3.885   1.619  27.920  0.00  0.00    +0.131 A 
ATOM     14  C   UNL     1       5.166   1.117  27.818  0.00  0.00    +0.114 A 
ATOM     15  C   UNL     1       3.250  -1.708  26.731  0.00  0.00    +0.151 A 
ATOM     16  N   UNL     1       2.052  -2.268  26.428  0.00  0.00    -0.230 NA
ATOM     17  C   UNL     1       2.375  -3.410  25.847  0.00  0.00    +0.203 A 
ENDBRANCH   4   6
BRANCH   2  18
ATOM     18  O   UNL     1       3.311  -7.779  24.788  0.00  0.00    -0.386 OA
ATOM     19  H   UNL     1       2.792  -7.353  25.499  0.00  0.00    +0.210 HD
ENDBRANCH   2  18
BRANCH   1  20
ATOM     20  C   UNL     1       5.458  -5.891  22.384  0.00  0.00    +0.206 C 
BRANCH  20  21
ATOM     21  O   UNL     1       5.544  -4.572  21.849  0.00  0.00    -0.284 OA
BRANCH  21  22
ATOM     22  P   UNL     1       7.059  -3.814  22.201  0.00  0.00    +0.483 P 
ATOM     23  O   UNL     1       6.329  -2.769  23.050  0.00  0.00    -0.227 OA
BRANCH  22  24
ATOM     24  O   UNL     1       7.389  -4.982  23.294  0.00  0.00    -0.302 OA
ATOM     25  H   UNL     1       8.360  -4.940  23.424  0.00  0.00    +0.222 HD
ENDBRANCH  22  24
BRANCH  22  26
ATOM     26  O   UNL     1       8.574  -3.056  22.553  0.00  0.00    -0.186 OA
BRANCH  26  27
ATOM     27  P   UNL     1       8.717  -2.821  24.260  0.00  0.00    +0.483 P 
ATOM     28  O   UNL     1       9.851  -3.840  24.381  0.00  0.00    -0.227 OA
BRANCH  27  29
ATOM     29  O   UNL     1       8.860  -2.585  25.969  0.00  0.00    -0.302 OA
ATOM     30  H   UNL     1       9.333  -3.381  26.280  0.00  0.00    +0.222 HD
ENDBRANCH  27  29
BRANCH  27  31
ATOM     31  O   UNL     1       9.387  -1.339  24.034  0.00  0.00    -0.284 OA
BRANCH  31  32
ATOM     32  C   UNL     1       8.939  -0.229  24.814  0.00  0.00    +0.206 C 
BRANCH  32  36
ATOM     33  C   UNL     1       9.967   1.386  22.415  0.00  0.00    +0.279 C 
ATOM     34  C   UNL     1       8.881   0.658  21.612  0.00  0.00    +0.201 C 
ATOM     35  C   UNL     1       7.778   0.395  22.632  0.00  0.00    +0.179 C 
ATOM     36  C   UNL     1       8.334   0.898  23.964  0.00  0.00    +0.179 C 
ATOM     37  O   UNL     1       9.356   1.848  23.620  0.00  0.00    -0.341 OA
BRANCH  33  38
ATOM     38  O   UNL     1      10.456   2.501  21.695  0.00  0.00    -0.365 OA
ATOM     39  H   UNL     1       9.685   3.079  21.566  0.00  0.00    +0.213 HD
ENDBRANCH  33  38
BRANCH  35  40
ATOM     40  O   UNL     1       6.609   1.149  22.278  0.00  0.00    -0.386 OA
ATOM     41  H   UNL     1       6.344   1.676  23.056  0.00  0.00    +0.210 HD
ENDBRANCH  35  40
BRANCH  34  42
ATOM     42  O   UNL     1       9.369  -0.575  21.076  0.00  0.00    -0.384 OA
ATOM     43  H   UNL     1      10.168  -0.356  20.561  0.00  0.00    +0.210 HD
ENDBRANCH  34  42
ENDBRANCH  32  36
ENDBRANCH  31  32
ENDBRANCH  27  31
ENDBRANCH  26  27
ENDBRANCH  22  26
ENDBRANCH  21  22
ENDBRANCH  20  21
ENDBRANCH   1  20
BRANCH   3  44
ATOM     44  O   UNL     1       5.840  -6.114  26.280  0.00  0.00    -0.276 OA
BRANCH  44  45
ATOM     45  P   UNL     1       5.889  -6.137  27.876  0.00  0.00    +0.473 P 
ATOM     46  O   UNL     1       5.196  -5.006  28.555  0.00  0.00    -0.228 OA
BRANCH  45  47
ATOM     47  O   UNL     1       5.285  -7.574  28.199  0.00  0.00    -0.303 OA
ATOM     48  H   UNL     1       5.948  -8.269  28.036  0.00  0.00    +0.222 HD
ENDBRANCH  45  47
BRANCH  45  49
ATOM     49  O   UNL     1       7.431  -6.298  28.250  0.00  0.00    -0.303 OA
ATOM     50  H   UNL     1       7.558  -6.511  29.196  0.00  0.00    +0.222 HD
ENDBRANCH  45  49
ENDBRANCH  44  45
ENDBRANCH   3  44
TORSDOF 19
ENDMDL
MODEL 4
REMARK VINA RESULT:      -6.8      3.925      7.166
REMARK  Name = 
REMARK  19 active torsions:
REMARK  status: ('A' for Active; 'I' for Inactive)
REMARK    1  A    between atoms: O_1  and  C_2
REMARK    2  A    between atoms: C_5  and  C_7
REMARK    3  A    between atoms: C_7  and  O_8
REMARK    4  A    between atoms: O_8  and  P_9
REMARK    5  A    between atoms: P_9  and  O_10
REMARK    6  A    between atoms: P_9  and  O_12
REMARK    7  A    between atoms: O_12  and  P_13
REMARK    8  A    between atoms: P_13  and  O_14
REMARK    9  A    between atoms: P_13  and  O_16
REMARK   10  A    between atoms: O_16  and  C_17
REMARK   11  A    between atoms: C_17  and  C_18
REMARK   12  A    between atoms: C_21  and  N_33
REMARK   13  A    between atoms: C_23  and  O_25
REMARK   14  A    between atoms: O_25  and  P_26
REMARK   15  A    between atoms: P_26  and  O_27
REMARK   16  A    between atoms: P_26  and  O_28
REMARK   17  A    between atoms: C_30  and  O_32
REMARK   18  A    between atoms: C_45  and  O_47
REMARK   19  A    between atoms: C_48  and  O_50
REMARK                            x       y       z     vdW  Elec       q    Type
REMARK                         _______ _______ _______ _____ _____    ______ ____
ROOT
ATOM      1  C   UNL     1       8.562  -4.775  26.185  0.00  0.00    +0.178 C 
ATOM      2  C   UNL     1       8.320  -5.623  24.939  0.00  0.00    +0.179 C 
ATOM      3  C   UNL     1       7.733  -4.667  23.908  0.00  0.00    +0.211 C 
ATOM      4  C   UNL     1       7.650  -3.324  24.633  0.00  0.00    +0.254 C 
ATOM      5  O   UNL     1       8.608  -3.414  25.715  0.00  0.00    -0.346 OA
ENDROOT
BRANCH   4   6
ATOM      6  N   UNL     1       7.955  -2.170  23.803  0.00  0.00    -0.285 N 
ATOM      7  C   UNL     1       7.887  -0.867  24.219  0.00  0.00    +0.168 A 
ATOM      8  N   UNL     1       7.338  -0.425  25.385  0.00  0.00    -0.217 NA
ATOM      9  C   UNL     1       7.526   0.850  25.629  0.00  0.00    +0.207 A 
ATOM     10  N   UNL     1       8.256   1.684  24.769  0.00  0.00    -0.288 N 
ATOM     11  C   UNL     1       8.791   1.251  23.575  0.00  0.00    +0.168 A 
ATOM     12  N   UNL     1       9.465   2.199  22.966  0.00  0.00    -0.234 NA
ATOM     13  C   UNL     1       9.379   3.283  23.810  0.00  0.00    +0.131 A 
ATOM     14  C   UNL     1       8.621   2.995  24.925  0.00  0.00    +0.114 A 
ATOM     15  C   UNL     1       8.574  -0.170  23.247  0.00  0.00    +0.151 A 
ATOM     16  N   UNL     1       8.974  -0.960  22.218  0.00  0.00    -0.230 NA
ATOM     17  C   UNL     1       8.588  -2.170  22.582  0.00  0.00    +0.203 A 
ENDBRANCH   4   6
BRANCH   2  18
ATOM     18  O   UNL     1       9.545  -6.146  24.397  0.00  0.00    -0.386 OA
ATOM     19  H   UNL     1      10.273  -5.915  25.008  0.00  0.00    +0.210 HD
ENDBRANCH   2  18
BRANCH   1  20
ATOM     20  C   UNL     1       7.462  -4.934  27.252  0.00  0.00    +0.206 C 
BRANCH  20  21
ATOM     21  O   UNL     1       6.575  -6.009  26.948  0.00  0.00    -0.284 OA
BRANCH  21  22
ATOM     22  P   UNL     1       5.340  -6.204  28.144  0.00  0.00    +0.483 P 
ATOM     23  O   UNL     1       6.005  -7.505  28.605  0.00  0.00    -0.227 OA
BRANCH  22  24
ATOM     24  O   UNL     1       6.073  -5.087  29.083  0.00  0.00    -0.302 OA
ATOM     25  H   UNL     1       5.770  -5.284  29.994  0.00  0.00    +0.222 HD
ENDBRANCH  22  24
BRANCH  22  26
ATOM     26  O   UNL     1       4.105  -6.399  29.340  0.00  0.00    -0.186 OA
BRANCH  26  27
ATOM     27  P   UNL     1       2.866  -5.220  29.086  0.00  0.00    +0.483 P 
ATOM     28  O   UNL     1       3.652  -4.129  29.812  0.00  0.00    -0.227 OA
BRANCH  27  29
ATOM     29  O   UNL     1       1.625  -4.041  28.831  0.00  0.00    -0.302 OA
ATOM     30  H   UNL     1       0.871  -4.560  28.487  0.00  0.00    +0.222 HD
ENDBRANCH  27  29
BRANCH  27  31
ATOM     31  O   UNL     1       3.230  -5.133  27.487  0.00  0.00    -0.284 OA
BRANCH  31  32
ATOM     32  C   UNL     1       2.200  -4.857  26.537  0.00  0.00    +0.206 C 
BRANCH  32  36
ATOM     33  C   UNL     1       2.810  -1.867  26.860  0.00  0.00    +0.279 C 
ATOM     34  C   UNL     1       4.245  -2.240  26.463  0.00  0.00    +0.201 C 
ATOM     35  C   UNL     1       4.076  -3.445  25.544  0.00  0.00    +0.179 C 
ATOM     36  C   UNL     1       2.577  -3.745  25.547  0.00  0.00    +0.179 C 
ATOM     37  O   UNL     1       1.939  -2.516  25.933  0.00  0.00    -0.341 OA
BRANCH  33  38
ATOM     38  O   UNL     1       2.616  -0.469  26.768  0.00  0.00    -0.365 OA
ATOM     39  H   UNL     1       1.932  -0.264  27.429  0.00  0.00    +0.213 HD
ENDBRANCH  33  38
BRANCH  35  40
ATOM     40  O   UNL     1       4.498  -3.098  24.217  0.00  0.00    -0.386 OA
ATOM     41  H   UNL     1       4.737  -2.151  24.214  0.00  0.00    +0.210 HD
ENDBRANCH  35  40
BRANCH  34  42
ATOM     42  O   UNL     1       5.027  -2.592  27.607  0.00  0.00    -0.384 OA
ATOM     43  H   UNL     1       5.929  -2.262  27.438  0.00  0.00    +0.210 HD
ENDBRANCH  34  42
ENDBRANCH  32  36
ENDBRANCH  31  32
ENDBRANCH  27  31
ENDBRANCH  26  27
ENDBRANCH  22  26
ENDBRANCH  21  22
ENDBRANCH  20  21
ENDBRANCH   1  20
BRANCH   3  44
ATOM     44  O   UNL     1       6.468  -5.121  23.464  0.00  0.00    -0.276 OA
BRANCH  44  45
ATOM     45  P   UNL     1       6.211  -5.282  21.895  0.00  0.00    +0.473 P 
ATOM     46  O   UNL     1       7.359  -5.815  21.110  0.00  0.00    -0.228 OA
BRANCH  45  47
ATOM     47  O   UNL     1       4.909  -6.200  21.872  0.00  0.00    -0.303 OA
ATOM     48  H   UNL     1       4.228  -5.841  22.469  0.00  0.00    +0.222 HD
ENDBRANCH  45  47
BRANCH  45  49
ATOM     49  O   UNL     1       5.667  -3.865  21.407  0.00  0.00    -0.303 OA
ATOM     50  H   UNL     1       5.346  -3.319  22.152  0.00  0.00    +0.222 HD
ENDBRANCH  45  49
ENDBRANCH  44  45
ENDBRANCH   3  44
TORSDOF 19
ENDMDL
MODEL 5
REMARK VINA RESULT:      -6.8      2.883      5.790
REMARK  Name = 
REMARK  19 active torsions:
REMARK  status: ('A' for Active; 'I' for Inactive)
REMARK    1  A    between atoms: O_1  and  C_2
REMARK    2  A    between atoms: C_5  and  C_7
REMARK    3  A    between atoms: C_7  and  O_8
REMARK    4  A    between atoms: O_8  and  P_9
REMARK    5  A    between atoms: P_9  and  O_10
REMARK    6  A    between atoms: P_9  and  O_12
REMARK    7  A    between atoms: O_12  and  P_13
REMARK    8  A    between atoms: P_13  and  O_14
REMARK    9  A    between atoms: P_13  and  O_16
REMARK   10  A    between atoms: O_16  and  C_17
REMARK   11  A    between atoms: C_17  and  C_18
REMARK   12  A    between atoms: C_21  and  N_33
REMARK   13  A    between atoms: C_23  and  O_25
REMARK   14  A    between atoms: O_25  and  P_26
REMARK   15  A    between atoms: P_26  and  O_27
REMARK   16  A    between atoms: P_26  and  O_28
REMARK   17  A    between atoms: C_30  and  O_32
REMARK   18  A    between atoms: C_45  and  O_47
REMARK   19  A    between atoms: C_48  and  O_50
REMARK                            x       y       z     vdW  Elec       q    Type
REMARK                         _______ _______ _______ _____ _____    ______ ____
ROOT
ATOM      1  C   UNL     1       3.482  -5.633  24.557  0.00  0.00    +0.178 C 
ATOM      2  C   UNL     1       4.604  -6.485  25.145  0.00  0.00    +0.179 C 
ATOM      3  C   UNL     1       5.454  -5.524  25.966  0.00  0.00    +0.211 C 
ATOM      4  C   UNL     1       4.781  -4.164  25.782  0.00  0.00    +0.254 C 
ATOM      5  O   UNL     1       3.419  -4.462  25.393  0.00  0.00    -0.346 OA
ENDROOT
BRANCH   4   6
ATOM      6  N   UNL     1       4.780  -3.326  26.971  0.00  0.00    -0.285 N 
ATOM      7  C   UNL     1       4.993  -1.973  26.974  0.00  0.00    +0.168 A 
ATOM      8  N   UNL     1       5.439  -1.228  25.923  0.00  0.00    -0.217 NA
ATOM      9  C   UNL     1       5.424   0.066  26.125  0.00  0.00    +0.207 A 
ATOM     10  N   UNL     1       4.960   0.640  27.320  0.00  0.00    -0.288 N 
ATOM     11  C   UNL     1       4.533  -0.107  28.397  0.00  0.00    +0.168 A 
ATOM     12  N   UNL     1       4.107   0.649  29.382  0.00  0.00    -0.234 NA
ATOM     13  C   UNL     1       4.246   1.936  28.915  0.00  0.00    +0.131 A 
ATOM     14  C   UNL     1       4.788   1.958  27.648  0.00  0.00    +0.114 A 
ATOM     15  C   UNL     1       4.566  -1.571  28.222  0.00  0.00    +0.151 A 
ATOM     16  N   UNL     1       4.193  -2.611  29.009  0.00  0.00    -0.230 NA
ATOM     17  C   UNL     1       4.328  -3.665  28.224  0.00  0.00    +0.203 A 
ENDBRANCH   4   6
BRANCH   2  18
ATOM     18  O   UNL     1       4.103  -7.493  26.039  0.00  0.00    -0.386 OA
ATOM     19  H   UNL     1       3.712  -7.046  26.816  0.00  0.00    +0.210 HD
ENDBRANCH   2  18
BRANCH   1  20
ATOM     20  C   UNL     1       3.729  -5.229  23.091  0.00  0.00    +0.206 C 
BRANCH  20  21
ATOM     21  O   UNL     1       4.879  -5.874  22.546  0.00  0.00    -0.284 OA
BRANCH  21  22
ATOM     22  P   UNL     1       6.158  -4.761  22.200  0.00  0.00    +0.483 P 
ATOM     23  O   UNL     1       6.068  -5.134  20.717  0.00  0.00    -0.227 OA
BRANCH  22  24
ATOM     24  O   UNL     1       5.105  -3.517  22.310  0.00  0.00    -0.302 OA
ATOM     25  H   UNL     1       5.511  -2.795  21.786  0.00  0.00    +0.222 HD
ENDBRANCH  22  24
BRANCH  22  26
ATOM     26  O   UNL     1       7.436  -3.648  21.853  0.00  0.00    -0.186 OA
BRANCH  26  27
ATOM     27  P   UNL     1       7.787  -2.715  23.267  0.00  0.00    +0.483 P 
ATOM     28  O   UNL     1       9.165  -3.355  23.438  0.00  0.00    -0.227 OA
BRANCH  27  29
ATOM     29  O   UNL     1       8.137  -1.782  24.681  0.00  0.00    -0.302 OA
ATOM     30  H   UNL     1       8.122  -2.436  25.407  0.00  0.00    +0.222 HD
ENDBRANCH  27  29
BRANCH  27  31
ATOM     31  O   UNL     1       7.965  -1.355  22.366  0.00  0.00    -0.284 OA
BRANCH  31  32
ATOM     32  C   UNL     1       7.127  -0.224  22.611  0.00  0.00    +0.206 C 
BRANCH  32  36
ATOM     33  C   UNL     1       8.527   1.716  24.533  0.00  0.00    +0.279 C 
ATOM     34  C   UNL     1       9.820   1.299  23.822  0.00  0.00    +0.201 C 
ATOM     35  C   UNL     1       9.374   0.963  22.403  0.00  0.00    +0.179 C 
ATOM     36  C   UNL     1       7.853   1.116  22.415  0.00  0.00    +0.179 C 
ATOM     37  O   UNL     1       7.562   1.990  23.517  0.00  0.00    -0.341 OA
BRANCH  33  38
ATOM     38  O   UNL     1       8.734   2.889  25.296  0.00  0.00    -0.365 OA
ATOM     39  H   UNL     1       8.317   3.603  24.783  0.00  0.00    +0.213 HD
ENDBRANCH  33  38
BRANCH  35  40
ATOM     40  O   UNL     1       9.948   1.905  21.485  0.00  0.00    -0.386 OA
ATOM     41  H   UNL     1       9.288   2.090  20.790  0.00  0.00    +0.210 HD
ENDBRANCH  35  40
BRANCH  34  42
ATOM     42  O   UNL     1      10.409   0.153  24.443  0.00  0.00    -0.384 OA
ATOM     43  H   UNL     1      10.049  -0.628  23.982  0.00  0.00    +0.210 HD
ENDBRANCH  34  42
ENDBRANCH  32  36
ENDBRANCH  31  32
ENDBRANCH  27  31
ENDBRANCH  26  27
ENDBRANCH  22  26
ENDBRANCH  21  22
ENDBRANCH  20  21
ENDBRANCH   1  20
BRANCH   3  44
ATOM     44  O   UNL     1       6.796  -5.528  25.515  0.00  0.00    -0.276 OA
BRANCH  44  45
ATOM     45  P   UNL     1       7.958  -5.144  26.542  0.00  0.00    +0.473 P 
ATOM     46  O   UNL     1       8.117  -3.688  26.815  0.00  0.00    -0.228 OA
BRANCH  45  47
ATOM     47  O   UNL     1       7.568  -6.018  27.814  0.00  0.00    -0.303 OA
ATOM     48  H   UNL     1       7.038  -6.791  27.549  0.00  0.00    +0.222 HD
ENDBRANCH  45  47
BRANCH  45  49
ATOM     49  O   UNL     1       9.268  -5.868  25.989  0.00  0.00    -0.303 OA
ATOM     50  H   UNL     1       9.190  -6.842  26.024  0.00  0.00    +0.222 HD
ENDBRANCH  45  49
ENDBRANCH  44  45
ENDBRANCH   3  44
TORSDOF 19
ENDMDL
MODEL 6
REMARK VINA RESULT:      -6.7      2.807      4.954
REMARK  Name = 
REMARK  19 active torsions:
REMARK  status: ('A' for Active; 'I' for Inactive)
REMARK    1  A    between atoms: O_1  and  C_2
REMARK    2  A    between atoms: C_5  and  C_7
REMARK    3  A    between atoms: C_7  and  O_8
REMARK    4  A    between atoms: O_8  and  P_9
REMARK    5  A    between atoms: P_9  and  O_10
REMARK    6  A    between atoms: P_9  and  O_12
REMARK    7  A    between atoms: O_12  and  P_13
REMARK    8  A    between atoms: P_13  and  O_14
REMARK    9  A    between atoms: P_13  and  O_16
REMARK   10  A    between atoms: O_16  and  C_17
REMARK   11  A    between atoms: C_17  and  C_18
REMARK   12  A    between atoms: C_21  and  N_33
REMARK   13  A    between atoms: C_23  and  O_25
REMARK   14  A    between atoms: O_25  and  P_26
REMARK   15  A    between atoms: P_26  and  O_27
REMARK   16  A    between atoms: P_26  and  O_28
REMARK   17  A    between atoms: C_30  and  O_32
REMARK   18  A    between atoms: C_45  and  O_47
REMARK   19  A    between atoms: C_48  and  O_50
REMARK                            x       y       z     vdW  Elec       q    Type
REMARK                         _______ _______ _______ _____ _____    ______ ____
ROOT
ATOM      1  C   UNL     1       6.438  -3.216  22.758  0.00  0.00    +0.178 C 
ATOM      2  C   UNL     1       6.081  -4.510  23.485  0.00  0.00    +0.179 C 
ATOM      3  C   UNL     1       5.971  -4.130  24.956  0.00  0.00    +0.211 C 
ATOM      4  C   UNL     1       6.296  -2.638  24.992  0.00  0.00    +0.254 C 
ATOM      5  O   UNL     1       6.039  -2.158  23.651  0.00  0.00    -0.346 OA
ENDROOT
BRANCH   4   6
ATOM      6  N   UNL     1       5.510  -1.872  25.946  0.00  0.00    -0.285 N 
ATOM      7  C   UNL     1       6.015  -0.917  26.788  0.00  0.00    +0.168 A 
ATOM      8  N   UNL     1       7.334  -0.670  27.023  0.00  0.00    -0.217 NA
ATOM      9  C   UNL     1       7.570   0.391  27.755  0.00  0.00    +0.207 A 
ATOM     10  N   UNL     1       6.545   1.221  28.236  0.00  0.00    -0.288 N 
ATOM     11  C   UNL     1       5.207   0.963  28.027  0.00  0.00    +0.168 A 
ATOM     12  N   UNL     1       4.441   1.900  28.535  0.00  0.00    -0.234 NA
ATOM     13  C   UNL     1       5.319   2.810  29.078  0.00  0.00    +0.131 A 
ATOM     14  C   UNL     1       6.627   2.403  28.921  0.00  0.00    +0.114 A 
ATOM     15  C   UNL     1       4.898  -0.242  27.235  0.00  0.00    +0.151 A 
ATOM     16  N   UNL     1       3.740  -0.789  26.786  0.00  0.00    -0.230 NA
ATOM     17  C   UNL     1       4.139  -1.775  26.003  0.00  0.00    +0.203 A 
ENDBRANCH   4   6
BRANCH   2  18
ATOM     18  O   UNL     1       4.802  -5.024  23.073  0.00  0.00    -0.386 OA
ATOM     19  H   UNL     1       4.105  -4.494  23.507  0.00  0.00    +0.210 HD
ENDBRANCH   2  18
BRANCH   1  20
ATOM     20  C   UNL     1       7.938  -3.098  22.428  0.00  0.00    +0.206 C 
BRANCH  20  21
ATOM     21  O   UNL     1       8.272  -1.807  21.920  0.00  0.00    -0.284 OA
BRANCH  21  22
ATOM     22  P   UNL     1       9.528  -1.044  22.833  0.00  0.00    +0.483 P 
ATOM     23  O   UNL     1       9.532  -2.230  23.802  0.00  0.00    -0.227 OA
BRANCH  22  24
ATOM     24  O   UNL     1      10.623  -1.508  21.713  0.00  0.00    -0.302 OA
ATOM     25  H   UNL     1      11.476  -1.139  22.025  0.00  0.00    +0.222 HD
ENDBRANCH  22  24
BRANCH  22  26
ATOM     26  O   UNL     1      10.785  -0.282  23.745  0.00  0.00    -0.186 OA
BRANCH  26  27
ATOM     27  P   UNL     1      10.566   1.433  23.706  0.00  0.00    +0.483 P 
ATOM     28  O   UNL     1      10.195   1.427  22.222  0.00  0.00    -0.227 OA
BRANCH  27  29
ATOM     29  O   UNL     1      10.347   3.150  23.667  0.00  0.00    -0.302 OA
ATOM     30  H   UNL     1       9.633   3.313  24.315  0.00  0.00    +0.222 HD
ENDBRANCH  27  29
BRANCH  27  31
ATOM     31  O   UNL     1       9.180   1.310  24.578  0.00  0.00    -0.284 OA
BRANCH  31  32
ATOM     32  C   UNL     1       8.511   2.491  25.022  0.00  0.00    +0.206 C 
BRANCH  32  36
ATOM     33  C   UNL     1       6.831   3.694  22.754  0.00  0.00    +0.279 C 
ATOM     34  C   UNL     1       6.580   2.241  22.331  0.00  0.00    +0.201 C 
ATOM     35  C   UNL     1       6.637   1.458  23.639  0.00  0.00    +0.179 C 
ATOM     36  C   UNL     1       7.008   2.486  24.706  0.00  0.00    +0.179 C 
ATOM     37  O   UNL     1       6.623   3.760  24.165  0.00  0.00    -0.341 OA
BRANCH  33  38
ATOM     38  O   UNL     1       5.916   4.564  22.115  0.00  0.00    -0.365 OA
ATOM     39  H   UNL     1       6.402   4.932  21.358  0.00  0.00    +0.213 HD
ENDBRANCH  33  38
BRANCH  35  40
ATOM     40  O   UNL     1       5.342   0.908  23.924  0.00  0.00    -0.386 OA
ATOM     41  H   UNL     1       5.229   0.892  24.894  0.00  0.00    +0.210 HD
ENDBRANCH  35  40
BRANCH  34  42
ATOM     42  O   UNL     1       7.589   1.779  21.429  0.00  0.00    -0.384 OA
ATOM     43  H   UNL     1       7.266   1.974  20.529  0.00  0.00    +0.210 HD
ENDBRANCH  34  42
ENDBRANCH  32  36
ENDBRANCH  31  32
ENDBRANCH  27  31
ENDBRANCH  26  27
ENDBRANCH  22  26
ENDBRANCH  21  22
ENDBRANCH  20  21
ENDBRANCH   1  20
BRANCH   3  44
ATOM     44  O   UNL     1       6.865  -4.898  25.742  0.00  0.00    -0.276 OA
BRANCH  44  45
ATOM     45  P   UNL     1       6.364  -5.471  27.146  0.00  0.00    +0.473 P 
ATOM     46  O   UNL     1       5.622  -4.505  28.004  0.00  0.00    -0.228 OA
BRANCH  45  47
ATOM     47  O   UNL     1       5.518  -6.742  26.694  0.00  0.00    -0.303 OA
ATOM     48  H   UNL     1       5.358  -7.333  27.452  0.00  0.00    +0.222 HD
ENDBRANCH  45  47
BRANCH  45  49
ATOM     49  O   UNL     1       7.655  -6.115  27.826  0.00  0.00    -0.303 OA
ATOM     50  H   UNL     1       8.445  -6.040  27.255  0.00  0.00    +0.222 HD
ENDBRANCH  45  49
ENDBRANCH  44  45
ENDBRANCH   3  44
TORSDOF 19
ENDMDL
MODEL 7
REMARK VINA RESULT:      -6.6      3.998      8.114
REMARK  Name = 
REMARK  19 active torsions:
REMARK  status: ('A' for Active; 'I' for Inactive)
REMARK    1  A    between atoms: O_1  and  C_2
REMARK    2  A    between atoms: C_5  and  C_7
REMARK    3  A    between atoms: C_7  and  O_8
REMARK    4  A    between atoms: O_8  and  P_9
REMARK    5  A    between atoms: P_9  and  O_10
REMARK    6  A    between atoms: P_9  and  O_12
REMARK    7  A    between atoms: O_12  and  P_13
REMARK    8  A    between atoms: P_13  and  O_14
REMARK    9  A    between atoms: P_13  and  O_16
REMARK   10  A    between atoms: O_16  and  C_17
REMARK   11  A    between atoms: C_17  and  C_18
REMARK   12  A    between atoms: C_21  and  N_33
REMARK   13  A    between atoms: C_23  and  O_25
REMARK   14  A    between atoms: O_25  and  P_26
REMARK   15  A    between atoms: P_26  and  O_27
REMARK   16  A    between atoms: P_26  and  O_28
REMARK   17  A    between atoms: C_30  and  O_32
REMARK   18  A    between atoms: C_45  and  O_47
REMARK   19  A    between atoms: C_48  and  O_50
REMARK                            x       y       z     vdW  Elec       q    Type
REMARK                         _______ _______ _______ _____ _____    ______ ____
ROOT
ATOM      1  C   UNL     1       8.477  -4.973  26.694  0.00  0.00    +0.178 C 
ATOM      2  C   UNL     1       8.691  -5.342  25.228  0.00  0.00    +0.179 C 
ATOM      3  C   UNL     1       7.739  -4.447  24.444  0.00  0.00    +0.211 C 
ATOM      4  C   UNL     1       7.014  -3.629  25.511  0.00  0.00    +0.254 C 
ATOM      5  O   UNL     1       7.879  -3.663  26.672  0.00  0.00    -0.346 OA
ENDROOT
BRANCH   4   6
ATOM      6  N   UNL     1       6.749  -2.249  25.137  0.00  0.00    -0.285 N 
ATOM      7  C   UNL     1       7.598  -1.459  24.409  0.00  0.00    +0.168 A 
ATOM      8  N   UNL     1       8.892  -1.748  24.095  0.00  0.00    -0.217 NA
ATOM      9  C   UNL     1       9.455  -0.905  23.264  0.00  0.00    +0.207 A 
ATOM     10  N   UNL     1       8.769   0.194  22.722  0.00  0.00    -0.288 N 
ATOM     11  C   UNL     1       7.469   0.509  23.056  0.00  0.00    +0.168 A 
ATOM     12  N   UNL     1       7.030   1.552  22.391  0.00  0.00    -0.234 NA
ATOM     13  C   UNL     1       8.081   1.914  21.580  0.00  0.00    +0.131 A 
ATOM     14  C   UNL     1       9.176   1.099  21.779  0.00  0.00    +0.114 A 
ATOM     15  C   UNL     1       6.810  -0.398  24.014  0.00  0.00    +0.151 A 
ATOM     16  N   UNL     1       5.559  -0.450  24.537  0.00  0.00    -0.230 NA
ATOM     17  C   UNL     1       5.546  -1.586  25.212  0.00  0.00    +0.203 A 
ENDBRANCH   4   6
BRANCH   2  18
ATOM     18  O   UNL     1      10.027  -5.046  24.788  0.00  0.00    -0.386 OA
ATOM     19  H   UNL     1      10.322  -5.768  24.198  0.00  0.00    +0.210 HD
ENDBRANCH   2  18
BRANCH   1  20
ATOM     20  C   UNL     1       7.565  -5.963  27.444  0.00  0.00    +0.206 C 
BRANCH  20  21
ATOM     21  O   UNL     1       6.482  -5.302  28.096  0.00  0.00    -0.284 OA
BRANCH  21  22
ATOM     22  P   UNL     1       4.985  -6.149  27.913  0.00  0.00    +0.483 P 
ATOM     23  O   UNL     1       5.397  -6.551  26.493  0.00  0.00    -0.227 OA
BRANCH  22  24
ATOM     24  O   UNL     1       5.573  -7.382  28.808  0.00  0.00    -0.302 OA
ATOM     25  H   UNL     1       5.336  -7.159  29.732  0.00  0.00    +0.222 HD
ENDBRANCH  22  24
BRANCH  22  26
ATOM     26  O   UNL     1       3.488  -6.996  27.729  0.00  0.00    -0.186 OA
BRANCH  26  27
ATOM     27  P   UNL     1       2.199  -6.033  28.363  0.00  0.00    +0.483 P 
ATOM     28  O   UNL     1       2.761  -4.747  27.754  0.00  0.00    -0.227 OA
BRANCH  27  29
ATOM     29  O   UNL     1       0.909  -5.069  28.998  0.00  0.00    -0.302 OA
ATOM     30  H   UNL     1       0.316  -4.932  28.234  0.00  0.00    +0.222 HD
ENDBRANCH  27  29
BRANCH  27  31
ATOM     31  O   UNL     1       1.140  -6.684  27.291  0.00  0.00    -0.284 OA
BRANCH  31  32
ATOM     32  C   UNL     1       1.581  -7.685  26.373  0.00  0.00    +0.206 C 
BRANCH  32  36
ATOM     33  C   UNL     1       2.757  -5.703  24.346  0.00  0.00    +0.279 C 
ATOM     34  C   UNL     1       3.246  -6.948  23.594  0.00  0.00    +0.201 C 
ATOM     35  C   UNL     1       2.207  -8.015  23.924  0.00  0.00    +0.179 C 
ATOM     36  C   UNL     1       1.249  -7.349  24.912  0.00  0.00    +0.179 C 
ATOM     37  O   UNL     1       1.392  -5.936  24.694  0.00  0.00    -0.341 OA
BRANCH  33  38
ATOM     38  O   UNL     1       2.829  -4.560  23.517  0.00  0.00    -0.365 OA
ATOM     39  H   UNL     1       3.427  -3.948  23.978  0.00  0.00    +0.213 HD
ENDBRANCH  33  38
BRANCH  35  40
ATOM     40  O   UNL     1       1.499  -8.378  22.730  0.00  0.00    -0.386 OA
ATOM     41  H   UNL     1       0.795  -9.009  22.977  0.00  0.00    +0.210 HD
ENDBRANCH  35  40
BRANCH  34  42
ATOM     42  O   UNL     1       4.540  -7.355  24.047  0.00  0.00    -0.384 OA
ATOM     43  H   UNL     1       4.398  -7.865  24.867  0.00  0.00    +0.210 HD
ENDBRANCH  34  42
ENDBRANCH  32  36
ENDBRANCH  31  32
ENDBRANCH  27  31
ENDBRANCH  26  27
ENDBRANCH  22  26
ENDBRANCH  21  22
ENDBRANCH  20  21
ENDBRANCH   1  20
BRANCH   3  44
ATOM     44  O   UNL     1       6.850  -5.223  23.660  0.00  0.00    -0.276 OA
BRANCH  44  45
ATOM     45  P   UNL     1       6.517  -4.749  22.172  0.00  0.00    +0.473 P 
ATOM     46  O   UNL     1       5.103  -4.346  21.929  0.00  0.00    -0.228 OA
BRANCH  45  47
ATOM     47  O   UNL     1       7.584  -3.587  21.955  0.00  0.00    -0.303 OA
ATOM     48  H   UNL     1       8.490  -3.928  22.070  0.00  0.00    +0.222 HD
ENDBRANCH  45  47
BRANCH  45  49
ATOM     49  O   UNL     1       7.052  -5.916  21.226  0.00  0.00    -0.303 OA
ATOM     50  H   UNL     1       7.621  -5.574  20.508  0.00  0.00    +0.222 HD
ENDBRANCH  45  49
ENDBRANCH  44  45
ENDBRANCH   3  44
TORSDOF 19
ENDMDL
MODEL 8
REMARK VINA RESULT:      -6.6      2.048      3.118
REMARK  Name = 
REMARK  19 active torsions:
REMARK  status: ('A' for Active; 'I' for Inactive)
REMARK    1  A    between atoms: O_1  and  C_2
REMARK    2  A    between atoms: C_5  and  C_7
REMARK    3  A    between atoms: C_7  and  O_8
REMARK    4  A    between atoms: O_8  and  P_9
REMARK    5  A    between atoms: P_9  and  O_10
REMARK    6  A    between atoms: P_9  and  O_12
REMARK    7  A    between atoms: O_12  and  P_13
REMARK    8  A    between atoms: P_13  and  O_14
REMARK    9  A    between atoms: P_13  and  O_16
REMARK   10  A    between atoms: O_16  and  C_17
REMARK   11  A    between atoms: C_17  and  C_18
REMARK   12  A    between atoms: C_21  and  N_33
REMARK   13  A    between atoms: C_23  and  O_25
REMARK   14  A    between atoms: O_25  and  P_26
REMARK   15  A    between atoms: P_26  and  O_27
REMARK   16  A    between atoms: P_26  and  O_28
REMARK   17  A    between atoms: C_30  and  O_32
REMARK   18  A    between atoms: C_45  and  O_47
REMARK   19  A    between atoms: C_48  and  O_50
REMARK                            x       y       z     vdW  Elec       q    Type
REMARK                         _______ _______ _______ _____ _____    ______ ____
ROOT
ATOM      1  C   UNL     1       6.226  -3.455  22.066  0.00  0.00    +0.178 C 
ATOM      2  C   UNL     1       7.022  -4.734  21.819  0.00  0.00    +0.179 C 
ATOM      3  C   UNL     1       6.987  -5.494  23.139  0.00  0.00    +0.211 C 
ATOM      4  C   UNL     1       6.188  -4.592  24.079  0.00  0.00    +0.254 C 
ATOM      5  O   UNL     1       5.402  -3.737  23.214  0.00  0.00    -0.346 OA
ENDROOT
BRANCH   4   6
ATOM      6  N   UNL     1       5.311  -5.302  24.996  0.00  0.00    -0.285 N 
ATOM      7  C   UNL     1       4.970  -4.864  26.249  0.00  0.00    +0.168 A 
ATOM      8  N   UNL     1       5.539  -3.823  26.918  0.00  0.00    -0.217 NA
ATOM      9  C   UNL     1       4.943  -3.503  28.041  0.00  0.00    +0.207 A 
ATOM     10  N   UNL     1       3.794  -4.165  28.502  0.00  0.00    -0.288 N 
ATOM     11  C   UNL     1       3.228  -5.237  27.845  0.00  0.00    +0.168 A 
ATOM     12  N   UNL     1       2.139  -5.660  28.443  0.00  0.00    -0.234 NA
ATOM     13  C   UNL     1       1.984  -4.817  29.519  0.00  0.00    +0.131 A 
ATOM     14  C   UNL     1       3.005  -3.893  29.587  0.00  0.00    +0.114 A 
ATOM     15  C   UNL     1       3.889  -5.649  26.593  0.00  0.00    +0.151 A 
ATOM     16  N   UNL     1       3.613  -6.599  25.663  0.00  0.00    -0.230 NA
ATOM     17  C   UNL     1       4.489  -6.363  24.702  0.00  0.00    +0.203 A 
ENDBRANCH   4   6
BRANCH   2  18
ATOM     18  O   UNL     1       6.406  -5.567  20.822  0.00  0.00    -0.386 OA
ATOM     19  H   UNL     1       6.906  -5.468  19.988  0.00  0.00    +0.210 HD
ENDBRANCH   2  18
BRANCH   1  20
ATOM     20  C   UNL     1       7.116  -2.227  22.337  0.00  0.00    +0.206 C 
BRANCH  20  21
ATOM     21  O   UNL     1       8.504  -2.548  22.265  0.00  0.00    -0.284 OA
BRANCH  21  22
ATOM     22  P   UNL     1       9.512  -1.230  22.753  0.00  0.00    +0.483 P 
ATOM     23  O   UNL     1      10.121  -2.112  23.847  0.00  0.00    -0.227 OA
BRANCH  22  24
ATOM     24  O   UNL     1      10.501  -1.517  21.485  0.00  0.00    -0.302 OA
ATOM     25  H   UNL     1      11.295  -0.968  21.654  0.00  0.00    +0.222 HD
ENDBRANCH  22  24
BRANCH  22  26
ATOM     26  O   UNL     1      10.521   0.088  23.241  0.00  0.00    -0.186 OA
BRANCH  26  27
ATOM     27  P   UNL     1       9.795   1.581  22.756  0.00  0.00    +0.483 P 
ATOM     28  O   UNL     1       9.205   0.966  21.485  0.00  0.00    -0.227 OA
BRANCH  27  29
ATOM     29  O   UNL     1       9.068   3.075  22.270  0.00  0.00    -0.302 OA
ATOM     30  H   UNL     1       9.742   3.492  21.699  0.00  0.00    +0.222 HD
ENDBRANCH  27  29
BRANCH  27  31
ATOM     31  O   UNL     1       8.672   1.461  23.948  0.00  0.00    -0.284 OA
BRANCH  31  32
ATOM     32  C   UNL     1       7.350   1.957  23.733  0.00  0.00    +0.206 C 
BRANCH  32  36
ATOM     33  C   UNL     1       5.989  -0.531  24.905  0.00  0.00    +0.279 C 
ATOM     34  C   UNL     1       6.929  -0.334  26.101  0.00  0.00    +0.201 C 
ATOM     35  C   UNL     1       7.158   1.173  26.151  0.00  0.00    +0.179 C 
ATOM     36  C   UNL     1       6.420   1.731  24.934  0.00  0.00    +0.179 C 
ATOM     37  O   UNL     1       5.428   0.746  24.600  0.00  0.00    -0.341 OA
BRANCH  33  38
ATOM     38  O   UNL     1       4.943  -1.423  25.235  0.00  0.00    -0.365 OA
ATOM     39  H   UNL     1       4.248  -1.255  24.576  0.00  0.00    +0.213 HD
ENDBRANCH  33  38
BRANCH  35  40
ATOM     40  O   UNL     1       6.583   1.705  27.353  0.00  0.00    -0.386 OA
ATOM     41  H   UNL     1       6.466   2.667  27.231  0.00  0.00    +0.210 HD
ENDBRANCH  35  40
BRANCH  34  42
ATOM     42  O   UNL     1       8.169  -1.021  25.908  0.00  0.00    -0.384 OA
ATOM     43  H   UNL     1       7.991  -1.741  25.274  0.00  0.00    +0.210 HD
ENDBRANCH  34  42
ENDBRANCH  32  36
ENDBRANCH  31  32
ENDBRANCH  27  31
ENDBRANCH  26  27
ENDBRANCH  22  26
ENDBRANCH  21  22
ENDBRANCH  20  21
ENDBRANCH   1  20
BRANCH   3  44
ATOM     44  O   UNL     1       8.298  -5.742  23.611  0.00  0.00    -0.276 OA
BRANCH  44  45
ATOM     45  P   UNL     1       8.723  -5.179  25.045  0.00  0.00    +0.473 P 
ATOM     46  O   UNL     1       8.318  -6.017  26.208  0.00  0.00    -0.228 OA
BRANCH  45  47
ATOM     47  O   UNL     1      10.296  -5.002  24.871  0.00  0.00    -0.303 OA
ATOM     48  H   UNL     1      10.617  -5.525  24.115  0.00  0.00    +0.222 HD
ENDBRANCH  45  47
BRANCH  45  49
ATOM     49  O   UNL     1       8.190  -3.676  25.085  0.00  0.00    -0.303 OA
ATOM     50  H   UNL     1       8.915  -3.034  25.215  0.00  0.00    +0.222 HD
ENDBRANCH  45  49
ENDBRANCH  44  45
ENDBRANCH   3  44
TORSDOF 19
ENDMDL
MODEL 9
REMARK VINA RESULT:      -6.5      4.220      8.285
REMARK  Name = 
REMARK  19 active torsions:
REMARK  status: ('A' for Active; 'I' for Inactive)
REMARK    1  A    between atoms: O_1  and  C_2
REMARK    2  A    between atoms: C_5  and  C_7
REMARK    3  A    between atoms: C_7  and  O_8
REMARK    4  A    between atoms: O_8  and  P_9
REMARK    5  A    between atoms: P_9  and  O_10
REMARK    6  A    between atoms: P_9  and  O_12
REMARK    7  A    between atoms: O_12  and  P_13
REMARK    8  A    between atoms: P_13  and  O_14
REMARK    9  A    between atoms: P_13  and  O_16
REMARK   10  A    between atoms: O_16  and  C_17
REMARK   11  A    between atoms: C_17  and  C_18
REMARK   12  A    between atoms: C_21  and  N_33
REMARK   13  A    between atoms: C_23  and  O_25
REMARK   14  A    between atoms: O_25  and  P_26
REMARK   15  A    between atoms: P_26  and  O_27
REMARK   16  A    between atoms: P_26  and  O_28
REMARK   17  A    between atoms: C_30  and  O_32
REMARK   18  A    between atoms: C_45  and  O_47
REMARK   19  A    between atoms: C_48  and  O_50
REMARK                            x       y       z     vdW  Elec       q    Type
REMARK                         _______ _______ _______ _____ _____    ______ ____
ROOT
ATOM      1  C   UNL     1       6.657  -1.204  26.866  0.00  0.00    +0.178 C 
ATOM      2  C   UNL     1       7.020  -2.316  25.885  0.00  0.00    +0.179 C 
ATOM      3  C   UNL     1       7.529  -1.604  24.638  0.00  0.00    +0.211 C 
ATOM      4  C   UNL     1       7.406  -0.117  24.968  0.00  0.00    +0.254 C 
ATOM      5  O   UNL     1       7.386  -0.046  26.414  0.00  0.00    -0.346 OA
ENDROOT
BRANCH   4   6
ATOM      6  N   UNL     1       8.487   0.707  24.451  0.00  0.00    -0.285 N 
ATOM      7  C   UNL     1       8.361   2.019  24.078  0.00  0.00    +0.168 A 
ATOM      8  N   UNL     1       7.191   2.703  23.931  0.00  0.00    -0.217 NA
ATOM      9  C   UNL     1       7.333   3.987  23.710  0.00  0.00    +0.207 A 
ATOM     10  N   UNL     1       8.589   4.611  23.656  0.00  0.00    -0.288 N 
ATOM     11  C   UNL     1       9.777   3.922  23.776  0.00  0.00    +0.168 A 
ATOM     12  N   UNL     1      10.816   4.724  23.735  0.00  0.00    -0.234 NA
ATOM     13  C   UNL     1      10.277   5.983  23.602  0.00  0.00    +0.131 A 
ATOM     14  C   UNL     1       8.901   5.939  23.533  0.00  0.00    +0.114 A 
ATOM     15  C   UNL     1       9.662   2.468  23.993  0.00  0.00    +0.151 A 
ATOM     16  N   UNL     1      10.572   1.483  24.201  0.00  0.00    -0.230 NA
ATOM     17  C   UNL     1       9.832   0.425  24.481  0.00  0.00    +0.203 A 
ENDBRANCH   4   6
BRANCH   2  18
ATOM     18  O   UNL     1       8.088  -3.142  26.379  0.00  0.00    -0.386 OA
ATOM     19  H   UNL     1       7.698  -3.850  26.928  0.00  0.00    +0.210 HD
ENDBRANCH   2  18
BRANCH   1  20
ATOM     20  C   UNL     1       5.148  -0.900  26.910  0.00  0.00    +0.206 C 
BRANCH  20  21
ATOM     21  O   UNL     1       4.544  -1.365  28.116  0.00  0.00    -0.284 OA
BRANCH  21  22
ATOM     22  P   UNL     1       4.549  -3.090  28.234  0.00  0.00    +0.483 P 
ATOM     23  O   UNL     1       3.826  -2.991  29.581  0.00  0.00    -0.227 OA
BRANCH  22  24
ATOM     24  O   UNL     1       3.306  -3.167  27.177  0.00  0.00    -0.302 OA
ATOM     25  H   UNL     1       3.204  -4.120  26.975  0.00  0.00    +0.222 HD
ENDBRANCH  22  24
BRANCH  22  26
ATOM     26  O   UNL     1       4.553  -4.817  28.353  0.00  0.00    -0.186 OA
BRANCH  26  27
ATOM     27  P   UNL     1       6.128  -5.417  27.967  0.00  0.00    +0.483 P 
ATOM     28  O   UNL     1       6.443  -5.744  29.427  0.00  0.00    -0.227 OA
BRANCH  27  29
ATOM     29  O   UNL     1       7.705  -6.017  27.580  0.00  0.00    -0.302 OA
ATOM     30  H   UNL     1       7.565  -6.548  26.771  0.00  0.00    +0.222 HD
ENDBRANCH  27  29
BRANCH  27  31
ATOM     31  O   UNL     1       5.484  -6.758  27.272  0.00  0.00    -0.284 OA
BRANCH  31  32
ATOM     32  C   UNL     1       4.686  -6.635  26.094  0.00  0.00    +0.206 C 
BRANCH  32  36
ATOM     33  C   UNL     1       5.362  -6.485  23.104  0.00  0.00    +0.279 C 
ATOM     34  C   UNL     1       4.102  -5.619  22.985  0.00  0.00    +0.201 C 
ATOM     35  C   UNL     1       4.002  -4.919  24.337  0.00  0.00    +0.179 C 
ATOM     36  C   UNL     1       5.145  -5.496  25.172  0.00  0.00    +0.179 C 
ATOM     37  O   UNL     1       6.101  -5.995  24.223  0.00  0.00    -0.341 OA
BRANCH  33  38
ATOM     38  O   UNL     1       6.159  -6.367  21.942  0.00  0.00    -0.365 OA
ATOM     39  H   UNL     1       6.049  -7.211  21.472  0.00  0.00    +0.213 HD
ENDBRANCH  33  38
BRANCH  35  40
ATOM     40  O   UNL     1       4.193  -3.508  24.161  0.00  0.00    -0.386 OA
ATOM     41  H   UNL     1       4.864  -3.379  23.463  0.00  0.00    +0.210 HD
ENDBRANCH  35  40
BRANCH  34  42
ATOM     42  O   UNL     1       2.940  -6.419  22.751  0.00  0.00    -0.384 OA
ATOM     43  H   UNL     1       3.173  -7.329  23.014  0.00  0.00    +0.210 HD
ENDBRANCH  34  42
ENDBRANCH  32  36
ENDBRANCH  31  32
ENDBRANCH  27  31
ENDBRANCH  26  27
ENDBRANCH  22  26
ENDBRANCH  21  22
ENDBRANCH  20  21
ENDBRANCH   1  20
BRANCH   3  44
ATOM     44  O   UNL     1       6.766  -1.971  23.503  0.00  0.00    -0.276 OA
BRANCH  44  45
ATOM     45  P   UNL     1       7.379  -3.018  22.465  0.00  0.00    +0.473 P 
ATOM     46  O   UNL     1       6.440  -3.506  21.416  0.00  0.00    -0.228 OA
BRANCH  45  47
ATOM     47  O   UNL     1       8.640  -2.221  21.906  0.00  0.00    -0.303 OA
ATOM     48  H   UNL     1       9.167  -1.857  22.640  0.00  0.00    +0.222 HD
ENDBRANCH  45  47
BRANCH  45  49
ATOM     49  O   UNL     1       8.039  -4.163  23.358  0.00  0.00    -0.303 OA
ATOM     50  H   UNL     1       8.245  -3.850  24.261  0.00  0.00    +0.222 HD
ENDBRANCH  45  49
ENDBRANCH  44  45
ENDBRANCH   3  44
TORSDOF 19
ENDMDL
