MODEL 1
REMARK VINA RESULT:      -6.4      0.000      0.000
REMARK  Name = 
REMARK  13 active torsions:
REMARK  status: ('A' for Active; 'I' for Inactive)
REMARK    1  A    between atoms: C_1  and  C_2
REMARK    2  A    between atoms: C_2  and  N_3
REMARK    3  A    between atoms: C_4  and  C_5
REMARK    4  A    between atoms: C_6  and  C_7
REMARK    5  A    between atoms: C_7  and  O_9
REMARK    6  A    between atoms: O_9  and  C_10
REMARK    7  A    between atoms: C_10  and  C_11
REMARK    8  A    between atoms: C_10  and  C_12
REMARK    9  A    between atoms: C_13  and  C_14
REMARK   10  A    between atoms: C_21  and  C_22
REMARK   11  A    between atoms: C_22  and  O_23
REMARK   12  A    between atoms: C_25  and  C_26
REMARK   13  A    between atoms: C_26  and  O_27
REMARK                            x       y       z     vdW  Elec       q    Type
REMARK                         _______ _______ _______ _____ _____    ______ ____
ROOT
ATOM      1  N   UNL     1       7.230   1.114  23.680  0.00  0.00    -0.188 N 
ATOM      2  C   UNL     1       8.195   0.532  22.898  0.00  0.00    +0.307 A 
ATOM      3  C   UNL     1       8.293  -0.871  22.771  0.00  0.00    +0.146 A 
ATOM      4  C   UNL     1       7.297  -1.733  23.292  0.00  0.00    +0.024 A 
ATOM      5  C   UNL     1       6.396  -1.101  24.211  0.00  0.00    +0.134 A 
ATOM      6  C   UNL     1       6.385   0.321  24.423  0.00  0.00    +0.196 A 
ATOM      7  C   UNL     1       5.509   0.922  25.507  0.00  0.00    +0.123 C 
ENDROOT
BRANCH   4   8
ATOM      8  C   UNL     1       7.238  -3.189  22.823  0.00  0.00    +0.002 A 
ATOM      9  C   UNL     1       7.891  -4.254  23.517  0.00  0.00    +0.049 A 
ATOM     10 CL   UNL     1       9.094  -3.975  24.739  0.00  0.00    -0.083 Cl
ATOM     11  C   UNL     1       7.659  -5.610  23.218  0.00  0.00    +0.020 A 
ATOM     12  C   UNL     1       6.903  -5.962  22.113  0.00  0.00    +0.001 A 
ATOM     13  C   UNL     1       6.352  -4.958  21.336  0.00  0.00    +0.001 A 
ATOM     14  C   UNL     1       6.477  -3.609  21.715  0.00  0.00    +0.010 A 
ENDBRANCH   4   8
BRANCH   1  16
ATOM     15  C   UNL     1       6.120   3.142  22.787  0.00  0.00    +0.082 C 
ATOM     16  C   UNL     1       7.160   2.621  23.762  0.00  0.00    +0.354 C 
ENDBRANCH   1  16
BRANCH   2  17
ATOM     17  C   UNL     1       9.087   1.436  22.128  0.00  0.00    +0.403 C 
ATOM     18  O   UNL     1      10.142   1.870  22.547  0.00  0.00    -0.238 OA
BRANCH  17  19
ATOM     19  O   UNL     1       8.674   1.576  20.862  0.00  0.00    -0.473 OA
ATOM     20  H   UNL     1       9.306   1.052  20.312  0.00  0.00    +0.296 HD
ENDBRANCH  17  19
ENDBRANCH   2  17
BRANCH   3  21
ATOM     21  C   UNL     1       9.496  -1.371  22.069  0.00  0.00    +0.344 C 
ATOM     22  O   UNL     1      10.450  -1.849  22.659  0.00  0.00    -0.245 OA
BRANCH  21  23
ATOM     23  O   UNL     1       9.412  -1.339  20.720  0.00  0.00    -0.477 OA
ATOM     24  H   UNL     1       9.746  -2.083  20.183  0.00  0.00    +0.295 HD
ENDBRANCH  21  23
ENDBRANCH   3  21
BRANCH   5  25
ATOM     25  C   UNL     1       5.709  -1.897  25.252  0.00  0.00    +0.346 C 
ATOM     26  O   UNL     1       6.315  -2.132  26.283  0.00  0.00    -0.245 OA
BRANCH  25  27
ATOM     27  O   UNL     1       4.381  -2.084  25.052  0.00  0.00    -0.458 OA
BRANCH  27  28
ATOM     28  C   UNL     1       3.780  -3.338  25.510  0.00  0.00    +0.171 C 
ATOM     29  C   UNL     1       4.201  -4.450  24.543  0.00  0.00    +0.052 C 
ATOM     30  C   UNL     1       2.246  -3.340  25.572  0.00  0.00    +0.052 C 
ENDBRANCH  27  28
ENDBRANCH  25  27
ENDBRANCH   5  25
TORSDOF 9
ENDMDL
MODEL 2
REMARK VINA RESULT:      -5.8      1.538      1.996
REMARK  Name = 
REMARK  13 active torsions:
REMARK  status: ('A' for Active; 'I' for Inactive)
REMARK    1  A    between atoms: C_1  and  C_2
REMARK    2  A    between atoms: C_2  and  N_3
REMARK    3  A    between atoms: C_4  and  C_5
REMARK    4  A    between atoms: C_6  and  C_7
REMARK    5  A    between atoms: C_7  and  O_9
REMARK    6  A    between atoms: O_9  and  C_10
REMARK    7  A    between atoms: C_10  and  C_11
REMARK    8  A    between atoms: C_10  and  C_12
REMARK    9  A    between atoms: C_13  and  C_14
REMARK   10  A    between atoms: C_21  and  C_22
REMARK   11  A    between atoms: C_22  and  O_23
REMARK   12  A    between atoms: C_25  and  C_26
REMARK   13  A    between atoms: C_26  and  O_27
REMARK                            x       y       z     vdW  Elec       q    Type
REMARK                         _______ _______ _______ _____ _____    ______ ____
ROOT
ATOM      1  N   UNL     1       8.206   1.582  23.995  0.00  0.00    -0.188 N 
ATOM      2  C   UNL     1       8.871   0.834  23.056  0.00  0.00    +0.307 A 
ATOM      3  C   UNL     1       8.950  -0.572  23.158  0.00  0.00    +0.146 A 
ATOM      4  C   UNL     1       8.199  -1.289  24.122  0.00  0.00    +0.024 A 
ATOM      5  C   UNL     1       7.638  -0.471  25.156  0.00  0.00    +0.134 A 
ATOM      6  C   UNL     1       7.669   0.966  25.103  0.00  0.00    +0.196 A 
ATOM      7  C   UNL     1       7.186   1.782  26.288  0.00  0.00    +0.123 C 
ENDROOT
BRANCH   4   8
ATOM      8  C   UNL     1       8.017  -2.801  23.965  0.00  0.00    +0.002 A 
ATOM      9  C   UNL     1       7.138  -3.380  22.998  0.00  0.00    +0.049 A 
ATOM     10 CL   UNL     1       5.933  -2.452  22.157  0.00  0.00    -0.083 Cl
ATOM     11  C   UNL     1       7.133  -4.757  22.704  0.00  0.00    +0.020 A 
ATOM     12  C   UNL     1       7.878  -5.637  23.469  0.00  0.00    +0.001 A 
ATOM     13  C   UNL     1       8.651  -5.133  24.499  0.00  0.00    +0.001 A 
ATOM     14  C   UNL     1       8.755  -3.745  24.705  0.00  0.00    +0.010 A 
ENDBRANCH   4   8
BRANCH   1  16
ATOM     15  C   UNL     1       6.822   3.465  23.166  0.00  0.00    +0.082 C 
ATOM     16  C   UNL     1       8.136   3.082  23.824  0.00  0.00    +0.354 C 
ENDBRANCH   1  16
BRANCH   2  17
ATOM     17  C   UNL     1       9.440   1.552  21.889  0.00  0.00    +0.403 C 
ATOM     18  O   UNL     1      10.563   2.017  21.857  0.00  0.00    -0.238 OA
BRANCH  17  19
ATOM     19  O   UNL     1       8.635   1.477  20.822  0.00  0.00    -0.473 OA
ATOM     20  H   UNL     1       9.210   1.648  20.036  0.00  0.00    +0.296 HD
ENDBRANCH  17  19
ENDBRANCH   2  17
BRANCH   3  21
ATOM     21  C   UNL     1       9.864  -1.236  22.201  0.00  0.00    +0.344 C 
ATOM     22  O   UNL     1      10.911  -1.758  22.547  0.00  0.00    -0.245 OA
BRANCH  21  23
ATOM     23  O   UNL     1       9.401  -1.295  20.932  0.00  0.00    -0.477 OA
ATOM     24  H   UNL     1       9.482  -0.525  20.338  0.00  0.00    +0.295 HD
ENDBRANCH  21  23
ENDBRANCH   3  21
BRANCH   5  25
ATOM     25  C   UNL     1       7.349  -1.044  26.489  0.00  0.00    +0.346 C 
ATOM     26  O   UNL     1       8.243  -1.045  27.316  0.00  0.00    -0.245 OA
BRANCH  25  27
ATOM     27  O   UNL     1       6.040  -1.296  26.736  0.00  0.00    -0.458 OA
BRANCH  27  28
ATOM     28  C   UNL     1       5.560  -2.673  26.604  0.00  0.00    +0.171 C 
ATOM     29  C   UNL     1       4.513  -2.707  25.486  0.00  0.00    +0.052 C 
ATOM     30  C   UNL     1       4.906  -3.259  27.862  0.00  0.00    +0.052 C 
ENDBRANCH  27  28
ENDBRANCH  25  27
ENDBRANCH   5  25
TORSDOF 9
ENDMDL
MODEL 3
REMARK VINA RESULT:      -5.7      1.474      2.027
REMARK  Name = 
REMARK  13 active torsions:
REMARK  status: ('A' for Active; 'I' for Inactive)
REMARK    1  A    between atoms: C_1  and  C_2
REMARK    2  A    between atoms: C_2  and  N_3
REMARK    3  A    between atoms: C_4  and  C_5
REMARK    4  A    between atoms: C_6  and  C_7
REMARK    5  A    between atoms: C_7  and  O_9
REMARK    6  A    between atoms: O_9  and  C_10
REMARK    7  A    between atoms: C_10  and  C_11
REMARK    8  A    between atoms: C_10  and  C_12
REMARK    9  A    between atoms: C_13  and  C_14
REMARK   10  A    between atoms: C_21  and  C_22
REMARK   11  A    between atoms: C_22  and  O_23
REMARK   12  A    between atoms: C_25  and  C_26
REMARK   13  A    between atoms: C_26  and  O_27
REMARK                            x       y       z     vdW  Elec       q    Type
REMARK                         _______ _______ _______ _____ _____    ______ ____
ROOT
ATOM      1  N   UNL     1       7.607   0.297  24.981  0.00  0.00    -0.188 N 
ATOM      2  C   UNL     1       8.568  -0.266  24.179  0.00  0.00    +0.307 A 
ATOM      3  C   UNL     1       8.423  -1.572  23.662  0.00  0.00    +0.146 A 
ATOM      4  C   UNL     1       7.208  -2.289  23.791  0.00  0.00    +0.024 A 
ATOM      5  C   UNL     1       6.295  -1.729  24.743  0.00  0.00    +0.134 A 
ATOM      6  C   UNL     1       6.513  -0.448  25.358  0.00  0.00    +0.196 A 
ATOM      7  C   UNL     1       5.588   0.034  26.462  0.00  0.00    +0.123 C 
ENDROOT
BRANCH   4   8
ATOM      8  C   UNL     1       6.961  -3.519  22.914  0.00  0.00    +0.002 A 
ATOM      9  C   UNL     1       7.329  -4.842  23.314  0.00  0.00    +0.049 A 
ATOM     10 CL   UNL     1       8.398  -5.152  24.648  0.00  0.00    -0.083 Cl
ATOM     11  C   UNL     1       6.910  -5.990  22.616  0.00  0.00    +0.020 A 
ATOM     12  C   UNL     1       6.250  -5.869  21.404  0.00  0.00    +0.001 A 
ATOM     13  C   UNL     1       5.982  -4.603  20.916  0.00  0.00    +0.001 A 
ATOM     14  C   UNL     1       6.286  -3.461  21.680  0.00  0.00    +0.010 A 
ENDBRANCH   4   8
BRANCH   1  16
ATOM     15  C   UNL     1       7.021   2.679  24.628  0.00  0.00    +0.082 C 
ATOM     16  C   UNL     1       7.806   1.706  25.489  0.00  0.00    +0.354 C 
ENDBRANCH   1  16
BRANCH   2  17
ATOM     17  C   UNL     1       9.733   0.579  23.814  0.00  0.00    +0.403 C 
ATOM     18  O   UNL     1       9.760   1.322  22.852  0.00  0.00    -0.238 OA
BRANCH  17  19
ATOM     19  O   UNL     1      10.678   0.553  24.761  0.00  0.00    -0.473 OA
ATOM     20  H   UNL     1      10.350   1.137  25.488  0.00  0.00    +0.296 HD
ENDBRANCH  17  19
ENDBRANCH   2  17
BRANCH   3  21
ATOM     21  C   UNL     1       9.615  -2.133  22.988  0.00  0.00    +0.344 C 
ATOM     22  O   UNL     1       9.888  -1.890  21.825  0.00  0.00    -0.245 OA
BRANCH  21  23
ATOM     23  O   UNL     1      10.423  -2.861  23.792  0.00  0.00    -0.477 OA
ATOM     24  H   UNL     1      11.284  -3.186  23.468  0.00  0.00    +0.295 HD
ENDBRANCH  21  23
ENDBRANCH   3  21
BRANCH   5  25
ATOM     25  C   UNL     1       5.301  -2.591  25.421  0.00  0.00    +0.346 C 
ATOM     26  O   UNL     1       4.158  -2.587  24.997  0.00  0.00    -0.245 OA
BRANCH  25  27
ATOM     27  O   UNL     1       5.817  -3.484  26.301  0.00  0.00    -0.458 OA
BRANCH  27  28
ATOM     28  C   UNL     1       4.966  -4.587  26.751  0.00  0.00    +0.171 C 
ATOM     29  C   UNL     1       4.600  -4.338  28.219  0.00  0.00    +0.052 C 
ATOM     30  C   UNL     1       5.606  -5.980  26.669  0.00  0.00    +0.052 C 
ENDBRANCH  27  28
ENDBRANCH  25  27
ENDBRANCH   5  25
TORSDOF 9
ENDMDL
MODEL 4
REMARK VINA RESULT:      -5.6      2.735      5.830
REMARK  Name = 
REMARK  13 active torsions:
REMARK  status: ('A' for Active; 'I' for Inactive)
REMARK    1  A    between atoms: C_1  and  C_2
REMARK    2  A    between atoms: C_2  and  N_3
REMARK    3  A    between atoms: C_4  and  C_5
REMARK    4  A    between atoms: C_6  and  C_7
REMARK    5  A    between atoms: C_7  and  O_9
REMARK    6  A    between atoms: O_9  and  C_10
REMARK    7  A    between atoms: C_10  and  C_11
REMARK    8  A    between atoms: C_10  and  C_12
REMARK    9  A    between atoms: C_13  and  C_14
REMARK   10  A    between atoms: C_21  and  C_22
REMARK   11  A    between atoms: C_22  and  O_23
REMARK   12  A    between atoms: C_25  and  C_26
REMARK   13  A    between atoms: C_26  and  O_27
REMARK                            x       y       z     vdW  Elec       q    Type
REMARK                         _______ _______ _______ _____ _____    ______ ____
ROOT
ATOM      1  N   UNL     1       7.272  -3.272  25.826  0.00  0.00    -0.188 N 
ATOM      2  C   UNL     1       8.118  -3.270  24.745  0.00  0.00    +0.307 A 
ATOM      3  C   UNL     1       8.473  -2.071  24.090  0.00  0.00    +0.146 A 
ATOM      4  C   UNL     1       8.124  -0.805  24.621  0.00  0.00    +0.024 A 
ATOM      5  C   UNL     1       7.135  -0.855  25.657  0.00  0.00    +0.134 A 
ATOM      6  C   UNL     1       6.690  -2.094  26.237  0.00  0.00    +0.196 A 
ATOM      7  C   UNL     1       5.542  -2.100  27.230  0.00  0.00    +0.123 C 
ENDROOT
BRANCH   4   8
ATOM      8  C   UNL     1       8.830   0.451  24.104  0.00  0.00    +0.002 A 
ATOM      9  C   UNL     1       8.217   1.363  23.189  0.00  0.00    +0.049 A 
ATOM     10 CL   UNL     1       6.776   0.969  22.302  0.00  0.00    -0.083 Cl
ATOM     11  C   UNL     1       8.771   2.621  22.884  0.00  0.00    +0.020 A 
ATOM     12  C   UNL     1      10.033   2.958  23.343  0.00  0.00    +0.001 A 
ATOM     13  C   UNL     1      10.718   2.051  24.132  0.00  0.00    +0.001 A 
ATOM     14  C   UNL     1      10.107   0.852  24.542  0.00  0.00    +0.010 A 
ENDBRANCH   4   8
BRANCH   1  16
ATOM     15  C   UNL     1       5.698  -5.185  25.878  0.00  0.00    +0.082 C 
ATOM     16  C   UNL     1       6.944  -4.583  26.501  0.00  0.00    +0.354 C 
ENDBRANCH   1  16
BRANCH   2  17
ATOM     17  C   UNL     1       8.707  -4.570  24.338  0.00  0.00    +0.403 C 
ATOM     18  O   UNL     1       8.216  -5.310  23.508  0.00  0.00    -0.238 OA
BRANCH  17  19
ATOM     19  O   UNL     1       9.925  -4.748  24.865  0.00  0.00    -0.473 OA
ATOM     20  H   UNL     1      10.337  -3.851  24.903  0.00  0.00    +0.296 HD
ENDBRANCH  17  19
ENDBRANCH   2  17
BRANCH   3  21
ATOM     21  C   UNL     1       9.221  -2.228  22.822  0.00  0.00    +0.344 C 
ATOM     22  O   UNL     1       8.686  -2.147  21.729  0.00  0.00    -0.245 OA
BRANCH  21  23
ATOM     23  O   UNL     1      10.556  -2.377  22.974  0.00  0.00    -0.477 OA
ATOM     24  H   UNL     1      11.179  -1.847  22.440  0.00  0.00    +0.295 HD
ENDBRANCH  21  23
ENDBRANCH   3  21
BRANCH   5  25
ATOM     25  C   UNL     1       6.256   0.308  25.909  0.00  0.00    +0.346 C 
ATOM     26  O   UNL     1       5.217   0.386  25.278  0.00  0.00    -0.245 OA
BRANCH  25  27
ATOM     27  O   UNL     1       6.581   1.051  26.995  0.00  0.00    -0.458 OA
BRANCH  27  28
ATOM     28  C   UNL     1       6.259   2.480  26.981  0.00  0.00    +0.171 C 
ATOM     29  C   UNL     1       7.405   3.220  26.283  0.00  0.00    +0.052 C 
ATOM     30  C   UNL     1       6.076   3.120  28.364  0.00  0.00    +0.052 C 
ENDBRANCH  27  28
ENDBRANCH  25  27
ENDBRANCH   5  25
TORSDOF 9
ENDMDL
MODEL 5
REMARK VINA RESULT:      -5.6      2.581      4.804
REMARK  Name = 
REMARK  13 active torsions:
REMARK  status: ('A' for Active; 'I' for Inactive)
REMARK    1  A    between atoms: C_1  and  C_2
REMARK    2  A    between atoms: C_2  and  N_3
REMARK    3  A    between atoms: C_4  and  C_5
REMARK    4  A    between atoms: C_6  and  C_7
REMARK    5  A    between atoms: C_7  and  O_9
REMARK    6  A    between atoms: O_9  and  C_10
REMARK    7  A    between atoms: C_10  and  C_11
REMARK    8  A    between atoms: C_10  and  C_12
REMARK    9  A    between atoms: C_13  and  C_14
REMARK   10  A    between atoms: C_21  and  C_22
REMARK   11  A    between atoms: C_22  and  O_23
REMARK   12  A    between atoms: C_25  and  C_26
REMARK   13  A    between atoms: C_26  and  O_27
REMARK                            x       y       z     vdW  Elec       q    Type
REMARK                         _______ _______ _______ _____ _____    ______ ____
ROOT
ATOM      1  N   UNL     1       8.572  -0.546  24.399  0.00  0.00    -0.188 N 
ATOM      2  C   UNL     1       7.503  -0.290  25.221  0.00  0.00    +0.307 A 
ATOM      3  C   UNL     1       6.641  -1.322  25.650  0.00  0.00    +0.146 A 
ATOM      4  C   UNL     1       6.938  -2.686  25.407  0.00  0.00    +0.024 A 
ATOM      5  C   UNL     1       7.973  -2.897  24.438  0.00  0.00    +0.134 A 
ATOM      6  C   UNL     1       8.769  -1.820  23.914  0.00  0.00    +0.196 A 
ATOM      7  C   UNL     1       9.754  -2.079  22.789  0.00  0.00    +0.123 C 
ENDROOT
BRANCH   4   8
ATOM      8  C   UNL     1       6.199  -3.772  26.193  0.00  0.00    +0.002 A 
ATOM      9  C   UNL     1       4.970  -4.350  25.747  0.00  0.00    +0.049 A 
ATOM     10 CL   UNL     1       4.014  -3.648  24.477  0.00  0.00    -0.083 Cl
ATOM     11  C   UNL     1       4.406  -5.492  26.347  0.00  0.00    +0.020 A 
ATOM     12  C   UNL     1       4.946  -6.007  27.513  0.00  0.00    +0.001 A 
ATOM     13  C   UNL     1       6.068  -5.401  28.051  0.00  0.00    +0.001 A 
ATOM     14  C   UNL     1       6.704  -4.343  27.377  0.00  0.00    +0.010 A 
ENDBRANCH   4   8
BRANCH   1  16
ATOM     15  C   UNL     1      10.755   0.556  24.801  0.00  0.00    +0.082 C 
ATOM     16  C   UNL     1       9.474   0.594  23.988  0.00  0.00    +0.354 C 
ENDBRANCH   1  16
BRANCH   2  17
ATOM     17  C   UNL     1       7.332   1.103  25.704  0.00  0.00    +0.403 C 
ATOM     18  O   UNL     1       6.701   1.956  25.111  0.00  0.00    -0.238 OA
BRANCH  17  19
ATOM     19  O   UNL     1       7.808   1.257  26.945  0.00  0.00    -0.473 OA
ATOM     20  H   UNL     1       7.039   1.115  27.550  0.00  0.00    +0.296 HD
ENDBRANCH  17  19
ENDBRANCH   2  17
BRANCH   3  21
ATOM     21  C   UNL     1       5.416  -0.885  26.358  0.00  0.00    +0.344 C 
ATOM     22  O   UNL     1       4.361  -0.683  25.782  0.00  0.00    -0.245 OA
BRANCH  21  23
ATOM     23  O   UNL     1       5.541  -0.817  27.703  0.00  0.00    -0.477 OA
ATOM     24  H   UNL     1       5.981  -0.054  28.123  0.00  0.00    +0.295 HD
ENDBRANCH  21  23
ENDBRANCH   3  21
BRANCH   5  25
ATOM     25  C   UNL     1       8.018  -4.150  23.653  0.00  0.00    +0.346 C 
ATOM     26  O   UNL     1       8.772  -5.031  24.026  0.00  0.00    -0.245 OA
BRANCH  25  27
ATOM     27  O   UNL     1       7.035  -4.286  22.729  0.00  0.00    -0.458 OA
BRANCH  27  28
ATOM     28  C   UNL     1       6.744  -5.627  22.217  0.00  0.00    +0.171 C 
ATOM     29  C   UNL     1       6.250  -5.489  20.773  0.00  0.00    +0.052 C 
ATOM     30  C   UNL     1       5.672  -6.403  22.995  0.00  0.00    +0.052 C 
ENDBRANCH  27  28
ENDBRANCH  25  27
ENDBRANCH   5  25
TORSDOF 9
ENDMDL
MODEL 6
REMARK VINA RESULT:      -5.5      2.671      5.638
REMARK  Name = 
REMARK  13 active torsions:
REMARK  status: ('A' for Active; 'I' for Inactive)
REMARK    1  A    between atoms: C_1  and  C_2
REMARK    2  A    between atoms: C_2  and  N_3
REMARK    3  A    between atoms: C_4  and  C_5
REMARK    4  A    between atoms: C_6  and  C_7
REMARK    5  A    between atoms: C_7  and  O_9
REMARK    6  A    between atoms: O_9  and  C_10
REMARK    7  A    between atoms: C_10  and  C_11
REMARK    8  A    between atoms: C_10  and  C_12
REMARK    9  A    between atoms: C_13  and  C_14
REMARK   10  A    between atoms: C_21  and  C_22
REMARK   11  A    between atoms: C_22  and  O_23
REMARK   12  A    between atoms: C_25  and  C_26
REMARK   13  A    between atoms: C_26  and  O_27
REMARK                            x       y       z     vdW  Elec       q    Type
REMARK                         _______ _______ _______ _____ _____    ______ ____
ROOT
ATOM      1  N   UNL     1       4.054  -4.258  25.138  0.00  0.00    -0.188 N 
ATOM      2  C   UNL     1       4.637  -4.610  23.947  0.00  0.00    +0.307 A 
ATOM      3  C   UNL     1       5.675  -3.840  23.380  0.00  0.00    +0.146 A 
ATOM      4  C   UNL     1       6.288  -2.781  24.095  0.00  0.00    +0.024 A 
ATOM      5  C   UNL     1       5.564  -2.363  25.260  0.00  0.00    +0.134 A 
ATOM      6  C   UNL     1       4.429  -3.089  25.762  0.00  0.00    +0.196 A 
ATOM      7  C   UNL     1       3.615  -2.528  26.914  0.00  0.00    +0.123 C 
ENDROOT
BRANCH   4   8
ATOM      8  C   UNL     1       7.631  -2.224  23.615  0.00  0.00    +0.002 A 
ATOM      9  C   UNL     1       8.887  -2.714  24.091  0.00  0.00    +0.049 A 
ATOM     10 CL   UNL     1       9.024  -3.723  25.498  0.00  0.00    -0.083 Cl
ATOM     11  C   UNL     1      10.114  -2.361  23.497  0.00  0.00    +0.020 A 
ATOM     12  C   UNL     1      10.160  -1.383  22.518  0.00  0.00    +0.001 A 
ATOM     13  C   UNL     1       8.977  -0.790  22.113  0.00  0.00    +0.001 A 
ATOM     14  C   UNL     1       7.742  -1.239  22.615  0.00  0.00    +0.010 A 
ENDBRANCH   4   8
BRANCH   1  16
ATOM     15  C   UNL     1       3.544  -6.083  26.737  0.00  0.00    +0.082 C 
ATOM     16  C   UNL     1       2.960  -5.131  25.708  0.00  0.00    +0.354 C 
ENDBRANCH   1  16
BRANCH   2  17
ATOM     17  C   UNL     1       4.185  -5.874  23.313  0.00  0.00    +0.403 C 
ATOM     18  O   UNL     1       3.228  -5.958  22.568  0.00  0.00    -0.238 OA
BRANCH  17  19
ATOM     19  O   UNL     1       5.055  -6.869  23.522  0.00  0.00    -0.473 OA
ATOM     20  H   UNL     1       4.875  -7.200  24.435  0.00  0.00    +0.296 HD
ENDBRANCH  17  19
ENDBRANCH   2  17
BRANCH   3  21
ATOM     21  C   UNL     1       6.071  -4.208  22.002  0.00  0.00    +0.344 C 
ATOM     22  O   UNL     1       5.601  -3.666  21.016  0.00  0.00    -0.245 OA
BRANCH  21  23
ATOM     23  O   UNL     1       7.060  -5.128  21.930  0.00  0.00    -0.477 OA
ATOM     24  H   UNL     1       7.577  -5.364  22.724  0.00  0.00    +0.295 HD
ENDBRANCH  21  23
ENDBRANCH   3  21
BRANCH   5  25
ATOM     25  C   UNL     1       5.702  -0.982  25.771  0.00  0.00    +0.346 C 
ATOM     26  O   UNL     1       6.498  -0.783  26.671  0.00  0.00    -0.245 OA
BRANCH  25  27
ATOM     27  O   UNL     1       5.100  -0.027  25.020  0.00  0.00    -0.458 OA
BRANCH  27  28
ATOM     28  C   UNL     1       5.649   1.330  25.052  0.00  0.00    +0.171 C 
ATOM     29  C   UNL     1       4.546   2.279  25.534  0.00  0.00    +0.052 C 
ATOM     30  C   UNL     1       6.152   1.862  23.702  0.00  0.00    +0.052 C 
ENDBRANCH  27  28
ENDBRANCH  25  27
ENDBRANCH   5  25
TORSDOF 9
ENDMDL
MODEL 7
REMARK VINA RESULT:      -5.4      1.558      2.273
REMARK  Name = 
REMARK  13 active torsions:
REMARK  status: ('A' for Active; 'I' for Inactive)
REMARK    1  A    between atoms: C_1  and  C_2
REMARK    2  A    between atoms: C_2  and  N_3
REMARK    3  A    between atoms: C_4  and  C_5
REMARK    4  A    between atoms: C_6  and  C_7
REMARK    5  A    between atoms: C_7  and  O_9
REMARK    6  A    between atoms: O_9  and  C_10
REMARK    7  A    between atoms: C_10  and  C_11
REMARK    8  A    between atoms: C_10  and  C_12
REMARK    9  A    between atoms: C_13  and  C_14
REMARK   10  A    between atoms: C_21  and  C_22
REMARK   11  A    between atoms: C_22  and  O_23
REMARK   12  A    between atoms: C_25  and  C_26
REMARK   13  A    between atoms: C_26  and  O_27
REMARK                            x       y       z     vdW  Elec       q    Type
REMARK                         _______ _______ _______ _____ _____    ______ ____
ROOT
ATOM      1  N   UNL     1       7.321   1.663  23.554  0.00  0.00    -0.188 N 
ATOM      2  C   UNL     1       8.244   0.785  23.044  0.00  0.00    +0.307 A 
ATOM      3  C   UNL     1       8.173  -0.599  23.318  0.00  0.00    +0.146 A 
ATOM      4  C   UNL     1       7.054  -1.168  23.974  0.00  0.00    +0.024 A 
ATOM      5  C   UNL     1       6.194  -0.211  24.605  0.00  0.00    +0.134 A 
ATOM      6  C   UNL     1       6.349   1.206  24.416  0.00  0.00    +0.196 A 
ATOM      7  C   UNL     1       5.501   2.178  25.216  0.00  0.00    +0.123 C 
ENDROOT
BRANCH   4   8
ATOM      8  C   UNL     1       6.838  -2.683  23.920  0.00  0.00    +0.002 A 
ATOM      9  C   UNL     1       7.258  -3.563  24.967  0.00  0.00    +0.049 A 
ATOM     10 CL   UNL     1       8.356  -3.068  26.219  0.00  0.00    -0.083 Cl
ATOM     11  C   UNL     1       6.869  -4.915  25.023  0.00  0.00    +0.020 A 
ATOM     12  C   UNL     1       6.189  -5.491  23.964  0.00  0.00    +0.001 A 
ATOM     13  C   UNL     1       5.869  -4.705  22.872  0.00  0.00    +0.001 A 
ATOM     14  C   UNL     1       6.143  -3.325  22.877  0.00  0.00    +0.010 A 
ENDBRANCH   4   8
BRANCH   1  16
ATOM     15  C   UNL     1       6.460   3.474  22.098  0.00  0.00    +0.082 C 
ATOM     16  C   UNL     1       7.433   3.130  23.211  0.00  0.00    +0.354 C 
ENDBRANCH   1  16
BRANCH   2  17
ATOM     17  C   UNL     1       9.277   1.334  22.131  0.00  0.00    +0.403 C 
ATOM     18  O   UNL     1      10.378   1.702  22.491  0.00  0.00    -0.238 OA
BRANCH  17  19
ATOM     19  O   UNL     1       8.914   1.216  20.848  0.00  0.00    -0.473 OA
ATOM     20  H   UNL     1       8.072   0.698  20.850  0.00  0.00    +0.296 HD
ENDBRANCH  17  19
ENDBRANCH   2  17
BRANCH   3  21
ATOM     21  C   UNL     1       9.338  -1.401  22.883  0.00  0.00    +0.344 C 
ATOM     22  O   UNL     1      10.196  -1.789  23.658  0.00  0.00    -0.245 OA
BRANCH  21  23
ATOM     23  O   UNL     1       9.325  -1.744  21.574  0.00  0.00    -0.477 OA
ATOM     24  H   UNL     1      10.100  -1.571  21.007  0.00  0.00    +0.295 HD
ENDBRANCH  21  23
ENDBRANCH   3  21
BRANCH   5  25
ATOM     25  C   UNL     1       5.364  -0.603  25.765  0.00  0.00    +0.346 C 
ATOM     26  O   UNL     1       4.302  -1.159  25.546  0.00  0.00    -0.245 OA
BRANCH  25  27
ATOM     27  O   UNL     1       5.981  -0.519  26.970  0.00  0.00    -0.458 OA
BRANCH  27  28
ATOM     28  C   UNL     1       5.309   0.213  28.045  0.00  0.00    +0.171 C 
ATOM     29  C   UNL     1       6.378   0.946  28.863  0.00  0.00    +0.052 C 
ATOM     30  C   UNL     1       4.501  -0.656  29.020  0.00  0.00    +0.052 C 
ENDBRANCH  27  28
ENDBRANCH  25  27
ENDBRANCH   5  25
TORSDOF 9
ENDMDL
MODEL 8
REMARK VINA RESULT:      -5.4      2.238      3.469
REMARK  Name = 
REMARK  13 active torsions:
REMARK  status: ('A' for Active; 'I' for Inactive)
REMARK    1  A    between atoms: C_1  and  C_2
REMARK    2  A    between atoms: C_2  and  N_3
REMARK    3  A    between atoms: C_4  and  C_5
REMARK    4  A    between atoms: C_6  and  C_7
REMARK    5  A    between atoms: C_7  and  O_9
REMARK    6  A    between atoms: O_9  and  C_10
REMARK    7  A    between atoms: C_10  and  C_11
REMARK    8  A    between atoms: C_10  and  C_12
REMARK    9  A    between atoms: C_13  and  C_14
REMARK   10  A    between atoms: C_21  and  C_22
REMARK   11  A    between atoms: C_22  and  O_23
REMARK   12  A    between atoms: C_25  and  C_26
REMARK   13  A    between atoms: C_26  and  O_27
REMARK                            x       y       z     vdW  Elec       q    Type
REMARK                         _______ _______ _______ _____ _____    ______ ____
ROOT
ATOM      1  N   UNL     1       7.198  -1.020  24.124  0.00  0.00    -0.188 N 
ATOM      2  C   UNL     1       7.705  -2.193  23.624  0.00  0.00    +0.307 A 
ATOM      3  C   UNL     1       7.055  -3.428  23.842  0.00  0.00    +0.146 A 
ATOM      4  C   UNL     1       5.765  -3.494  24.422  0.00  0.00    +0.024 A 
ATOM      5  C   UNL     1       5.340  -2.277  25.049  0.00  0.00    +0.134 A 
ATOM      6  C   UNL     1       6.076  -1.048  24.921  0.00  0.00    +0.196 A 
ATOM      7  C   UNL     1       5.658   0.175  25.717  0.00  0.00    +0.123 C 
ENDROOT
BRANCH   4   8
ATOM      8  C   UNL     1       4.947  -4.783  24.301  0.00  0.00    +0.002 A 
ATOM      9  C   UNL     1       5.002  -5.829  25.274  0.00  0.00    +0.049 A 
ATOM     10 CL   UNL     1       6.242  -5.913  26.488  0.00  0.00    -0.083 Cl
ATOM     11  C   UNL     1       4.097  -6.908  25.281  0.00  0.00    +0.020 A 
ATOM     12  C   UNL     1       3.210  -7.082  24.233  0.00  0.00    +0.001 A 
ATOM     13  C   UNL     1       3.207  -6.158  23.203  0.00  0.00    +0.001 A 
ATOM     14  C   UNL     1       4.021  -5.012  23.266  0.00  0.00    +0.010 A 
ENDBRANCH   4   8
BRANCH   1  16
ATOM     15  C   UNL     1       7.209   1.038  22.744  0.00  0.00    +0.082 C 
ATOM     16  C   UNL     1       7.925   0.274  23.843  0.00  0.00    +0.354 C 
ENDBRANCH   1  16
BRANCH   2  17
ATOM     17  C   UNL     1       8.924  -2.106  22.782  0.00  0.00    +0.403 C 
ATOM     18  O   UNL     1       8.917  -1.809  21.603  0.00  0.00    -0.238 OA
BRANCH  17  19
ATOM     19  O   UNL     1      10.039  -2.225  23.513  0.00  0.00    -0.473 OA
ATOM     20  H   UNL     1      10.777  -2.341  22.865  0.00  0.00    +0.296 HD
ENDBRANCH  17  19
ENDBRANCH   2  17
BRANCH   3  21
ATOM     21  C   UNL     1       7.810  -4.634  23.431  0.00  0.00    +0.344 C 
ATOM     22  O   UNL     1       7.583  -5.227  22.390  0.00  0.00    -0.245 OA
BRANCH  21  23
ATOM     23  O   UNL     1       8.828  -4.966  24.257  0.00  0.00    -0.477 OA
ATOM     24  H   UNL     1       9.503  -4.306  24.503  0.00  0.00    +0.295 HD
ENDBRANCH  21  23
ENDBRANCH   3  21
BRANCH   5  25
ATOM     25  C   UNL     1       4.356  -2.308  26.153  0.00  0.00    +0.346 C 
ATOM     26  O   UNL     1       3.177  -2.182  25.872  0.00  0.00    -0.245 OA
BRANCH  25  27
ATOM     27  O   UNL     1       4.846  -2.715  27.350  0.00  0.00    -0.458 OA
BRANCH  27  28
ATOM     28  C   UNL     1       3.898  -3.148  28.378  0.00  0.00    +0.171 C 
ATOM     29  C   UNL     1       3.774  -2.026  29.415  0.00  0.00    +0.052 C 
ATOM     30  C   UNL     1       4.292  -4.426  29.131  0.00  0.00    +0.052 C 
ENDBRANCH  27  28
ENDBRANCH  25  27
ENDBRANCH   5  25
TORSDOF 9
ENDMDL
MODEL 9
REMARK VINA RESULT:      -5.4      2.304      4.429
REMARK  Name = 
REMARK  13 active torsions:
REMARK  status: ('A' for Active; 'I' for Inactive)
REMARK    1  A    between atoms: C_1  and  C_2
REMARK    2  A    between atoms: C_2  and  N_3
REMARK    3  A    between atoms: C_4  and  C_5
REMARK    4  A    between atoms: C_6  and  C_7
REMARK    5  A    between atoms: C_7  and  O_9
REMARK    6  A    between atoms: O_9  and  C_10
REMARK    7  A    between atoms: C_10  and  C_11
REMARK    8  A    between atoms: C_10  and  C_12
REMARK    9  A    between atoms: C_13  and  C_14
REMARK   10  A    between atoms: C_21  and  C_22
REMARK   11  A    between atoms: C_22  and  O_23
REMARK   12  A    between atoms: C_25  and  C_26
REMARK   13  A    between atoms: C_26  and  O_27
REMARK                            x       y       z     vdW  Elec       q    Type
REMARK                         _______ _______ _______ _____ _____    ______ ____
ROOT
ATOM      1  N   UNL     1       8.465  -0.164  23.917  0.00  0.00    -0.188 N 
ATOM      2  C   UNL     1       7.494   0.086  24.853  0.00  0.00    +0.307 A 
ATOM      3  C   UNL     1       6.685  -0.950  25.370  0.00  0.00    +0.146 A 
ATOM      4  C   UNL     1       6.955  -2.312  25.087  0.00  0.00    +0.024 A 
ATOM      5  C   UNL     1       7.876  -2.516  24.008  0.00  0.00    +0.134 A 
ATOM      6  C   UNL     1       8.608  -1.435  23.406  0.00  0.00    +0.196 A 
ATOM      7  C   UNL     1       9.463  -1.686  22.177  0.00  0.00    +0.123 C 
ENDROOT
BRANCH   4   8
ATOM      8  C   UNL     1       6.309  -3.404  25.944  0.00  0.00    +0.002 A 
ATOM      9  C   UNL     1       7.057  -4.230  26.840  0.00  0.00    +0.049 A 
ATOM     10 CL   UNL     1       8.790  -4.331  26.791  0.00  0.00    -0.083 Cl
ATOM     11  C   UNL     1       6.443  -5.077  27.783  0.00  0.00    +0.020 A 
ATOM     12  C   UNL     1       5.072  -5.264  27.765  0.00  0.00    +0.001 A 
ATOM     13  C   UNL     1       4.318  -4.576  26.831  0.00  0.00    +0.001 A 
ATOM     14  C   UNL     1       4.920  -3.633  25.979  0.00  0.00    +0.010 A 
ENDBRANCH   4   8
BRANCH   1  16
ATOM     15  C   UNL     1      10.622   1.027  24.185  0.00  0.00    +0.082 C 
ATOM     16  C   UNL     1       9.315   0.980  23.415  0.00  0.00    +0.354 C 
ENDBRANCH   1  16
BRANCH   2  17
ATOM     17  C   UNL     1       7.376   1.476  25.360  0.00  0.00    +0.403 C 
ATOM     18  O   UNL     1       6.717   2.343  24.821  0.00  0.00    -0.238 OA
BRANCH  17  19
ATOM     19  O   UNL     1       7.940   1.611  26.567  0.00  0.00    -0.473 OA
ATOM     20  H   UNL     1       7.193   1.735  27.203  0.00  0.00    +0.296 HD
ENDBRANCH  17  19
ENDBRANCH   2  17
BRANCH   3  21
ATOM     21  C   UNL     1       5.547  -0.519  26.212  0.00  0.00    +0.344 C 
ATOM     22  O   UNL     1       4.441  -0.285  25.753  0.00  0.00    -0.245 OA
BRANCH  21  23
ATOM     23  O   UNL     1       5.809  -0.494  27.538  0.00  0.00    -0.477 OA
ATOM     24  H   UNL     1       6.578  -0.973  27.901  0.00  0.00    +0.295 HD
ENDBRANCH  21  23
ENDBRANCH   3  21
BRANCH   5  25
ATOM     25  C   UNL     1       7.835  -3.765  23.215  0.00  0.00    +0.346 C 
ATOM     26  O   UNL     1       8.649  -4.633  23.475  0.00  0.00    -0.245 OA
BRANCH  25  27
ATOM     27  O   UNL     1       6.736  -3.915  22.435  0.00  0.00    -0.458 OA
BRANCH  27  28
ATOM     28  C   UNL     1       6.097  -5.232  22.382  0.00  0.00    +0.171 C 
ATOM     29  C   UNL     1       6.190  -5.749  20.942  0.00  0.00    +0.052 C 
ATOM     30  C   UNL     1       4.615  -5.254  22.782  0.00  0.00    +0.052 C 
ENDBRANCH  27  28
ENDBRANCH  25  27
ENDBRANCH   5  25
TORSDOF 9
ENDMDL
