MODEL 1
REMARK VINA RESULT:      -6.2      0.000      0.000
REMARK  Name = 
REMARK  3 active torsions:
REMARK  status: ('A' for Active; 'I' for Inactive)
REMARK    1  A    between atoms: O_1  and  C_2
REMARK    2  A    between atoms: C_6  and  N_7
REMARK    3  A    between atoms: C_8  and  C_10
REMARK                            x       y       z     vdW  Elec       q    Type
REMARK                         _______ _______ _______ _____ _____    ______ ____
ROOT
ATOM      1  C   UNL     1       6.015  -5.624  23.450  0.00  0.00    +0.145 A 
ATOM      2  C   UNL     1       6.286  -4.895  24.610  0.00  0.00    +0.062 A 
ATOM      3 BR   UNL     1       5.739  -5.526  26.315  0.00  0.00    -0.046 Br
ATOM      4  C   UNL     1       6.956  -3.665  24.540  0.00  0.00    +0.042 A 
ATOM      5  C   UNL     1       7.347  -3.142  23.299  0.00  0.00    +0.036 A 
ATOM      6  C   UNL     1       7.093  -3.892  22.145  0.00  0.00    +0.042 A 
ATOM      7  C   UNL     1       6.429  -5.118  22.219  0.00  0.00    +0.062 A 
ATOM      8 BR   UNL     1       6.100  -6.075  20.614  0.00  0.00    -0.046 Br
ENDROOT
BRANCH   5   9
ATOM      9  N   UNL     1       7.977  -1.870  23.265  0.00  0.00    -0.281 N 
ATOM     10  H   UNL     1       7.371  -1.061  23.195  0.00  0.00    +0.155 HD
ATOM     11  C   UNL     1       9.341  -1.664  23.113  0.00  0.00    +0.248 C 
ATOM     12  O   UNL     1      10.181  -2.543  22.948  0.00  0.00    -0.270 OA
BRANCH  11  13
ATOM     13  C   UNL     1       9.819  -0.257  23.076  0.00  0.00    +0.037 A 
ATOM     14  C   UNL     1      10.357   0.269  24.263  0.00  0.00    +0.013 A 
ATOM     15  C   UNL     1      10.772   1.597  24.327  0.00  0.00    +0.001 A 
ATOM     16  C   UNL     1      10.645   2.414  23.208  0.00  0.00    +0.000 A 
ATOM     17  C   UNL     1      10.102   1.903  22.026  0.00  0.00    +0.001 A 
ATOM     18  C   UNL     1       9.686   0.568  21.955  0.00  0.00    +0.013 A 
ENDBRANCH  11  13
ENDBRANCH   5   9
BRANCH   1  19
ATOM     19  O   UNL     1       5.354  -6.820  23.529  0.00  0.00    -0.505 OA
ATOM     20  H   UNL     1       5.266  -7.050  24.473  0.00  0.00    +0.292 HD
ENDBRANCH   1  19
TORSDOF 3
ENDMDL
MODEL 2
REMARK VINA RESULT:      -6.1      0.222      2.235
REMARK  Name = 
REMARK  3 active torsions:
REMARK  status: ('A' for Active; 'I' for Inactive)
REMARK    1  A    between atoms: O_1  and  C_2
REMARK    2  A    between atoms: C_6  and  N_7
REMARK    3  A    between atoms: C_8  and  C_10
REMARK                            x       y       z     vdW  Elec       q    Type
REMARK                         _______ _______ _______ _____ _____    ______ ____
ROOT
ATOM      1  C   UNL     1       5.912  -5.665  23.530  0.00  0.00    +0.145 A 
ATOM      2  C   UNL     1       6.316  -5.107  22.315  0.00  0.00    +0.062 A 
ATOM      3 BR   UNL     1       6.091  -6.047  20.680  0.00  0.00    -0.046 Br
ATOM      4  C   UNL     1       6.915  -3.840  22.275  0.00  0.00    +0.042 A 
ATOM      5  C   UNL     1       7.135  -3.124  23.461  0.00  0.00    +0.036 A 
ATOM      6  C   UNL     1       6.704  -3.682  24.671  0.00  0.00    +0.042 A 
ATOM      7  C   UNL     1       6.104  -4.942  24.705  0.00  0.00    +0.062 A 
ATOM      8 BR   UNL     1       5.561  -5.647  26.381  0.00  0.00    -0.046 Br
ENDROOT
BRANCH   5   9
ATOM      9  N   UNL     1       7.791  -1.868  23.386  0.00  0.00    -0.281 N 
ATOM     10  H   UNL     1       7.207  -1.056  23.224  0.00  0.00    +0.155 HD
ATOM     11  C   UNL     1       9.166  -1.694  23.308  0.00  0.00    +0.248 C 
ATOM     12  O   UNL     1       9.998  -2.595  23.255  0.00  0.00    -0.270 OA
BRANCH  11  13
ATOM     13  C   UNL     1       9.674  -0.300  23.211  0.00  0.00    +0.037 A 
ATOM     14  C   UNL     1      10.073   0.322  24.406  0.00  0.00    +0.013 A 
ATOM     15  C   UNL     1      10.505   1.647  24.408  0.00  0.00    +0.001 A 
ATOM     16  C   UNL     1      10.532   2.364  23.216  0.00  0.00    +0.000 A 
ATOM     17  C   UNL     1      10.127   1.757  22.024  0.00  0.00    +0.001 A 
ATOM     18  C   UNL     1       9.696   0.426  22.016  0.00  0.00    +0.013 A 
ENDBRANCH  11  13
ENDBRANCH   5   9
BRANCH   1  19
ATOM     19  O   UNL     1       5.334  -6.906  23.557  0.00  0.00    -0.505 OA
ATOM     20  H   UNL     1       6.048  -7.565  23.647  0.00  0.00    +0.292 HD
ENDBRANCH   1  19
TORSDOF 3
ENDMDL
MODEL 3
REMARK VINA RESULT:      -5.7      2.264      2.860
REMARK  Name = 
REMARK  3 active torsions:
REMARK  status: ('A' for Active; 'I' for Inactive)
REMARK    1  A    between atoms: O_1  and  C_2
REMARK    2  A    between atoms: C_6  and  N_7
REMARK    3  A    between atoms: C_8  and  C_10
REMARK                            x       y       z     vdW  Elec       q    Type
REMARK                         _______ _______ _______ _____ _____    ______ ____
ROOT
ATOM      1  C   UNL     1       7.958  -4.204  23.592  0.00  0.00    +0.145 A 
ATOM      2  C   UNL     1       8.994  -3.747  24.408  0.00  0.00    +0.062 A 
ATOM      3 BR   UNL     1       9.837  -4.898  25.662  0.00  0.00    -0.046 Br
ATOM      4  C   UNL     1       9.429  -2.416  24.332  0.00  0.00    +0.042 A 
ATOM      5  C   UNL     1       8.812  -1.519  23.448  0.00  0.00    +0.036 A 
ATOM      6  C   UNL     1       7.790  -1.994  22.616  0.00  0.00    +0.042 A 
ATOM      7  C   UNL     1       7.364  -3.322  22.692  0.00  0.00    +0.062 A 
ATOM      8 BR   UNL     1       5.961  -3.894  21.550  0.00  0.00    -0.046 Br
ENDROOT
BRANCH   5   9
ATOM      9  N   UNL     1       9.244  -0.167  23.437  0.00  0.00    -0.281 N 
ATOM     10  H   UNL     1       9.970   0.075  22.774  0.00  0.00    +0.155 HD
ATOM     11  C   UNL     1       8.904   0.782  24.391  0.00  0.00    +0.248 C 
ATOM     12  O   UNL     1       8.220   0.578  25.389  0.00  0.00    -0.270 OA
BRANCH  11  13
ATOM     13  C   UNL     1       9.472   2.146  24.229  0.00  0.00    +0.037 A 
ATOM     14  C   UNL     1       8.682   3.226  24.657  0.00  0.00    +0.013 A 
ATOM     15  C   UNL     1       9.118   4.538  24.486  0.00  0.00    +0.001 A 
ATOM     16  C   UNL     1      10.345   4.782  23.876  0.00  0.00    +0.000 A 
ATOM     17  C   UNL     1      11.134   3.715  23.437  0.00  0.00    +0.001 A 
ATOM     18  C   UNL     1      10.702   2.395  23.610  0.00  0.00    +0.013 A 
ENDBRANCH  11  13
ENDBRANCH   5   9
BRANCH   1  19
ATOM     19  O   UNL     1       7.537  -5.504  23.679  0.00  0.00    -0.505 OA
ATOM     20  H   UNL     1       7.839  -5.969  22.876  0.00  0.00    +0.292 HD
ENDBRANCH   1  19
TORSDOF 3
ENDMDL
MODEL 4
REMARK VINA RESULT:      -5.7      2.266      2.839
REMARK  Name = 
REMARK  3 active torsions:
REMARK  status: ('A' for Active; 'I' for Inactive)
REMARK    1  A    between atoms: O_1  and  C_2
REMARK    2  A    between atoms: C_6  and  N_7
REMARK    3  A    between atoms: C_8  and  C_10
REMARK                            x       y       z     vdW  Elec       q    Type
REMARK                         _______ _______ _______ _____ _____    ______ ____
ROOT
ATOM      1  C   UNL     1       5.007  -6.417  26.574  0.00  0.00    +0.145 A 
ATOM      2  C   UNL     1       5.913  -5.811  27.446  0.00  0.00    +0.062 A 
ATOM      3 BR   UNL     1       6.057  -6.368  29.256  0.00  0.00    -0.046 Br
ATOM      4  C   UNL     1       6.732  -4.760  27.008  0.00  0.00    +0.042 A 
ATOM      5  C   UNL     1       6.635  -4.290  25.690  0.00  0.00    +0.036 A 
ATOM      6  C   UNL     1       5.740  -4.922  24.817  0.00  0.00    +0.042 A 
ATOM      7  C   UNL     1       4.930  -5.971  25.257  0.00  0.00    +0.062 A 
ATOM      8 BR   UNL     1       3.726  -6.769  24.027  0.00  0.00    -0.046 Br
ENDROOT
BRANCH   5   9
ATOM      9  N   UNL     1       7.443  -3.191  25.298  0.00  0.00    -0.281 N 
ATOM     10  H   UNL     1       7.031  -2.269  25.379  0.00  0.00    +0.155 HD
ATOM     11  C   UNL     1       8.655  -3.295  24.630  0.00  0.00    +0.248 C 
ATOM     12  O   UNL     1       9.174  -4.340  24.252  0.00  0.00    -0.270 OA
BRANCH  11  13
ATOM     13  C   UNL     1       9.352  -2.029  24.279  0.00  0.00    +0.037 A 
ATOM     14  C   UNL     1       9.359  -1.012  25.247  0.00  0.00    +0.013 A 
ATOM     15  C   UNL     1       9.940   0.225  24.974  0.00  0.00    +0.001 A 
ATOM     16  C   UNL     1      10.511   0.457  23.726  0.00  0.00    +0.000 A 
ATOM     17  C   UNL     1      10.499  -0.546  22.753  0.00  0.00    +0.001 A 
ATOM     18  C   UNL     1       9.920  -1.791  23.024  0.00  0.00    +0.013 A 
ENDBRANCH  11  13
ENDBRANCH   5   9
BRANCH   1  19
ATOM     19  O   UNL     1       4.208  -7.438  27.015  0.00  0.00    -0.505 OA
ATOM     20  H   UNL     1       4.271  -7.467  27.989  0.00  0.00    +0.292 HD
ENDBRANCH   1  19
TORSDOF 3
ENDMDL
MODEL 5
REMARK VINA RESULT:      -5.6      2.277      3.554
REMARK  Name = 
REMARK  3 active torsions:
REMARK  status: ('A' for Active; 'I' for Inactive)
REMARK    1  A    between atoms: O_1  and  C_2
REMARK    2  A    between atoms: C_6  and  N_7
REMARK    3  A    between atoms: C_8  and  C_10
REMARK                            x       y       z     vdW  Elec       q    Type
REMARK                         _______ _______ _______ _____ _____    ______ ____
ROOT
ATOM      1  C   UNL     1       5.134  -6.389  26.666  0.00  0.00    +0.145 A 
ATOM      2  C   UNL     1       5.078  -5.898  25.360  0.00  0.00    +0.062 A 
ATOM      3 BR   UNL     1       3.978  -6.719  24.049  0.00  0.00    -0.046 Br
ATOM      4  C   UNL     1       5.851  -4.791  24.980  0.00  0.00    +0.042 A 
ATOM      5  C   UNL     1       6.706  -4.175  25.905  0.00  0.00    +0.036 A 
ATOM      6  C   UNL     1       6.736  -4.660  27.218  0.00  0.00    +0.042 A 
ATOM      7  C   UNL     1       5.962  -5.759  27.594  0.00  0.00    +0.062 A 
ATOM      8 BR   UNL     1       6.064  -6.377  29.384  0.00  0.00    -0.046 Br
ENDROOT
BRANCH   5   9
ATOM      9  N   UNL     1       7.511  -3.090  25.469  0.00  0.00    -0.281 N 
ATOM     10  H   UNL     1       7.139  -2.158  25.611  0.00  0.00    +0.155 HD
ATOM     11  C   UNL     1       8.652  -3.212  24.688  0.00  0.00    +0.248 C 
ATOM     12  O   UNL     1       9.099  -4.261  24.236  0.00  0.00    -0.270 OA
BRANCH  11  13
ATOM     13  C   UNL     1       9.355  -1.959  24.307  0.00  0.00    +0.037 A 
ATOM     14  C   UNL     1       9.361  -0.915  25.246  0.00  0.00    +0.013 A 
ATOM     15  C   UNL     1       9.947   0.312  24.942  0.00  0.00    +0.001 A 
ATOM     16  C   UNL     1      10.526   0.508  23.692  0.00  0.00    +0.000 A 
ATOM     17  C   UNL     1      10.517  -0.521  22.747  0.00  0.00    +0.001 A 
ATOM     18  C   UNL     1       9.932  -1.757  23.048  0.00  0.00    +0.013 A 
ENDBRANCH  11  13
ENDBRANCH   5   9
BRANCH   1  19
ATOM     19  O   UNL     1       4.381  -7.475  27.025  0.00  0.00    -0.505 OA
ATOM     20  H   UNL     1       4.939  -8.270  26.928  0.00  0.00    +0.292 HD
ENDBRANCH   1  19
TORSDOF 3
ENDMDL
MODEL 6
REMARK VINA RESULT:      -5.6      5.106      8.159
REMARK  Name = 
REMARK  3 active torsions:
REMARK  status: ('A' for Active; 'I' for Inactive)
REMARK    1  A    between atoms: O_1  and  C_2
REMARK    2  A    between atoms: C_6  and  N_7
REMARK    3  A    between atoms: C_8  and  C_10
REMARK                            x       y       z     vdW  Elec       q    Type
REMARK                         _______ _______ _______ _____ _____    ______ ____
ROOT
ATOM      1  C   UNL     1      10.124   5.354  24.064  0.00  0.00    +0.145 A 
ATOM      2  C   UNL     1       8.935   4.798  24.539  0.00  0.00    +0.062 A 
ATOM      3 BR   UNL     1       7.556   5.890  25.252  0.00  0.00    -0.046 Br
ATOM      4  C   UNL     1       8.736   3.409  24.514  0.00  0.00    +0.042 A 
ATOM      5  C   UNL     1       9.742   2.560  24.030  0.00  0.00    +0.036 A 
ATOM      6  C   UNL     1      10.920   3.130  23.534  0.00  0.00    +0.042 A 
ATOM      7  C   UNL     1      11.112   4.513  23.556  0.00  0.00    +0.062 A 
ATOM      8 BR   UNL     1      12.741   5.218  22.886  0.00  0.00    -0.046 Br
ENDROOT
BRANCH   5   9
ATOM      9  N   UNL     1       9.525   1.158  24.070  0.00  0.00    -0.281 N 
ATOM     10  H   UNL     1       9.944   0.652  24.841  0.00  0.00    +0.155 HD
ATOM     11  C   UNL     1       8.969   0.411  23.040  0.00  0.00    +0.248 C 
ATOM     12  O   UNL     1       8.626   0.848  21.946  0.00  0.00    -0.270 OA
BRANCH  11  13
ATOM     13  C   UNL     1       8.840  -1.055  23.252  0.00  0.00    +0.037 A 
ATOM     14  C   UNL     1       7.739  -1.694  22.659  0.00  0.00    +0.013 A 
ATOM     15  C   UNL     1       7.515  -3.054  22.859  0.00  0.00    +0.001 A 
ATOM     16  C   UNL     1       8.385  -3.786  23.662  0.00  0.00    +0.000 A 
ATOM     17  C   UNL     1       9.478  -3.156  24.264  0.00  0.00    +0.001 A 
ATOM     18  C   UNL     1       9.709  -1.790  24.064  0.00  0.00    +0.013 A 
ENDBRANCH  11  13
ENDBRANCH   5   9
BRANCH   1  19
ATOM     19  O   UNL     1      10.310   6.710  24.099  0.00  0.00    -0.505 OA
ATOM     20  H   UNL     1      11.056   6.894  24.702  0.00  0.00    +0.292 HD
ENDBRANCH   1  19
TORSDOF 3
ENDMDL
MODEL 7
REMARK VINA RESULT:      -5.6      1.450      2.887
REMARK  Name = 
REMARK  3 active torsions:
REMARK  status: ('A' for Active; 'I' for Inactive)
REMARK    1  A    between atoms: O_1  and  C_2
REMARK    2  A    between atoms: C_6  and  N_7
REMARK    3  A    between atoms: C_8  and  C_10
REMARK                            x       y       z     vdW  Elec       q    Type
REMARK                         _______ _______ _______ _____ _____    ______ ____
ROOT
ATOM      1  C   UNL     1       5.601  -5.635  25.497  0.00  0.00    +0.145 A 
ATOM      2  C   UNL     1       5.471  -5.067  24.229  0.00  0.00    +0.062 A 
ATOM      3 BR   UNL     1       4.449  -5.917  22.873  0.00  0.00    -0.046 Br
ATOM      4  C   UNL     1       6.108  -3.857  23.919  0.00  0.00    +0.042 A 
ATOM      5  C   UNL     1       6.903  -3.211  24.878  0.00  0.00    +0.036 A 
ATOM      6  C   UNL     1       7.007  -3.777  26.154  0.00  0.00    +0.042 A 
ATOM      7  C   UNL     1       6.367  -4.980  26.459  0.00  0.00    +0.062 A 
ATOM      8 BR   UNL     1       6.566  -5.700  28.203  0.00  0.00    -0.046 Br
ENDROOT
BRANCH   5   9
ATOM      9  N   UNL     1       7.574  -2.015  24.510  0.00  0.00    -0.281 N 
ATOM     10  H   UNL     1       7.001  -1.190  24.385  0.00  0.00    +0.155 HD
ATOM     11  C   UNL     1       8.903  -1.940  24.115  0.00  0.00    +0.248 C 
ATOM     12  O   UNL     1       9.665  -2.893  23.990  0.00  0.00    -0.270 OA
BRANCH  11  13
ATOM     13  C   UNL     1       9.429  -0.601  23.743  0.00  0.00    +0.037 A 
ATOM     14  C   UNL     1       9.234  -0.180  22.417  0.00  0.00    +0.013 A 
ATOM     15  C   UNL     1       9.750   1.036  21.974  0.00  0.00    +0.001 A 
ATOM     16  C   UNL     1      10.472   1.839  22.852  0.00  0.00    +0.000 A 
ATOM     17  C   UNL     1      10.679   1.425  24.171  0.00  0.00    +0.001 A 
ATOM     18  C   UNL     1      10.161   0.205  24.622  0.00  0.00    +0.013 A 
ENDBRANCH  11  13
ENDBRANCH   5   9
BRANCH   1  19
ATOM     19  O   UNL     1       4.980  -6.821  25.787  0.00  0.00    -0.505 OA
ATOM     20  H   UNL     1       5.661  -7.520  25.795  0.00  0.00    +0.292 HD
ENDBRANCH   1  19
TORSDOF 3
ENDMDL
MODEL 8
REMARK VINA RESULT:      -5.5      5.166      8.390
REMARK  Name = 
REMARK  3 active torsions:
REMARK  status: ('A' for Active; 'I' for Inactive)
REMARK    1  A    between atoms: O_1  and  C_2
REMARK    2  A    between atoms: C_6  and  N_7
REMARK    3  A    between atoms: C_8  and  C_10
REMARK                            x       y       z     vdW  Elec       q    Type
REMARK                         _______ _______ _______ _____ _____    ______ ____
ROOT
ATOM      1  C   UNL     1      10.288   5.466  24.246  0.00  0.00    +0.145 A 
ATOM      2  C   UNL     1      11.156   4.602  23.575  0.00  0.00    +0.062 A 
ATOM      3 BR   UNL     1      12.829   5.209  22.913  0.00  0.00    -0.046 Br
ATOM      4  C   UNL     1      10.803   3.262  23.360  0.00  0.00    +0.042 A 
ATOM      5  C   UNL     1       9.562   2.778  23.799  0.00  0.00    +0.036 A 
ATOM      6  C   UNL     1       8.711   3.647  24.492  0.00  0.00    +0.042 A 
ATOM      7  C   UNL     1       9.068   4.979  24.709  0.00  0.00    +0.062 A 
ATOM      8 BR   UNL     1       7.858   6.107  25.638  0.00  0.00    -0.046 Br
ENDROOT
BRANCH   5   9
ATOM      9  N   UNL     1       9.219   1.430  23.517  0.00  0.00    -0.281 N 
ATOM     10  H   UNL     1       8.481   1.278  22.840  0.00  0.00    +0.155 HD
ATOM     11  C   UNL     1       9.665   0.330  24.237  0.00  0.00    +0.248 C 
ATOM     12  O   UNL     1      10.380   0.371  25.234  0.00  0.00    -0.270 OA
BRANCH  11  13
ATOM     13  C   UNL     1       9.181  -1.009  23.808  0.00  0.00    +0.037 A 
ATOM     14  C   UNL     1       8.361  -1.060  22.669  0.00  0.00    +0.013 A 
ATOM     15  C   UNL     1       7.819  -2.268  22.237  0.00  0.00    +0.001 A 
ATOM     16  C   UNL     1       8.085  -3.436  22.946  0.00  0.00    +0.000 A 
ATOM     17  C   UNL     1       8.891  -3.393  24.087  0.00  0.00    +0.001 A 
ATOM     18  C   UNL     1       9.442  -2.183  24.523  0.00  0.00    +0.013 A 
ENDBRANCH  11  13
ENDBRANCH   5   9
BRANCH   1  19
ATOM     19  O   UNL     1      10.640   6.775  24.445  0.00  0.00    -0.505 OA
ATOM     20  H   UNL     1      10.215   7.307  23.746  0.00  0.00    +0.292 HD
ENDBRANCH   1  19
TORSDOF 3
ENDMDL
MODEL 9
REMARK VINA RESULT:      -5.5      4.959      8.020
REMARK  Name = 
REMARK  3 active torsions:
REMARK  status: ('A' for Active; 'I' for Inactive)
REMARK    1  A    between atoms: O_1  and  C_2
REMARK    2  A    between atoms: C_6  and  N_7
REMARK    3  A    between atoms: C_8  and  C_10
REMARK                            x       y       z     vdW  Elec       q    Type
REMARK                         _______ _______ _______ _____ _____    ______ ____
ROOT
ATOM      1  C   UNL     1       9.582   5.102  23.584  0.00  0.00    +0.145 A 
ATOM      2  C   UNL     1      10.670   4.228  23.536  0.00  0.00    +0.062 A 
ATOM      3 BR   UNL     1      12.432   4.869  23.238  0.00  0.00    -0.046 Br
ATOM      4  C   UNL     1      10.483   2.847  23.692  0.00  0.00    +0.042 A 
ATOM      5  C   UNL     1       9.195   2.324  23.877  0.00  0.00    +0.036 A 
ATOM      6  C   UNL     1       8.115   3.212  23.949  0.00  0.00    +0.042 A 
ATOM      7  C   UNL     1       8.306   4.587  23.798  0.00  0.00    +0.062 A 
ATOM      8 BR   UNL     1       6.796   5.731  23.887  0.00  0.00    -0.046 Br
ENDROOT
BRANCH   5   9
ATOM      9  N   UNL     1       9.040   0.917  23.978  0.00  0.00    -0.281 N 
ATOM     10  H   UNL     1       9.158   0.509  24.898  0.00  0.00    +0.155 HD
ATOM     11  C   UNL     1       8.949   0.049  22.899  0.00  0.00    +0.248 C 
ATOM     12  O   UNL     1       9.027   0.369  21.717  0.00  0.00    -0.270 OA
BRANCH  11  13
ATOM     13  C   UNL     1       8.813  -1.401  23.198  0.00  0.00    +0.037 A 
ATOM     14  C   UNL     1       7.769  -2.092  22.562  0.00  0.00    +0.013 A 
ATOM     15  C   UNL     1       7.539  -3.439  22.835  0.00  0.00    +0.001 A 
ATOM     16  C   UNL     1       8.346  -4.104  23.753  0.00  0.00    +0.000 A 
ATOM     17  C   UNL     1       9.381  -3.422  24.398  0.00  0.00    +0.001 A 
ATOM     18  C   UNL     1       9.619  -2.070  24.125  0.00  0.00    +0.013 A 
ENDBRANCH  11  13
ENDBRANCH   5   9
BRANCH   1  19
ATOM     19  O   UNL     1       9.776   6.449  23.425  0.00  0.00    -0.505 OA
ATOM     20  H   UNL     1       9.318   6.721  22.607  0.00  0.00    +0.292 HD
ENDBRANCH   1  19
TORSDOF 3
ENDMDL
