MODEL 1
REMARK VINA RESULT:      -7.8      0.000      0.000
REMARK  Name = 
REMARK  3 active torsions:
REMARK  status: ('A' for Active; 'I' for Inactive)
REMARK    1  A    between atoms: C_5  and  C_8
REMARK    2  A    between atoms: C_8  and  C_14
REMARK    3  A    between atoms: C_17  and  C_20
REMARK                            x       y       z     vdW  Elec       q    Type
REMARK                         _______ _______ _______ _____ _____    ______ ____
ROOT
ATOM      1  C   UNL     1       7.022  -2.610  23.247  0.00  0.00    -0.037 A 
ATOM      2  C   UNL     1       6.486  -1.583  24.040  0.00  0.00    +0.005 A 
ATOM      3  C   UNL     1       7.047  -0.295  24.051  0.00  0.00    +0.010 A 
ATOM      4  C   UNL     1       8.168   0.031  23.274  0.00  0.00    +0.003 A 
ATOM      5  C   UNL     1       8.678  -0.983  22.452  0.00  0.00    +0.010 A 
ATOM      6  C   UNL     1       8.118  -2.267  22.434  0.00  0.00    +0.005 A 
ENDROOT
BRANCH   4   7
ATOM      7  C   UNL     1       8.792   1.358  23.369  0.00  0.00    +0.102 A 
ATOM      8  N   UNL     1      10.075   1.434  23.843  0.00  0.00    -0.233 NA
ATOM      9  C   UNL     1      10.682   2.640  23.880  0.00  0.00    +0.224 A 
ATOM     10  N   UNL     1      10.177   3.834  23.517  0.00  0.00    -0.216 NA
ATOM     11  C   UNL     1       8.918   3.707  23.078  0.00  0.00    +0.161 A 
ATOM     12  N   UNL     1       8.109   4.711  22.635  0.00  0.00    -0.329 N 
ATOM     13  H   UNL     1       8.366   5.685  22.581  0.00  0.00    +0.168 HD
ATOM     14  C   UNL     1       6.913   4.153  22.280  0.00  0.00    +0.198 A 
ATOM     15  N   UNL     1       6.909   2.851  22.466  0.00  0.00    -0.232 NA
ATOM     16  C   UNL     1       8.162   2.548  22.969  0.00  0.00    +0.134 A 
ENDBRANCH   4   7
BRANCH   1  17
ATOM     17  C   UNL     1       6.505  -4.078  23.285  0.00  0.00    +0.023 C 
ATOM     18  C   UNL     1       5.082  -4.209  22.647  0.00  0.00    +0.031 C 
ATOM     19  C   UNL     1       4.612  -5.657  22.522  0.00  0.00    +0.082 C 
ATOM     20  N   UNL     1       5.534  -6.432  21.698  0.00  0.00    -0.316 NA
ATOM     21  H   UNL     1       5.212  -7.399  21.653  0.00  0.00    +0.122 HD
ATOM     22  C   UNL     1       6.891  -6.396  22.232  0.00  0.00    +0.082 C 
ATOM     23  C   UNL     1       7.413  -4.960  22.370  0.00  0.00    +0.031 C 
BRANCH  17  28
ATOM     24 CL   UNL     1       6.525  -6.253  28.998  0.00  0.00    -0.084 Cl
ATOM     25  C   UNL     1       6.517  -5.581  27.414  0.00  0.00    +0.041 A 
ATOM     26  C   UNL     1       7.717  -5.337  26.756  0.00  0.00    +0.020 A 
ATOM     27  C   UNL     1       7.709  -4.836  25.449  0.00  0.00    +0.006 A 
ATOM     28  C   UNL     1       6.505  -4.542  24.780  0.00  0.00    -0.037 A 
ATOM     29  C   UNL     1       5.308  -4.789  25.484  0.00  0.00    +0.006 A 
ATOM     30  C   UNL     1       5.311  -5.304  26.786  0.00  0.00    +0.020 A 
ENDBRANCH  17  28
ENDBRANCH   1  17
TORSDOF 3
ENDMDL
MODEL 2
REMARK VINA RESULT:      -7.6      2.629      3.708
REMARK  Name = 
REMARK  3 active torsions:
REMARK  status: ('A' for Active; 'I' for Inactive)
REMARK    1  A    between atoms: C_5  and  C_8
REMARK    2  A    between atoms: C_8  and  C_14
REMARK    3  A    between atoms: C_17  and  C_20
REMARK                            x       y       z     vdW  Elec       q    Type
REMARK                         _______ _______ _______ _____ _____    ______ ____
ROOT
ATOM      1  C   UNL     1       7.847  -1.826  25.238  0.00  0.00    -0.037 A 
ATOM      2  C   UNL     1       7.218  -0.969  24.321  0.00  0.00    +0.005 A 
ATOM      3  C   UNL     1       7.740   0.301  24.027  0.00  0.00    +0.010 A 
ATOM      4  C   UNL     1       8.913   0.779  24.631  0.00  0.00    +0.003 A 
ATOM      5  C   UNL     1       9.563  -0.093  25.516  0.00  0.00    +0.010 A 
ATOM      6  C   UNL     1       9.048  -1.363  25.808  0.00  0.00    +0.005 A 
ENDROOT
BRANCH   4   7
ATOM      7  C   UNL     1       9.391   2.144  24.376  0.00  0.00    +0.102 A 
ATOM      8  N   UNL     1      10.528   2.300  23.628  0.00  0.00    -0.233 NA
ATOM      9  C   UNL     1      10.945   3.551  23.336  0.00  0.00    +0.224 A 
ATOM     10  N   UNL     1      10.388   4.719  23.707  0.00  0.00    -0.216 NA
ATOM     11  C   UNL     1       9.292   4.511  24.449  0.00  0.00    +0.161 A 
ATOM     12  N   UNL     1       8.488   5.469  24.991  0.00  0.00    -0.329 N 
ATOM     13  H   UNL     1       8.621   6.464  24.894  0.00  0.00    +0.168 HD
ATOM     14  C   UNL     1       7.485   4.832  25.668  0.00  0.00    +0.198 A 
ATOM     15  N   UNL     1       7.598   3.525  25.589  0.00  0.00    -0.232 NA
ATOM     16  C   UNL     1       8.731   3.300  24.826  0.00  0.00    +0.134 A 
ENDBRANCH   4   7
BRANCH   1  17
ATOM     17  C   UNL     1       7.249  -3.195  25.679  0.00  0.00    +0.023 C 
ATOM     18  C   UNL     1       8.240  -3.997  26.586  0.00  0.00    +0.031 C 
ATOM     19  C   UNL     1       7.626  -5.269  27.167  0.00  0.00    +0.082 C 
ATOM     20  N   UNL     1       6.451  -4.955  27.974  0.00  0.00    -0.316 NA
ATOM     21  H   UNL     1       6.044  -5.822  28.327  0.00  0.00    +0.122 HD
ATOM     22  C   UNL     1       5.448  -4.228  27.202  0.00  0.00    +0.082 C 
ATOM     23  C   UNL     1       6.016  -2.935  26.603  0.00  0.00    +0.031 C 
BRANCH  17  28
ATOM     24 CL   UNL     1       5.971  -6.019  20.411  0.00  0.00    -0.084 Cl
ATOM     25  C   UNL     1       6.308  -5.276  21.925  0.00  0.00    +0.041 A 
ATOM     26  C   UNL     1       7.570  -5.399  22.495  0.00  0.00    +0.020 A 
ATOM     27  C   UNL     1       7.859  -4.753  23.703  0.00  0.00    +0.006 A 
ATOM     28  C   UNL     1       6.887  -3.993  24.383  0.00  0.00    -0.037 A 
ATOM     29  C   UNL     1       5.614  -3.902  23.782  0.00  0.00    +0.006 A 
ATOM     30  C   UNL     1       5.326  -4.534  22.567  0.00  0.00    +0.020 A 
ENDBRANCH  17  28
ENDBRANCH   1  17
TORSDOF 3
ENDMDL
MODEL 3
REMARK VINA RESULT:      -7.5      2.234      3.632
REMARK  Name = 
REMARK  3 active torsions:
REMARK  status: ('A' for Active; 'I' for Inactive)
REMARK    1  A    between atoms: C_5  and  C_8
REMARK    2  A    between atoms: C_8  and  C_14
REMARK    3  A    between atoms: C_17  and  C_20
REMARK                            x       y       z     vdW  Elec       q    Type
REMARK                         _______ _______ _______ _____ _____    ______ ____
ROOT
ATOM      1  C   UNL     1       8.024  -1.721  24.687  0.00  0.00    -0.037 A 
ATOM      2  C   UNL     1       7.761  -1.158  23.428  0.00  0.00    +0.005 A 
ATOM      3  C   UNL     1       7.886   0.222  23.201  0.00  0.00    +0.010 A 
ATOM      4  C   UNL     1       8.278   1.107  24.215  0.00  0.00    +0.003 A 
ATOM      5  C   UNL     1       8.580   0.540  25.461  0.00  0.00    +0.010 A 
ATOM      6  C   UNL     1       8.462  -0.838  25.690  0.00  0.00    +0.005 A 
ENDROOT
BRANCH   4   7
ATOM      7  C   UNL     1       8.315   2.557  23.980  0.00  0.00    +0.102 A 
ATOM      8  N   UNL     1       7.134   3.249  24.034  0.00  0.00    -0.233 NA
ATOM      9  C   UNL     1       7.161   4.590  23.878  0.00  0.00    +0.224 A 
ATOM     10  N   UNL     1       8.229   5.377  23.650  0.00  0.00    -0.216 NA
ATOM     11  C   UNL     1       9.353   4.652  23.590  0.00  0.00    +0.161 A 
ATOM     12  N   UNL     1      10.612   5.126  23.370  0.00  0.00    -0.329 N 
ATOM     13  H   UNL     1      10.853   6.095  23.229  0.00  0.00    +0.168 HD
ATOM     14  C   UNL     1      11.466   4.058  23.388  0.00  0.00    +0.198 A 
ATOM     15  N   UNL     1      10.828   2.929  23.608  0.00  0.00    -0.232 NA
ATOM     16  C   UNL     1       9.495   3.280  23.737  0.00  0.00    +0.134 A 
ENDBRANCH   4   7
BRANCH   1  17
ATOM     17  C   UNL     1       7.794  -3.226  25.016  0.00  0.00    +0.023 C 
ATOM     18  C   UNL     1       8.887  -4.137  24.364  0.00  0.00    +0.031 C 
ATOM     19  C   UNL     1       8.786  -5.598  24.796  0.00  0.00    +0.082 C 
ATOM     20  N   UNL     1       8.920  -5.721  26.244  0.00  0.00    -0.316 NA
ATOM     21  H   UNL     1       8.821  -6.701  26.509  0.00  0.00    +0.122 HD
ATOM     22  C   UNL     1       7.918  -4.925  26.946  0.00  0.00    +0.082 C 
ATOM     23  C   UNL     1       7.984  -3.445  26.550  0.00  0.00    +0.031 C 
BRANCH  17  28
ATOM     24 CL   UNL     1       2.204  -5.010  23.301  0.00  0.00    -0.084 Cl
ATOM     25  C   UNL     1       3.773  -4.457  23.742  0.00  0.00    +0.041 A 
ATOM     26  C   UNL     1       3.931  -3.617  24.838  0.00  0.00    +0.020 A 
ATOM     27  C   UNL     1       5.213  -3.208  25.226  0.00  0.00    +0.006 A 
ATOM     28  C   UNL     1       6.361  -3.606  24.515  0.00  0.00    -0.037 A 
ATOM     29  C   UNL     1       6.160  -4.448  23.401  0.00  0.00    +0.006 A 
ATOM     30  C   UNL     1       4.882  -4.871  23.017  0.00  0.00    +0.020 A 
ENDBRANCH  17  28
ENDBRANCH   1  17
TORSDOF 3
ENDMDL
MODEL 4
REMARK VINA RESULT:      -7.4      2.647      3.916
REMARK  Name = 
REMARK  3 active torsions:
REMARK  status: ('A' for Active; 'I' for Inactive)
REMARK    1  A    between atoms: C_5  and  C_8
REMARK    2  A    between atoms: C_8  and  C_14
REMARK    3  A    between atoms: C_17  and  C_20
REMARK                            x       y       z     vdW  Elec       q    Type
REMARK                         _______ _______ _______ _____ _____    ______ ____
ROOT
ATOM      1  C   UNL     1       7.421  -1.772  25.451  0.00  0.00    -0.037 A 
ATOM      2  C   UNL     1       6.444  -0.877  24.986  0.00  0.00    +0.005 A 
ATOM      3  C   UNL     1       6.733   0.482  24.781  0.00  0.00    +0.010 A 
ATOM      4  C   UNL     1       8.007   1.015  25.028  0.00  0.00    +0.003 A 
ATOM      5  C   UNL     1       8.993   0.113  25.453  0.00  0.00    +0.010 A 
ATOM      6  C   UNL     1       8.710  -1.245  25.654  0.00  0.00    +0.005 A 
ENDROOT
BRANCH   4   7
ATOM      7  C   UNL     1       8.262   2.455  24.892  0.00  0.00    +0.102 A 
ATOM      8  N   UNL     1       7.381   3.324  25.478  0.00  0.00    -0.233 NA
ATOM      9  C   UNL     1       7.635   4.649  25.412  0.00  0.00    +0.224 A 
ATOM     10  N   UNL     1       8.669   5.266  24.811  0.00  0.00    -0.216 NA
ATOM     11  C   UNL     1       9.490   4.375  24.240  0.00  0.00    +0.161 A 
ATOM     12  N   UNL     1      10.631   4.653  23.546  0.00  0.00    -0.329 N 
ATOM     13  H   UNL     1      11.001   5.576  23.380  0.00  0.00    +0.168 HD
ATOM     14  C   UNL     1      11.166   3.463  23.137  0.00  0.00    +0.198 A 
ATOM     15  N   UNL     1      10.439   2.441  23.530  0.00  0.00    -0.232 NA
ATOM     16  C   UNL     1       9.377   2.992  24.226  0.00  0.00    +0.134 A 
ENDBRANCH   4   7
BRANCH   1  17
ATOM     17  C   UNL     1       7.121  -3.260  25.799  0.00  0.00    +0.023 C 
ATOM     18  C   UNL     1       8.311  -3.929  26.565  0.00  0.00    +0.031 C 
ATOM     19  C   UNL     1       7.988  -5.336  27.062  0.00  0.00    +0.082 C 
ATOM     20  N   UNL     1       6.842  -5.317  27.965  0.00  0.00    -0.316 NA
ATOM     21  H   UNL     1       6.631  -6.271  28.260  0.00  0.00    +0.122 HD
ATOM     22  C   UNL     1       5.666  -4.735  27.327  0.00  0.00    +0.082 C 
ATOM     23  C   UNL     1       5.937  -3.315  26.816  0.00  0.00    +0.031 C 
BRANCH  17  28
ATOM     24 CL   UNL     1       6.021  -5.859  20.376  0.00  0.00    -0.084 Cl
ATOM     25  C   UNL     1       6.314  -5.183  21.931  0.00  0.00    +0.041 A 
ATOM     26  C   UNL     1       7.592  -5.219  22.476  0.00  0.00    +0.020 A 
ATOM     27  C   UNL     1       7.840  -4.626  23.720  0.00  0.00    +0.006 A 
ATOM     28  C   UNL     1       6.813  -4.007  24.459  0.00  0.00    -0.037 A 
ATOM     29  C   UNL     1       5.527  -4.001  23.881  0.00  0.00    +0.006 A 
ATOM     30  C   UNL     1       5.277  -4.581  22.631  0.00  0.00    +0.020 A 
ENDBRANCH  17  28
ENDBRANCH   1  17
TORSDOF 3
ENDMDL
MODEL 5
REMARK VINA RESULT:      -7.3      1.274      1.705
REMARK  Name = 
REMARK  3 active torsions:
REMARK  status: ('A' for Active; 'I' for Inactive)
REMARK    1  A    between atoms: C_5  and  C_8
REMARK    2  A    between atoms: C_8  and  C_14
REMARK    3  A    between atoms: C_17  and  C_20
REMARK                            x       y       z     vdW  Elec       q    Type
REMARK                         _______ _______ _______ _____ _____    ______ ____
ROOT
ATOM      1  C   UNL     1       7.234  -2.452  23.886  0.00  0.00    -0.037 A 
ATOM      2  C   UNL     1       8.510  -2.216  24.423  0.00  0.00    +0.005 A 
ATOM      3  C   UNL     1       9.060  -0.925  24.469  0.00  0.00    +0.010 A 
ATOM      4  C   UNL     1       8.366   0.193  23.983  0.00  0.00    +0.003 A 
ATOM      5  C   UNL     1       7.077  -0.036  23.483  0.00  0.00    +0.010 A 
ATOM      6  C   UNL     1       6.523  -1.323  23.441  0.00  0.00    +0.005 A 
ENDROOT
BRANCH   4   7
ATOM      7  C   UNL     1       8.996   1.520  23.959  0.00  0.00    +0.102 A 
ATOM      8  N   UNL     1      10.107   1.692  23.176  0.00  0.00    -0.233 NA
ATOM      9  C   UNL     1      10.661   2.921  23.098  0.00  0.00    +0.224 A 
ATOM     10  N   UNL     1      10.269   4.049  23.721  0.00  0.00    -0.216 NA
ATOM     11  C   UNL     1       9.193   3.823  24.485  0.00  0.00    +0.161 A 
ATOM     12  N   UNL     1       8.539   4.740  25.254  0.00  0.00    -0.329 N 
ATOM     13  H   UNL     1       8.788   5.713  25.338  0.00  0.00    +0.168 HD
ATOM     14  C   UNL     1       7.498   4.098  25.866  0.00  0.00    +0.198 A 
ATOM     15  N   UNL     1       7.445   2.827  25.533  0.00  0.00    -0.232 NA
ATOM     16  C   UNL     1       8.505   2.631  24.664  0.00  0.00    +0.134 A 
ENDBRANCH   4   7
BRANCH   1  17
ATOM     17  C   UNL     1       6.630  -3.877  23.712  0.00  0.00    +0.023 C 
ATOM     18  C   UNL     1       5.270  -3.840  22.938  0.00  0.00    +0.031 C 
ATOM     19  C   UNL     1       4.729  -5.230  22.610  0.00  0.00    +0.082 C 
ATOM     20  N   UNL     1       5.679  -5.975  21.790  0.00  0.00    -0.316 NA
ATOM     21  H   UNL     1       5.307  -6.908  21.609  0.00  0.00    +0.122 HD
ATOM     22  C   UNL     1       6.978  -6.090  22.445  0.00  0.00    +0.082 C 
ATOM     23  C   UNL     1       7.568  -4.717  22.789  0.00  0.00    +0.031 C 
BRANCH  17  28
ATOM     24 CL   UNL     1       6.068  -5.957  29.433  0.00  0.00    -0.084 Cl
ATOM     25  C   UNL     1       6.206  -5.429  27.801  0.00  0.00    +0.041 A 
ATOM     26  C   UNL     1       5.146  -4.769  27.191  0.00  0.00    +0.020 A 
ATOM     27  C   UNL     1       5.276  -4.297  25.880  0.00  0.00    +0.006 A 
ATOM     28  C   UNL     1       6.458  -4.495  25.139  0.00  0.00    -0.037 A 
ATOM     29  C   UNL     1       7.507  -5.181  25.786  0.00  0.00    +0.006 A 
ATOM     30  C   UNL     1       7.386  -5.642  27.102  0.00  0.00    +0.020 A 
ENDBRANCH  17  28
ENDBRANCH   1  17
TORSDOF 3
ENDMDL
MODEL 6
REMARK VINA RESULT:      -7.1      3.350      8.124
REMARK  Name = 
REMARK  3 active torsions:
REMARK  status: ('A' for Active; 'I' for Inactive)
REMARK    1  A    between atoms: C_5  and  C_8
REMARK    2  A    between atoms: C_8  and  C_14
REMARK    3  A    between atoms: C_17  and  C_20
REMARK                            x       y       z     vdW  Elec       q    Type
REMARK                         _______ _______ _______ _____ _____    ______ ____
ROOT
ATOM      1  C   UNL     1       8.050  -0.737  24.398  0.00  0.00    -0.037 A 
ATOM      2  C   UNL     1       8.530  -1.192  25.637  0.00  0.00    +0.005 A 
ATOM      3  C   UNL     1       8.090  -2.403  26.194  0.00  0.00    +0.010 A 
ATOM      4  C   UNL     1       7.152  -3.220  25.546  0.00  0.00    +0.003 A 
ATOM      5  C   UNL     1       6.704  -2.786  24.290  0.00  0.00    +0.010 A 
ATOM      6  C   UNL     1       7.145  -1.580  23.728  0.00  0.00    +0.005 A 
ENDROOT
BRANCH   4   7
ATOM      7  C   UNL     1       6.640  -4.437  26.188  0.00  0.00    +0.102 A 
ATOM      8  N   UNL     1       6.990  -4.676  27.490  0.00  0.00    -0.233 NA
ATOM      9  C   UNL     1       6.478  -5.760  28.112  0.00  0.00    +0.224 A 
ATOM     10  N   UNL     1       5.648  -6.691  27.605  0.00  0.00    -0.216 NA
ATOM     11  C   UNL     1       5.350  -6.422  26.327  0.00  0.00    +0.161 A 
ATOM     12  N   UNL     1       4.542  -7.157  25.512  0.00  0.00    -0.329 N 
ATOM     13  H   UNL     1       4.060  -8.002  25.777  0.00  0.00    +0.168 HD
ATOM     14  C   UNL     1       4.506  -6.534  24.295  0.00  0.00    +0.198 A 
ATOM     15  N   UNL     1       5.240  -5.443  24.285  0.00  0.00    -0.232 NA
ATOM     16  C   UNL     1       5.782  -5.353  25.555  0.00  0.00    +0.134 A 
ENDBRANCH   4   7
BRANCH   1  17
ATOM     17  C   UNL     1       8.423   0.649  23.793  0.00  0.00    +0.023 C 
ATOM     18  C   UNL     1       9.939   0.983  23.997  0.00  0.00    +0.031 C 
ATOM     19  C   UNL     1      10.374   2.257  23.278  0.00  0.00    +0.082 C 
ATOM     20  N   UNL     1      10.140   2.147  21.842  0.00  0.00    -0.316 NA
ATOM     21  H   UNL     1      10.413   3.021  21.389  0.00  0.00    +0.122 HD
ATOM     22  C   UNL     1       8.739   1.865  21.546  0.00  0.00    +0.082 C 
ATOM     23  C   UNL     1       8.255   0.587  22.241  0.00  0.00    +0.031 C 
BRANCH  17  28
ATOM     24 CL   UNL     1       4.745   4.580  26.689  0.00  0.00    -0.084 Cl
ATOM     25  C   UNL     1       5.796   3.521  25.832  0.00  0.00    +0.041 A 
ATOM     26  C   UNL     1       7.118   3.375  26.236  0.00  0.00    +0.020 A 
ATOM     27  C   UNL     1       7.959   2.476  25.568  0.00  0.00    +0.006 A 
ATOM     28  C   UNL     1       7.506   1.723  24.468  0.00  0.00    -0.037 A 
ATOM     29  C   UNL     1       6.163   1.906  24.078  0.00  0.00    +0.006 A 
ATOM     30  C   UNL     1       5.315   2.793  24.752  0.00  0.00    +0.020 A 
ENDBRANCH  17  28
ENDBRANCH   1  17
TORSDOF 3
ENDMDL
MODEL 7
REMARK VINA RESULT:      -7.1      1.992      2.568
REMARK  Name = 
REMARK  3 active torsions:
REMARK  status: ('A' for Active; 'I' for Inactive)
REMARK    1  A    between atoms: C_5  and  C_8
REMARK    2  A    between atoms: C_8  and  C_14
REMARK    3  A    between atoms: C_17  and  C_20
REMARK                            x       y       z     vdW  Elec       q    Type
REMARK                         _______ _______ _______ _____ _____    ______ ____
ROOT
ATOM      1  C   UNL     1       8.256  -1.295  24.195  0.00  0.00    -0.037 A 
ATOM      2  C   UNL     1       9.194  -0.794  25.112  0.00  0.00    +0.005 A 
ATOM      3  C   UNL     1       9.674   0.523  25.024  0.00  0.00    +0.010 A 
ATOM      4  C   UNL     1       9.244   1.404  24.021  0.00  0.00    +0.003 A 
ATOM      5  C   UNL     1       8.278   0.917  23.130  0.00  0.00    +0.010 A 
ATOM      6  C   UNL     1       7.792  -0.395  23.217  0.00  0.00    +0.005 A 
ENDROOT
BRANCH   4   7
ATOM      7  C   UNL     1       9.826   2.746  23.894  0.00  0.00    +0.102 A 
ATOM      8  N   UNL     1      11.134   2.847  23.500  0.00  0.00    -0.233 NA
ATOM      9  C   UNL     1      11.665   4.076  23.322  0.00  0.00    +0.224 A 
ATOM     10  N   UNL     1      11.070   5.270  23.502  0.00  0.00    -0.216 NA
ATOM     11  C   UNL     1       9.801   5.117  23.902  0.00  0.00    +0.161 A 
ATOM     12  N   UNL     1       8.913   6.113  24.179  0.00  0.00    -0.329 N 
ATOM     13  H   UNL     1       9.105   7.101  24.110  0.00  0.00    +0.168 HD
ATOM     14  C   UNL     1       7.735   5.526  24.549  0.00  0.00    +0.198 A 
ATOM     15  N   UNL     1       7.816   4.214  24.524  0.00  0.00    -0.232 NA
ATOM     16  C   UNL     1       9.110   3.934  24.120  0.00  0.00    +0.134 A 
ENDBRANCH   4   7
BRANCH   1  17
ATOM     17  C   UNL     1       7.778  -2.777  24.184  0.00  0.00    +0.023 C 
ATOM     18  C   UNL     1       7.458  -3.274  22.735  0.00  0.00    +0.031 C 
ATOM     19  C   UNL     1       7.142  -4.766  22.668  0.00  0.00    +0.082 C 
ATOM     20  N   UNL     1       8.264  -5.556  23.164  0.00  0.00    -0.316 NA
ATOM     21  H   UNL     1       8.017  -6.546  23.135  0.00  0.00    +0.122 HD
ATOM     22  C   UNL     1       8.621  -5.185  24.529  0.00  0.00    +0.082 C 
ATOM     23  C   UNL     1       8.955  -3.693  24.647  0.00  0.00    +0.031 C 
BRANCH  17  28
ATOM     24 CL   UNL     1       2.868  -3.545  27.744  0.00  0.00    -0.084 Cl
ATOM     25  C   UNL     1       4.249  -3.265  26.756  0.00  0.00    +0.041 A 
ATOM     26  C   UNL     1       5.525  -3.407  27.287  0.00  0.00    +0.020 A 
ATOM     27  C   UNL     1       6.648  -3.227  26.470  0.00  0.00    +0.006 A 
ATOM     28  C   UNL     1       6.522  -2.877  25.112  0.00  0.00    -0.037 A 
ATOM     29  C   UNL     1       5.212  -2.728  24.611  0.00  0.00    +0.006 A 
ATOM     30  C   UNL     1       4.086  -2.921  25.421  0.00  0.00    +0.020 A 
ENDBRANCH  17  28
ENDBRANCH   1  17
TORSDOF 3
ENDMDL
MODEL 8
REMARK VINA RESULT:      -7.0      2.221      3.390
REMARK  Name = 
REMARK  3 active torsions:
REMARK  status: ('A' for Active; 'I' for Inactive)
REMARK    1  A    between atoms: C_5  and  C_8
REMARK    2  A    between atoms: C_8  and  C_14
REMARK    3  A    between atoms: C_17  and  C_20
REMARK                            x       y       z     vdW  Elec       q    Type
REMARK                         _______ _______ _______ _____ _____    ______ ____
ROOT
ATOM      1  C   UNL     1       7.844  -1.793  24.652  0.00  0.00    -0.037 A 
ATOM      2  C   UNL     1       8.038  -1.309  23.348  0.00  0.00    +0.005 A 
ATOM      3  C   UNL     1       8.089   0.067  23.076  0.00  0.00    +0.010 A 
ATOM      4  C   UNL     1       7.951   1.029  24.088  0.00  0.00    +0.003 A 
ATOM      5  C   UNL     1       7.798   0.546  25.395  0.00  0.00    +0.010 A 
ATOM      6  C   UNL     1       7.752  -0.827  25.671  0.00  0.00    +0.005 A 
ENDROOT
BRANCH   4   7
ATOM      7  C   UNL     1       7.918   2.462  23.768  0.00  0.00    +0.102 A 
ATOM      8  N   UNL     1       9.060   3.193  23.964  0.00  0.00    -0.233 NA
ATOM      9  C   UNL     1       9.062   4.498  23.619  0.00  0.00    +0.224 A 
ATOM     10  N   UNL     1       8.050   5.221  23.102  0.00  0.00    -0.216 NA
ATOM     11  C   UNL     1       6.955   4.466  22.946  0.00  0.00    +0.161 A 
ATOM     12  N   UNL     1       5.752   4.876  22.451  0.00  0.00    -0.329 N 
ATOM     13  H   UNL     1       5.541   5.810  22.135  0.00  0.00    +0.168 HD
ATOM     14  C   UNL     1       4.913   3.797  22.459  0.00  0.00    +0.198 A 
ATOM     15  N   UNL     1       5.507   2.721  22.926  0.00  0.00    -0.232 NA
ATOM     16  C   UNL     1       6.794   3.119  23.240  0.00  0.00    +0.134 A 
ENDBRANCH   4   7
BRANCH   1  17
ATOM     17  C   UNL     1       7.670  -3.303  24.987  0.00  0.00    +0.023 C 
ATOM     18  C   UNL     1       8.816  -4.172  24.369  0.00  0.00    +0.031 C 
ATOM     19  C   UNL     1       8.766  -5.633  24.810  0.00  0.00    +0.082 C 
ATOM     20  N   UNL     1       8.871  -5.739  26.261  0.00  0.00    -0.316 NA
ATOM     21  H   UNL     1       8.807  -6.722  26.531  0.00  0.00    +0.122 HD
ATOM     22  C   UNL     1       7.819  -4.983  26.932  0.00  0.00    +0.082 C 
ATOM     23  C   UNL     1       7.832  -3.504  26.527  0.00  0.00    +0.031 C 
BRANCH  17  28
ATOM     24 CL   UNL     1       2.208  -5.339  23.147  0.00  0.00    -0.084 Cl
ATOM     25  C   UNL     1       3.739  -4.716  23.624  0.00  0.00    +0.041 A 
ATOM     26  C   UNL     1       3.835  -3.882  24.732  0.00  0.00    +0.020 A 
ATOM     27  C   UNL     1       5.088  -3.415  25.149  0.00  0.00    +0.006 A 
ATOM     28  C   UNL     1       6.267  -3.748  24.454  0.00  0.00    -0.037 A 
ATOM     29  C   UNL     1       6.128  -4.584  23.328  0.00  0.00    +0.006 A 
ATOM     30  C   UNL     1       4.880  -5.066  22.915  0.00  0.00    +0.020 A 
ENDBRANCH  17  28
ENDBRANCH   1  17
TORSDOF 3
ENDMDL
MODEL 9
REMARK VINA RESULT:      -7.0      3.218      8.087
REMARK  Name = 
REMARK  3 active torsions:
REMARK  status: ('A' for Active; 'I' for Inactive)
REMARK    1  A    between atoms: C_5  and  C_8
REMARK    2  A    between atoms: C_8  and  C_14
REMARK    3  A    between atoms: C_17  and  C_20
REMARK                            x       y       z     vdW  Elec       q    Type
REMARK                         _______ _______ _______ _____ _____    ______ ____
ROOT
ATOM      1  C   UNL     1       8.171   1.820  23.645  0.00  0.00    -0.037 A 
ATOM      2  C   UNL     1       9.277   1.178  24.226  0.00  0.00    +0.005 A 
ATOM      3  C   UNL     1       9.383  -0.222  24.250  0.00  0.00    +0.010 A 
ATOM      4  C   UNL     1       8.395  -1.050  23.697  0.00  0.00    +0.003 A 
ATOM      5  C   UNL     1       7.311  -0.409  23.081  0.00  0.00    +0.010 A 
ATOM      6  C   UNL     1       7.205   0.989  23.050  0.00  0.00    +0.005 A 
ENDROOT
BRANCH   4   7
ATOM      7  C   UNL     1       8.483  -2.511  23.813  0.00  0.00    +0.102 A 
ATOM      8  N   UNL     1       9.347  -3.034  24.739  0.00  0.00    -0.233 NA
ATOM      9  C   UNL     1       9.395  -4.374  24.898  0.00  0.00    +0.224 A 
ATOM     10  N   UNL     1       8.695  -5.313  24.234  0.00  0.00    -0.216 NA
ATOM     11  C   UNL     1       7.880  -4.753  23.330  0.00  0.00    +0.161 A 
ATOM     12  N   UNL     1       7.034  -5.408  22.485  0.00  0.00    -0.329 N 
ATOM     13  H   UNL     1       6.915  -6.409  22.441  0.00  0.00    +0.168 HD
ATOM     14  C   UNL     1       6.387  -4.466  21.735  0.00  0.00    +0.198 A 
ATOM     15  N   UNL     1       6.767  -3.247  22.051  0.00  0.00    -0.232 NA
ATOM     16  C   UNL     1       7.708  -3.404  23.053  0.00  0.00    +0.134 A 
ENDBRANCH   4   7
BRANCH   1  17
ATOM     17  C   UNL     1       7.956   3.361  23.692  0.00  0.00    +0.023 C 
ATOM     18  C   UNL     1       9.313   4.135  23.788  0.00  0.00    +0.031 C 
ATOM     19  C   UNL     1       9.149   5.649  23.674  0.00  0.00    +0.082 C 
ATOM     20  N   UNL     1       8.529   6.009  22.403  0.00  0.00    -0.316 NA
ATOM     21  H   UNL     1       8.406   7.022  22.364  0.00  0.00    +0.122 HD
ATOM     22  C   UNL     1       7.235   5.357  22.233  0.00  0.00    +0.082 C 
ATOM     23  C   UNL     1       7.348   3.831  22.332  0.00  0.00    +0.031 C 
BRANCH  17  28
ATOM     24 CL   UNL     1       4.332   4.203  28.542  0.00  0.00    -0.084 Cl
ATOM     25  C   UNL     1       5.354   4.031  27.169  0.00  0.00    +0.041 A 
ATOM     26  C   UNL     1       6.731   3.943  27.334  0.00  0.00    +0.020 A 
ATOM     27  C   UNL     1       7.559   3.754  26.221  0.00  0.00    +0.006 A 
ATOM     28  C   UNL     1       7.033   3.674  24.916  0.00  0.00    -0.037 A 
ATOM     29  C   UNL     1       5.633   3.780  24.787  0.00  0.00    +0.006 A 
ATOM     30  C   UNL     1       4.800   3.955  25.899  0.00  0.00    +0.020 A 
ENDBRANCH  17  28
ENDBRANCH   1  17
TORSDOF 3
ENDMDL
