MODEL 1
REMARK VINA RESULT:      -7.0      0.000      0.000
REMARK  Name = 
REMARK  16 active torsions:
REMARK  status: ('A' for Active; 'I' for Inactive)
REMARK    1  A    between atoms: C_10  and  O_12
REMARK    2  A    between atoms: O_12  and  C_13
REMARK    3  A    between atoms: N_15  and  C_16
REMARK    4  A    between atoms: C_16  and  C_18
REMARK    5  A    between atoms: C_16  and  C_25
REMARK    6  A    between atoms: C_18  and  C_19
REMARK    7  A    between atoms: C_25  and  O_27
REMARK    8  A    between atoms: C_25  and  C_28
REMARK    9  A    between atoms: C_28  and  N_29
REMARK   10  A    between atoms: N_29  and  C_30
REMARK   11  A    between atoms: N_29  and  S_34
REMARK   12  A    between atoms: C_30  and  C_31
REMARK   13  A    between atoms: C_31  and  C_32
REMARK   14  A    between atoms: C_31  and  C_33
REMARK   15  A    between atoms: S_34  and  C_37
REMARK   16  A    between atoms: C_40  and  N_41
REMARK                            x       y       z     vdW  Elec       q    Type
REMARK                         _______ _______ _______ _____ _____    ______ ____
ROOT
ATOM      1  C   UNL     1       9.926   0.389  23.277  0.00  0.00    +0.110 C 
ENDROOT
BRANCH   1   3
ATOM      2  C   UNL     1       9.278  -1.988  22.817  0.00  0.00    +0.401 C 
ATOM      3  N   UNL     1       9.120  -0.648  22.614  0.00  0.00    -0.275 N 
ATOM      4  H   UNL     1       8.215  -0.424  22.225  0.00  0.00    +0.152 HD
ATOM      5  O   UNL     1      10.158  -2.523  23.472  0.00  0.00    -0.226 OA
BRANCH   2   6
ATOM      6  O   UNL     1       8.237  -2.633  22.240  0.00  0.00    -0.444 OA
BRANCH   6   8
ATOM      7  C   UNL     1       6.984  -4.453  23.305  0.00  0.00    +0.090 C 
ATOM      8  C   UNL     1       7.118  -2.957  23.085  0.00  0.00    +0.212 C 
ATOM      9  C   UNL     1       5.830  -2.586  22.350  0.00  0.00    +0.208 C 
ATOM     10  O   UNL     1       4.989  -3.746  22.289  0.00  0.00    -0.347 OA
ATOM     11  C   UNL     1       5.496  -4.691  23.230  0.00  0.00    +0.257 C 
ATOM     12  O   UNL     1       5.315  -6.026  22.777  0.00  0.00    -0.351 OA
ATOM     13  C   UNL     1       6.441  -6.381  21.977  0.00  0.00    +0.163 C 
ATOM     14  C   UNL     1       7.535  -5.360  22.219  0.00  0.00    +0.040 C 
ENDBRANCH   6   8
ENDBRANCH   2   6
ENDBRANCH   1   3
BRANCH   1  15
ATOM     15  C   UNL     1       9.376   0.812  24.674  0.00  0.00    +0.151 C 
BRANCH  15  16
ATOM     16  O   UNL     1      10.134   0.207  25.730  0.00  0.00    -0.389 OA
ATOM     17  H   UNL     1       9.589  -0.485  26.144  0.00  0.00    +0.210 HD
ENDBRANCH  15  16
BRANCH  15  18
ATOM     18  C   UNL     1       7.860   0.660  24.935  0.00  0.00    +0.142 C 
BRANCH  18  19
ATOM     19  N   UNL     1       7.351   0.527  26.365  0.00  0.00    -0.174 NA
BRANCH  19  20
ATOM     20  S   UNL     1       5.919  -0.499  26.376  0.00  0.00    +0.061 S 
ATOM     21  O   UNL     1       5.347  -0.405  25.047  0.00  0.00    -0.153 OA
ATOM     22  O   UNL     1       5.141  -0.202  27.556  0.00  0.00    -0.153 OA
BRANCH  20  23
ATOM     23  C   UNL     1       6.551  -2.158  26.569  0.00  0.00    +0.106 A 
ATOM     24  C   UNL     1       7.925  -2.404  26.458  0.00  0.00    +0.030 A 
ATOM     25  C   UNL     1       8.415  -3.697  26.645  0.00  0.00    +0.024 A 
ATOM     26  C   UNL     1       7.561  -4.752  26.965  0.00  0.00    +0.025 A 
ATOM     27  C   UNL     1       6.180  -4.507  27.002  0.00  0.00    +0.024 A 
ATOM     28  C   UNL     1       5.673  -3.212  26.824  0.00  0.00    +0.030 A 
BRANCH  26  29
ATOM     29  N   UNL     1       8.045  -6.068  27.024  0.00  0.00    -0.358 N 
ATOM     30  H   UNL     1       8.060  -6.546  26.129  0.00  0.00    +0.142 HD
ATOM     31  H   UNL     1       8.885  -6.186  27.575  0.00  0.00    +0.142 HD
ENDBRANCH  26  29
ENDBRANCH  20  23
ENDBRANCH  19  20
BRANCH  19  32
ATOM     32  C   UNL     1       7.077   1.897  26.985  0.00  0.00    +0.112 C 
BRANCH  32  33
ATOM     33  C   UNL     1       6.775   3.090  26.053  0.00  0.00    -0.001 C 
ATOM     34  C   UNL     1       7.229   4.395  26.741  0.00  0.00    +0.008 C 
ATOM     35  C   UNL     1       5.295   3.244  25.705  0.00  0.00    +0.008 C 
ENDBRANCH  32  33
ENDBRANCH  19  32
ENDBRANCH  18  19
ENDBRANCH  15  18
ENDBRANCH   1  15
BRANCH   1  36
ATOM     36  C   UNL     1      10.108   1.652  22.373  0.00  0.00    +0.060 C 
BRANCH  36  37
ATOM     37  C   UNL     1       9.041   2.725  22.509  0.00  0.00    -0.046 A 
ATOM     38  C   UNL     1       7.781   2.557  21.924  0.00  0.00    +0.004 A 
ATOM     39  C   UNL     1       6.804   3.550  22.033  0.00  0.00    +0.000 A 
ATOM     40  C   UNL     1       7.073   4.724  22.738  0.00  0.00    +0.000 A 
ATOM     41  C   UNL     1       8.322   4.907  23.324  0.00  0.00    +0.000 A 
ATOM     42  C   UNL     1       9.305   3.921  23.198  0.00  0.00    +0.004 A 
ENDBRANCH  36  37
ENDBRANCH   1  36
TORSDOF 14
ENDMDL
MODEL 2
REMARK VINA RESULT:      -6.8      2.839      6.164
REMARK  Name = 
REMARK  16 active torsions:
REMARK  status: ('A' for Active; 'I' for Inactive)
REMARK    1  A    between atoms: C_10  and  O_12
REMARK    2  A    between atoms: O_12  and  C_13
REMARK    3  A    between atoms: N_15  and  C_16
REMARK    4  A    between atoms: C_16  and  C_18
REMARK    5  A    between atoms: C_16  and  C_25
REMARK    6  A    between atoms: C_18  and  C_19
REMARK    7  A    between atoms: C_25  and  O_27
REMARK    8  A    between atoms: C_25  and  C_28
REMARK    9  A    between atoms: C_28  and  N_29
REMARK   10  A    between atoms: N_29  and  C_30
REMARK   11  A    between atoms: N_29  and  S_34
REMARK   12  A    between atoms: C_30  and  C_31
REMARK   13  A    between atoms: C_31  and  C_32
REMARK   14  A    between atoms: C_31  and  C_33
REMARK   15  A    between atoms: S_34  and  C_37
REMARK   16  A    between atoms: C_40  and  N_41
REMARK                            x       y       z     vdW  Elec       q    Type
REMARK                         _______ _______ _______ _____ _____    ______ ____
ROOT
ATOM      1  C   UNL     1       8.760  -2.939  24.264  0.00  0.00    +0.110 C 
ENDROOT
BRANCH   1   3
ATOM      2  C   UNL     1       8.113  -1.332  26.074  0.00  0.00    +0.401 C 
ATOM      3  N   UNL     1       7.875  -1.934  24.873  0.00  0.00    -0.275 N 
ATOM      4  H   UNL     1       7.224  -1.411  24.305  0.00  0.00    +0.152 HD
ATOM      5  O   UNL     1       9.007  -1.604  26.858  0.00  0.00    -0.226 OA
BRANCH   2   6
ATOM      6  O   UNL     1       7.238  -0.308  26.218  0.00  0.00    -0.444 OA
BRANCH   6   8
ATOM      7  C   UNL     1       6.853   1.325  24.429  0.00  0.00    +0.090 C 
ATOM      8  C   UNL     1       6.422   0.023  25.079  0.00  0.00    +0.212 C 
ATOM      9  C   UNL     1       5.003   0.317  25.567  0.00  0.00    +0.208 C 
ATOM     10  O   UNL     1       4.625   1.620  25.105  0.00  0.00    -0.347 OA
ATOM     11  C   UNL     1       5.547   1.998  24.085  0.00  0.00    +0.257 C 
ATOM     12  O   UNL     1       5.791   3.398  24.096  0.00  0.00    -0.351 OA
ATOM     13  C   UNL     1       6.858   3.658  25.006  0.00  0.00    +0.163 C 
ATOM     14  C   UNL     1       7.544   2.342  25.319  0.00  0.00    +0.040 C 
ENDBRANCH   6   8
ENDBRANCH   2   6
ENDBRANCH   1   3
BRANCH   1  15
ATOM     15  C   UNL     1       9.046  -4.164  25.187  0.00  0.00    +0.151 C 
BRANCH  15  16
ATOM     16  O   UNL     1      10.142  -4.941  24.686  0.00  0.00    -0.389 OA
ATOM     17  H   UNL     1       9.802  -5.809  24.406  0.00  0.00    +0.210 HD
ENDBRANCH  15  16
BRANCH  15  18
ATOM     18  C   UNL     1       7.861  -5.079  25.571  0.00  0.00    +0.142 C 
BRANCH  18  19
ATOM     19  N   UNL     1       6.529  -4.932  24.845  0.00  0.00    -0.174 NA
BRANCH  19  20
ATOM     20  S   UNL     1       5.227  -5.441  25.917  0.00  0.00    +0.061 S 
ATOM     21  O   UNL     1       4.830  -4.260  26.657  0.00  0.00    -0.153 OA
ATOM     22  O   UNL     1       5.626  -6.656  26.591  0.00  0.00    -0.153 OA
BRANCH  20  23
ATOM     23  C   UNL     1       3.880  -5.866  24.825  0.00  0.00    +0.106 A 
ATOM     24  C   UNL     1       3.134  -4.856  24.205  0.00  0.00    +0.030 A 
ATOM     25  C   UNL     1       2.106  -5.196  23.325  0.00  0.00    +0.024 A 
ATOM     26  C   UNL     1       1.818  -6.529  23.034  0.00  0.00    +0.025 A 
ATOM     27  C   UNL     1       2.522  -7.531  23.717  0.00  0.00    +0.024 A 
ATOM     28  C   UNL     1       3.565  -7.206  24.597  0.00  0.00    +0.030 A 
BRANCH  26  29
ATOM     29  N   UNL     1       0.701  -6.862  22.251  0.00  0.00    -0.358 N 
ATOM     30  H   UNL     1       0.243  -6.067  21.820  0.00  0.00    +0.142 HD
ATOM     31  H   UNL     1       0.836  -7.652  21.634  0.00  0.00    +0.142 HD
ENDBRANCH  26  29
ENDBRANCH  20  23
ENDBRANCH  19  20
BRANCH  19  32
ATOM     32  C   UNL     1       6.526  -5.713  23.532  0.00  0.00    +0.112 C 
BRANCH  32  33
ATOM     33  C   UNL     1       6.672  -4.940  22.203  0.00  0.00    -0.001 C 
ATOM     34  C   UNL     1       5.842  -3.641  22.282  0.00  0.00    +0.008 C 
ATOM     35  C   UNL     1       6.195  -5.719  20.978  0.00  0.00    +0.008 C 
ENDBRANCH  32  33
ENDBRANCH  19  32
ENDBRANCH  18  19
ENDBRANCH  15  18
ENDBRANCH   1  15
BRANCH   1  36
ATOM     36  C   UNL     1      10.109  -2.312  23.782  0.00  0.00    +0.060 C 
BRANCH  36  37
ATOM     37  C   UNL     1      10.016  -0.920  23.180  0.00  0.00    -0.046 A 
ATOM     38  C   UNL     1       9.396  -0.717  21.942  0.00  0.00    +0.004 A 
ATOM     39  C   UNL     1       9.324   0.560  21.379  0.00  0.00    +0.000 A 
ATOM     40  C   UNL     1       9.866   1.655  22.053  0.00  0.00    +0.000 A 
ATOM     41  C   UNL     1      10.488   1.470  23.284  0.00  0.00    +0.000 A 
ATOM     42  C   UNL     1      10.576   0.189  23.838  0.00  0.00    +0.004 A 
ENDBRANCH  36  37
ENDBRANCH   1  36
TORSDOF 14
ENDMDL
MODEL 3
REMARK VINA RESULT:      -6.7      2.620      6.598
REMARK  Name = 
REMARK  16 active torsions:
REMARK  status: ('A' for Active; 'I' for Inactive)
REMARK    1  A    between atoms: C_10  and  O_12
REMARK    2  A    between atoms: O_12  and  C_13
REMARK    3  A    between atoms: N_15  and  C_16
REMARK    4  A    between atoms: C_16  and  C_18
REMARK    5  A    between atoms: C_16  and  C_25
REMARK    6  A    between atoms: C_18  and  C_19
REMARK    7  A    between atoms: C_25  and  O_27
REMARK    8  A    between atoms: C_25  and  C_28
REMARK    9  A    between atoms: C_28  and  N_29
REMARK   10  A    between atoms: N_29  and  C_30
REMARK   11  A    between atoms: N_29  and  S_34
REMARK   12  A    between atoms: C_30  and  C_31
REMARK   13  A    between atoms: C_31  and  C_32
REMARK   14  A    between atoms: C_31  and  C_33
REMARK   15  A    between atoms: S_34  and  C_37
REMARK   16  A    between atoms: C_40  and  N_41
REMARK                            x       y       z     vdW  Elec       q    Type
REMARK                         _______ _______ _______ _____ _____    ______ ____
ROOT
ATOM      1  C   UNL     1       8.295  -3.621  25.618  0.00  0.00    +0.110 C 
ENDROOT
BRANCH   1   3
ATOM      2  C   UNL     1       6.723  -5.144  26.839  0.00  0.00    +0.401 C 
ATOM      3  N   UNL     1       6.973  -4.214  25.872  0.00  0.00    -0.275 N 
ATOM      4  H   UNL     1       6.132  -3.745  25.566  0.00  0.00    +0.152 HD
ATOM      5  O   UNL     1       7.551  -5.694  27.547  0.00  0.00    -0.226 OA
BRANCH   2   6
ATOM      6  O   UNL     1       5.382  -5.294  26.950  0.00  0.00    -0.444 OA
BRANCH   6   8
ATOM      7  C   UNL     1       4.519  -6.779  25.199  0.00  0.00    +0.090 C 
ATOM      8  C   UNL     1       4.844  -6.600  26.671  0.00  0.00    +0.212 C 
ATOM      9  C   UNL     1       3.482  -6.721  27.356  0.00  0.00    +0.208 C 
ATOM     10  O   UNL     1       2.506  -7.077  26.369  0.00  0.00    -0.347 OA
ATOM     11  C   UNL     1       3.210  -7.529  25.214  0.00  0.00    +0.257 C 
ATOM     12  O   UNL     1       2.525  -7.184  24.017  0.00  0.00    -0.351 OA
ATOM     13  C   UNL     1       2.942  -5.878  23.626  0.00  0.00    +0.163 C 
ATOM     14  C   UNL     1       4.192  -5.526  24.409  0.00  0.00    +0.040 C 
ENDBRANCH   6   8
ENDBRANCH   2   6
ENDBRANCH   1   3
BRANCH   1  15
ATOM     15  C   UNL     1       8.303  -2.062  25.673  0.00  0.00    +0.151 C 
BRANCH  15  16
ATOM     16  O   UNL     1       8.206  -1.594  27.024  0.00  0.00    -0.389 OA
ATOM     17  H   UNL     1       8.716  -2.194  27.596  0.00  0.00    +0.210 HD
ENDBRANCH  15  16
BRANCH  15  18
ATOM     18  C   UNL     1       7.319  -1.297  24.759  0.00  0.00    +0.142 C 
BRANCH  18  19
ATOM     19  N   UNL     1       7.721   0.055  24.182  0.00  0.00    -0.174 NA
BRANCH  19  20
ATOM     20  S   UNL     1       6.696   1.308  24.877  0.00  0.00    +0.061 S 
ATOM     21  O   UNL     1       6.900   1.246  26.311  0.00  0.00    -0.153 OA
ATOM     22  O   UNL     1       5.377   1.206  24.297  0.00  0.00    -0.153 OA
BRANCH  20  23
ATOM     23  C   UNL     1       7.403   2.843  24.302  0.00  0.00    +0.106 A 
ATOM     24  C   UNL     1       8.589   3.326  24.870  0.00  0.00    +0.030 A 
ATOM     25  C   UNL     1       9.155   4.508  24.391  0.00  0.00    +0.024 A 
ATOM     26  C   UNL     1       8.571   5.212  23.339  0.00  0.00    +0.025 A 
ATOM     27  C   UNL     1       7.345   4.759  22.828  0.00  0.00    +0.024 A 
ATOM     28  C   UNL     1       6.769   3.568  23.292  0.00  0.00    +0.030 A 
BRANCH  26  29
ATOM     29  N   UNL     1       9.075   6.464  22.953  0.00  0.00    -0.358 N 
ATOM     30  H   UNL     1       9.373   6.513  21.985  0.00  0.00    +0.142 HD
ATOM     31  H   UNL     1       8.525   7.255  23.261  0.00  0.00    +0.142 HD
ENDBRANCH  26  29
ENDBRANCH  20  23
ENDBRANCH  19  20
BRANCH  19  32
ATOM     32  C   UNL     1       7.657   0.045  22.656  0.00  0.00    +0.112 C 
BRANCH  32  33
ATOM     33  C   UNL     1       8.974   0.085  21.852  0.00  0.00    -0.001 C 
ATOM     34  C   UNL     1       9.936  -0.987  22.408  0.00  0.00    +0.008 C 
ATOM     35  C   UNL     1       9.698   1.430  21.915  0.00  0.00    +0.008 C 
ENDBRANCH  32  33
ENDBRANCH  19  32
ENDBRANCH  18  19
ENDBRANCH  15  18
ENDBRANCH   1  15
BRANCH   1  36
ATOM     36  C   UNL     1       8.901  -4.108  24.261  0.00  0.00    +0.060 C 
BRANCH  36  37
ATOM     37  C   UNL     1       7.900  -4.560  23.211  0.00  0.00    -0.046 A 
ATOM     38  C   UNL     1       7.709  -5.922  22.947  0.00  0.00    +0.004 A 
ATOM     39  C   UNL     1       6.802  -6.340  21.970  0.00  0.00    +0.000 A 
ATOM     40  C   UNL     1       6.065  -5.399  21.248  0.00  0.00    +0.000 A 
ATOM     41  C   UNL     1       6.245  -4.042  21.498  0.00  0.00    +0.000 A 
ATOM     42  C   UNL     1       7.167  -3.624  22.462  0.00  0.00    +0.004 A 
ENDBRANCH  36  37
ENDBRANCH   1  36
TORSDOF 14
ENDMDL
MODEL 4
REMARK VINA RESULT:      -6.5      2.865      5.103
REMARK  Name = 
REMARK  16 active torsions:
REMARK  status: ('A' for Active; 'I' for Inactive)
REMARK    1  A    between atoms: C_10  and  O_12
REMARK    2  A    between atoms: O_12  and  C_13
REMARK    3  A    between atoms: N_15  and  C_16
REMARK    4  A    between atoms: C_16  and  C_18
REMARK    5  A    between atoms: C_16  and  C_25
REMARK    6  A    between atoms: C_18  and  C_19
REMARK    7  A    between atoms: C_25  and  O_27
REMARK    8  A    between atoms: C_25  and  C_28
REMARK    9  A    between atoms: C_28  and  N_29
REMARK   10  A    between atoms: N_29  and  C_30
REMARK   11  A    between atoms: N_29  and  S_34
REMARK   12  A    between atoms: C_30  and  C_31
REMARK   13  A    between atoms: C_31  and  C_32
REMARK   14  A    between atoms: C_31  and  C_33
REMARK   15  A    between atoms: S_34  and  C_37
REMARK   16  A    between atoms: C_40  and  N_41
REMARK                            x       y       z     vdW  Elec       q    Type
REMARK                         _______ _______ _______ _____ _____    ______ ____
ROOT
ATOM      1  C   UNL     1       7.268  -0.427  25.840  0.00  0.00    +0.110 C 
ENDROOT
BRANCH   1   3
ATOM      2  C   UNL     1       5.030  -1.447  25.362  0.00  0.00    +0.401 C 
ATOM      3  N   UNL     1       5.815  -0.556  26.033  0.00  0.00    -0.275 N 
ATOM      4  H   UNL     1       5.378  -0.223  26.881  0.00  0.00    +0.152 HD
ATOM      5  O   UNL     1       5.378  -2.175  24.447  0.00  0.00    -0.226 OA
BRANCH   2   6
ATOM      6  O   UNL     1       3.806  -1.459  25.942  0.00  0.00    -0.444 OA
BRANCH   6   8
ATOM      7  C   UNL     1       3.027  -3.680  26.630  0.00  0.00    +0.090 C 
ATOM      8  C   UNL     1       3.617  -2.349  27.058  0.00  0.00    +0.212 C 
ATOM      9  C   UNL     1       2.546  -1.759  27.975  0.00  0.00    +0.208 C 
ATOM     10  O   UNL     1       1.513  -2.735  28.155  0.00  0.00    -0.347 OA
ATOM     11  C   UNL     1       2.030  -3.992  27.719  0.00  0.00    +0.257 C 
ATOM     12  O   UNL     1       1.016  -4.796  27.132  0.00  0.00    -0.351 OA
ATOM     13  C   UNL     1       0.937  -4.471  25.745  0.00  0.00    +0.163 C 
ATOM     14  C   UNL     1       2.178  -3.684  25.372  0.00  0.00    +0.040 C 
ENDBRANCH   6   8
ENDBRANCH   2   6
ENDBRANCH   1   3
BRANCH   1  15
ATOM     15  C   UNL     1       8.112  -1.161  26.927  0.00  0.00    +0.151 C 
BRANCH  15  16
ATOM     16  O   UNL     1       8.932  -0.236  27.654  0.00  0.00    -0.389 OA
ATOM     17  H   UNL     1       9.628  -0.737  28.115  0.00  0.00    +0.210 HD
ENDBRANCH  15  16
BRANCH  15  18
ATOM     18  C   UNL     1       8.935  -2.398  26.498  0.00  0.00    +0.142 C 
BRANCH  18  19
ATOM     19  N   UNL     1       8.515  -3.192  25.268  0.00  0.00    -0.174 NA
BRANCH  19  20
ATOM     20  S   UNL     1       8.372  -4.894  25.700  0.00  0.00    +0.061 S 
ATOM     21  O   UNL     1       8.192  -4.930  27.138  0.00  0.00    -0.153 OA
ATOM     22  O   UNL     1       9.433  -5.631  25.052  0.00  0.00    -0.153 OA
BRANCH  20  23
ATOM     23  C   UNL     1       6.837  -5.423  24.956  0.00  0.00    +0.106 A 
ATOM     24  C   UNL     1       6.621  -5.238  23.585  0.00  0.00    +0.030 A 
ATOM     25  C   UNL     1       5.433  -5.686  23.004  0.00  0.00    +0.024 A 
ATOM     26  C   UNL     1       4.462  -6.338  23.763  0.00  0.00    +0.025 A 
ATOM     27  C   UNL     1       4.658  -6.452  25.147  0.00  0.00    +0.024 A 
ATOM     28  C   UNL     1       5.849  -6.015  25.744  0.00  0.00    +0.030 A 
BRANCH  26  29
ATOM     29  N   UNL     1       3.220  -6.668  23.198  0.00  0.00    -0.358 N 
ATOM     30  H   UNL     1       2.596  -7.166  23.824  0.00  0.00    +0.142 HD
ATOM     31  H   UNL     1       2.781  -5.921  22.677  0.00  0.00    +0.142 HD
ENDBRANCH  26  29
ENDBRANCH  20  23
ENDBRANCH  19  20
BRANCH  19  32
ATOM     32  C   UNL     1       9.491  -2.977  24.111  0.00  0.00    +0.112 C 
BRANCH  32  33
ATOM     33  C   UNL     1       9.271  -1.779  23.162  0.00  0.00    -0.001 C 
ATOM     34  C   UNL     1       8.087  -2.091  22.223  0.00  0.00    +0.008 C 
ATOM     35  C   UNL     1      10.481  -1.453  22.287  0.00  0.00    +0.008 C 
ENDBRANCH  32  33
ENDBRANCH  19  32
ENDBRANCH  18  19
ENDBRANCH  15  18
ENDBRANCH   1  15
BRANCH   1  36
ATOM     36  C   UNL     1       7.712   1.069  25.744  0.00  0.00    +0.060 C 
BRANCH  36  37
ATOM     37  C   UNL     1       8.472   1.458  24.487  0.00  0.00    -0.046 A 
ATOM     38  C   UNL     1       7.805   1.596  23.264  0.00  0.00    +0.004 A 
ATOM     39  C   UNL     1       8.505   1.937  22.103  0.00  0.00    +0.000 A 
ATOM     40  C   UNL     1       9.882   2.152  22.153  0.00  0.00    +0.000 A 
ATOM     41  C   UNL     1      10.560   2.017  23.361  0.00  0.00    +0.000 A 
ATOM     42  C   UNL     1       9.863   1.658  24.517  0.00  0.00    +0.004 A 
ENDBRANCH  36  37
ENDBRANCH   1  36
TORSDOF 14
ENDMDL
MODEL 5
REMARK VINA RESULT:      -6.5      2.456      5.702
REMARK  Name = 
REMARK  16 active torsions:
REMARK  status: ('A' for Active; 'I' for Inactive)
REMARK    1  A    between atoms: C_10  and  O_12
REMARK    2  A    between atoms: O_12  and  C_13
REMARK    3  A    between atoms: N_15  and  C_16
REMARK    4  A    between atoms: C_16  and  C_18
REMARK    5  A    between atoms: C_16  and  C_25
REMARK    6  A    between atoms: C_18  and  C_19
REMARK    7  A    between atoms: C_25  and  O_27
REMARK    8  A    between atoms: C_25  and  C_28
REMARK    9  A    between atoms: C_28  and  N_29
REMARK   10  A    between atoms: N_29  and  C_30
REMARK   11  A    between atoms: N_29  and  S_34
REMARK   12  A    between atoms: C_30  and  C_31
REMARK   13  A    between atoms: C_31  and  C_32
REMARK   14  A    between atoms: C_31  and  C_33
REMARK   15  A    between atoms: S_34  and  C_37
REMARK   16  A    between atoms: C_40  and  N_41
REMARK                            x       y       z     vdW  Elec       q    Type
REMARK                         _______ _______ _______ _____ _____    ______ ____
ROOT
ATOM      1  C   UNL     1       8.375  -2.186  25.807  0.00  0.00    +0.110 C 
ENDROOT
BRANCH   1   3
ATOM      2  C   UNL     1       7.412  -4.265  26.823  0.00  0.00    +0.401 C 
ATOM      3  N   UNL     1       7.262  -3.082  26.161  0.00  0.00    -0.275 N 
ATOM      4  H   UNL     1       6.317  -2.729  26.217  0.00  0.00    +0.152 HD
ATOM      5  O   UNL     1       8.467  -4.804  27.116  0.00  0.00    -0.226 OA
BRANCH   2   6
ATOM      6  O   UNL     1       6.186  -4.709  27.186  0.00  0.00    -0.444 OA
BRANCH   6   8
ATOM      7  C   UNL     1       5.043  -5.930  25.392  0.00  0.00    +0.090 C 
ATOM      8  C   UNL     1       5.791  -6.009  26.710  0.00  0.00    +0.212 C 
ATOM      9  C   UNL     1       4.757  -6.587  27.676  0.00  0.00    +0.208 C 
ATOM     10  O   UNL     1       3.581  -6.932  26.932  0.00  0.00    -0.347 OA
ATOM     11  C   UNL     1       3.937  -6.945  25.551  0.00  0.00    +0.257 C 
ATOM     12  O   UNL     1       2.860  -6.512  24.731  0.00  0.00    -0.351 OA
ATOM     13  C   UNL     1       2.926  -5.091  24.623  0.00  0.00    +0.163 C 
ATOM     14  C   UNL     1       4.293  -4.642  25.103  0.00  0.00    +0.040 C 
ENDBRANCH   6   8
ENDBRANCH   2   6
ENDBRANCH   1   3
BRANCH   1  15
ATOM     15  C   UNL     1       8.314  -0.800  26.518  0.00  0.00    +0.151 C 
BRANCH  15  16
ATOM     16  O   UNL     1       9.286  -0.717  27.569  0.00  0.00    -0.389 OA
ATOM     17  H   UNL     1       9.240   0.171  27.964  0.00  0.00    +0.210 HD
ENDBRANCH  15  16
BRANCH  15  18
ATOM     18  C   UNL     1       6.939  -0.293  27.008  0.00  0.00    +0.142 C 
BRANCH  18  19
ATOM     19  N   UNL     1       5.783  -0.175  26.022  0.00  0.00    -0.174 NA
BRANCH  19  20
ATOM     20  S   UNL     1       5.637   1.502  25.501  0.00  0.00    +0.061 S 
ATOM     21  O   UNL     1       5.906   2.312  26.673  0.00  0.00    -0.153 OA
ATOM     22  O   UNL     1       4.416   1.650  24.745  0.00  0.00    -0.153 OA
BRANCH  20  23
ATOM     23  C   UNL     1       6.991   1.743  24.362  0.00  0.00    +0.106 A 
ATOM     24  C   UNL     1       6.933   1.192  23.076  0.00  0.00    +0.030 A 
ATOM     25  C   UNL     1       7.979   1.415  22.179  0.00  0.00    +0.024 A 
ATOM     26  C   UNL     1       9.078   2.196  22.534  0.00  0.00    +0.025 A 
ATOM     27  C   UNL     1       9.160   2.680  23.848  0.00  0.00    +0.024 A 
ATOM     28  C   UNL     1       8.113   2.473  24.758  0.00  0.00    +0.030 A 
BRANCH  26  29
ATOM     29  N   UNL     1      10.181   2.306  21.674  0.00  0.00    -0.358 N 
ATOM     30  H   UNL     1      10.542   3.249  21.577  0.00  0.00    +0.142 HD
ATOM     31  H   UNL     1      10.892   1.598  21.804  0.00  0.00    +0.142 HD
ENDBRANCH  26  29
ENDBRANCH  20  23
ENDBRANCH  19  20
BRANCH  19  32
ATOM     32  C   UNL     1       4.483  -0.700  26.629  0.00  0.00    +0.112 C 
BRANCH  32  33
ATOM     33  C   UNL     1       4.467  -1.117  28.115  0.00  0.00    -0.001 C 
ATOM     34  C   UNL     1       3.733  -2.468  28.252  0.00  0.00    +0.008 C 
ATOM     35  C   UNL     1       3.766  -0.115  29.032  0.00  0.00    +0.008 C 
ENDBRANCH  32  33
ENDBRANCH  19  32
ENDBRANCH  18  19
ENDBRANCH  15  18
ENDBRANCH   1  15
BRANCH   1  36
ATOM     36  C   UNL     1       8.492  -1.985  24.261  0.00  0.00    +0.060 C 
BRANCH  36  37
ATOM     37  C   UNL     1       7.625  -2.895  23.406  0.00  0.00    -0.046 A 
ATOM     38  C   UNL     1       7.950  -4.247  23.246  0.00  0.00    +0.004 A 
ATOM     39  C   UNL     1       7.165  -5.081  22.446  0.00  0.00    +0.000 A 
ATOM     40  C   UNL     1       6.036  -4.574  21.801  0.00  0.00    +0.000 A 
ATOM     41  C   UNL     1       5.701  -3.231  21.948  0.00  0.00    +0.000 A 
ATOM     42  C   UNL     1       6.498  -2.394  22.733  0.00  0.00    +0.004 A 
ENDBRANCH  36  37
ENDBRANCH   1  36
TORSDOF 14
ENDMDL
MODEL 6
REMARK VINA RESULT:      -6.5      2.501      6.043
REMARK  Name = 
REMARK  16 active torsions:
REMARK  status: ('A' for Active; 'I' for Inactive)
REMARK    1  A    between atoms: C_10  and  O_12
REMARK    2  A    between atoms: O_12  and  C_13
REMARK    3  A    between atoms: N_15  and  C_16
REMARK    4  A    between atoms: C_16  and  C_18
REMARK    5  A    between atoms: C_16  and  C_25
REMARK    6  A    between atoms: C_18  and  C_19
REMARK    7  A    between atoms: C_25  and  O_27
REMARK    8  A    between atoms: C_25  and  C_28
REMARK    9  A    between atoms: C_28  and  N_29
REMARK   10  A    between atoms: N_29  and  C_30
REMARK   11  A    between atoms: N_29  and  S_34
REMARK   12  A    between atoms: C_30  and  C_31
REMARK   13  A    between atoms: C_31  and  C_32
REMARK   14  A    between atoms: C_31  and  C_33
REMARK   15  A    between atoms: S_34  and  C_37
REMARK   16  A    between atoms: C_40  and  N_41
REMARK                            x       y       z     vdW  Elec       q    Type
REMARK                         _______ _______ _______ _____ _____    ______ ____
ROOT
ATOM      1  C   UNL     1       8.818  -3.019  24.242  0.00  0.00    +0.110 C 
ENDROOT
BRANCH   1   3
ATOM      2  C   UNL     1       8.124  -1.463  26.080  0.00  0.00    +0.401 C 
ATOM      3  N   UNL     1       7.928  -2.016  24.849  0.00  0.00    -0.275 N 
ATOM      4  H   UNL     1       7.314  -1.458  24.272  0.00  0.00    +0.152 HD
ATOM      5  O   UNL     1       8.976  -1.784  26.892  0.00  0.00    -0.226 OA
BRANCH   2   6
ATOM      6  O   UNL     1       7.265  -0.426  26.224  0.00  0.00    -0.444 OA
BRANCH   6   8
ATOM      7  C   UNL     1       6.864   1.231  24.460  0.00  0.00    +0.090 C 
ATOM      8  C   UNL     1       6.450  -0.088  25.087  0.00  0.00    +0.212 C 
ATOM      9  C   UNL     1       5.025   0.178  25.573  0.00  0.00    +0.208 C 
ATOM     10  O   UNL     1       4.629   1.483  25.132  0.00  0.00    -0.347 OA
ATOM     11  C   UNL     1       5.550   1.891  24.122  0.00  0.00    +0.257 C 
ATOM     12  O   UNL     1       5.773   3.294  24.157  0.00  0.00    -0.351 OA
ATOM     13  C   UNL     1       6.833   3.554  25.076  0.00  0.00    +0.163 C 
ATOM     14  C   UNL     1       7.537   2.243  25.369  0.00  0.00    +0.040 C 
ENDBRANCH   6   8
ENDBRANCH   2   6
ENDBRANCH   1   3
BRANCH   1  15
ATOM     15  C   UNL     1       9.138  -4.222  25.181  0.00  0.00    +0.151 C 
BRANCH  15  16
ATOM     16  O   UNL     1      10.333  -4.896  24.765  0.00  0.00    -0.389 OA
ATOM     17  H   UNL     1      10.736  -4.389  24.038  0.00  0.00    +0.210 HD
ENDBRANCH  15  16
BRANCH  15  18
ATOM     18  C   UNL     1       8.012  -5.240  25.469  0.00  0.00    +0.142 C 
BRANCH  18  19
ATOM     19  N   UNL     1       6.666  -5.095  24.770  0.00  0.00    -0.174 NA
BRANCH  19  20
ATOM     20  S   UNL     1       5.419  -5.861  25.749  0.00  0.00    +0.061 S 
ATOM     21  O   UNL     1       6.060  -6.237  26.994  0.00  0.00    -0.153 OA
ATOM     22  O   UNL     1       4.718  -6.830  24.938  0.00  0.00    -0.153 OA
BRANCH  20  23
ATOM     23  C   UNL     1       4.262  -4.552  26.118  0.00  0.00    +0.106 A 
ATOM     24  C   UNL     1       3.180  -4.310  25.263  0.00  0.00    +0.030 A 
ATOM     25  C   UNL     1       2.260  -3.308  25.576  0.00  0.00    +0.024 A 
ATOM     26  C   UNL     1       2.387  -2.552  26.741  0.00  0.00    +0.025 A 
ATOM     27  C   UNL     1       3.515  -2.753  27.550  0.00  0.00    +0.024 A 
ATOM     28  C   UNL     1       4.443  -3.762  27.254  0.00  0.00    +0.030 A 
BRANCH  26  29
ATOM     29  N   UNL     1       1.533  -1.464  26.980  0.00  0.00    -0.358 N 
ATOM     30  H   UNL     1       2.014  -0.589  27.157  0.00  0.00    +0.142 HD
ATOM     31  H   UNL     1       0.752  -1.390  26.342  0.00  0.00    +0.142 HD
ENDBRANCH  26  29
ENDBRANCH  20  23
ENDBRANCH  19  20
BRANCH  19  32
ATOM     32  C   UNL     1       6.714  -5.669  23.354  0.00  0.00    +0.112 C 
BRANCH  32  33
ATOM     33  C   UNL     1       5.772  -5.085  22.280  0.00  0.00    -0.001 C 
ATOM     34  C   UNL     1       6.215  -5.592  20.891  0.00  0.00    +0.008 C 
ATOM     35  C   UNL     1       5.758  -3.558  22.231  0.00  0.00    +0.008 C 
ENDBRANCH  32  33
ENDBRANCH  19  32
ENDBRANCH  18  19
ENDBRANCH  15  18
ENDBRANCH   1  15
BRANCH   1  36
ATOM     36  C   UNL     1      10.148  -2.379  23.726  0.00  0.00    +0.060 C 
BRANCH  36  37
ATOM     37  C   UNL     1      10.027  -0.990  23.123  0.00  0.00    -0.046 A 
ATOM     38  C   UNL     1      10.523   0.129  23.803  0.00  0.00    +0.004 A 
ATOM     39  C   UNL     1      10.398   1.410  23.258  0.00  0.00    +0.000 A 
ATOM     40  C   UNL     1       9.781   1.587  22.018  0.00  0.00    +0.000 A 
ATOM     41  C   UNL     1       9.282   0.486  21.331  0.00  0.00    +0.000 A 
ATOM     42  C   UNL     1       9.391  -0.793  21.885  0.00  0.00    +0.004 A 
ENDBRANCH  36  37
ENDBRANCH   1  36
TORSDOF 14
ENDMDL
MODEL 7
REMARK VINA RESULT:      -6.4      2.602      6.835
REMARK  Name = 
REMARK  16 active torsions:
REMARK  status: ('A' for Active; 'I' for Inactive)
REMARK    1  A    between atoms: C_10  and  O_12
REMARK    2  A    between atoms: O_12  and  C_13
REMARK    3  A    between atoms: N_15  and  C_16
REMARK    4  A    between atoms: C_16  and  C_18
REMARK    5  A    between atoms: C_16  and  C_25
REMARK    6  A    between atoms: C_18  and  C_19
REMARK    7  A    between atoms: C_25  and  O_27
REMARK    8  A    between atoms: C_25  and  C_28
REMARK    9  A    between atoms: C_28  and  N_29
REMARK   10  A    between atoms: N_29  and  C_30
REMARK   11  A    between atoms: N_29  and  S_34
REMARK   12  A    between atoms: C_30  and  C_31
REMARK   13  A    between atoms: C_31  and  C_32
REMARK   14  A    between atoms: C_31  and  C_33
REMARK   15  A    between atoms: S_34  and  C_37
REMARK   16  A    between atoms: C_40  and  N_41
REMARK                            x       y       z     vdW  Elec       q    Type
REMARK                         _______ _______ _______ _____ _____    ______ ____
ROOT
ATOM      1  C   UNL     1       5.839  -0.744  25.593  0.00  0.00    +0.110 C 
ENDROOT
BRANCH   1   3
ATOM      2  C   UNL     1       5.882   1.324  24.179  0.00  0.00    +0.401 C 
ATOM      3  N   UNL     1       6.434   0.143  24.581  0.00  0.00    -0.275 N 
ATOM      4  H   UNL     1       7.419   0.087  24.364  0.00  0.00    +0.152 HD
ATOM      5  O   UNL     1       4.790   1.762  24.503  0.00  0.00    -0.226 OA
BRANCH   2   6
ATOM      6  O   UNL     1       6.791   1.985  23.424  0.00  0.00    -0.444 OA
BRANCH   6   8
ATOM      7  C   UNL     1       9.114   2.318  24.135  0.00  0.00    +0.090 C 
ATOM      8  C   UNL     1       8.125   1.446  23.384  0.00  0.00    +0.212 C 
ATOM      9  C   UNL     1       8.627   1.497  21.940  0.00  0.00    +0.208 C 
ATOM     10  O   UNL     1       9.865   2.218  21.913  0.00  0.00    -0.347 OA
ATOM     11  C   UNL     1      10.341   2.303  23.256  0.00  0.00    +0.257 C 
ATOM     12  O   UNL     1      11.029   3.524  23.488  0.00  0.00    -0.351 OA
ATOM     13  C   UNL     1      10.073   4.507  23.879  0.00  0.00    +0.163 C 
ATOM     14  C   UNL     1       8.785   3.796  24.244  0.00  0.00    +0.040 C 
ENDBRANCH   6   8
ENDBRANCH   2   6
ENDBRANCH   1   3
BRANCH   1  15
ATOM     15  C   UNL     1       6.775  -1.021  26.810  0.00  0.00    +0.151 C 
BRANCH  15  16
ATOM     16  O   UNL     1       7.159   0.201  27.453  0.00  0.00    -0.389 OA
ATOM     17  H   UNL     1       7.962   0.540  27.019  0.00  0.00    +0.210 HD
ENDBRANCH  15  16
BRANCH  15  18
ATOM     18  C   UNL     1       8.006  -1.930  26.589  0.00  0.00    +0.142 C 
BRANCH  18  19
ATOM     19  N   UNL     1       8.161  -2.684  25.275  0.00  0.00    -0.174 NA
BRANCH  19  20
ATOM     20  S   UNL     1       8.474  -4.384  25.617  0.00  0.00    +0.061 S 
ATOM     21  O   UNL     1       8.562  -4.494  27.060  0.00  0.00    -0.153 OA
ATOM     22  O   UNL     1       9.540  -4.844  24.758  0.00  0.00    -0.153 OA
BRANCH  20  23
ATOM     23  C   UNL     1       6.987  -5.231  25.106  0.00  0.00    +0.106 A 
ATOM     24  C   UNL     1       6.636  -5.278  23.752  0.00  0.00    +0.030 A 
ATOM     25  C   UNL     1       5.491  -5.972  23.356  0.00  0.00    +0.024 A 
ATOM     26  C   UNL     1       4.697  -6.642  24.287  0.00  0.00    +0.025 A 
ATOM     27  C   UNL     1       5.018  -6.525  25.647  0.00  0.00    +0.024 A 
ATOM     28  C   UNL     1       6.169  -5.839  26.060  0.00  0.00    +0.030 A 
BRANCH  26  29
ATOM     29  N   UNL     1       3.482  -7.225  23.897  0.00  0.00    -0.358 N 
ATOM     30  H   UNL     1       3.149  -7.952  24.521  0.00  0.00    +0.142 HD
ATOM     31  H   UNL     1       2.771  -6.567  23.605  0.00  0.00    +0.142 HD
ENDBRANCH  26  29
ENDBRANCH  20  23
ENDBRANCH  19  20
BRANCH  19  32
ATOM     32  C   UNL     1       9.256  -2.065  24.408  0.00  0.00    +0.112 C 
BRANCH  32  33
ATOM     33  C   UNL     1       9.252  -2.342  22.889  0.00  0.00    -0.001 C 
ATOM     34  C   UNL     1      10.275  -1.412  22.204  0.00  0.00    +0.008 C 
ATOM     35  C   UNL     1       7.897  -2.110  22.221  0.00  0.00    +0.008 C 
ENDBRANCH  32  33
ENDBRANCH  19  32
ENDBRANCH  18  19
ENDBRANCH  15  18
ENDBRANCH   1  15
BRANCH   1  36
ATOM     36  C   UNL     1       5.361  -2.097  24.973  0.00  0.00    +0.060 C 
BRANCH  36  37
ATOM     37  C   UNL     1       4.227  -2.798  25.702  0.00  0.00    -0.046 A 
ATOM     38  C   UNL     1       4.205  -2.856  27.100  0.00  0.00    +0.004 A 
ATOM     39  C   UNL     1       3.172  -3.515  27.773  0.00  0.00    +0.000 A 
ATOM     40  C   UNL     1       2.140  -4.119  27.053  0.00  0.00    +0.000 A 
ATOM     41  C   UNL     1       2.148  -4.072  25.662  0.00  0.00    +0.000 A 
ATOM     42  C   UNL     1       3.192  -3.428  24.990  0.00  0.00    +0.004 A 
ENDBRANCH  36  37
ENDBRANCH   1  36
TORSDOF 14
ENDMDL
MODEL 8
REMARK VINA RESULT:      -6.3      2.919      7.121
REMARK  Name = 
REMARK  16 active torsions:
REMARK  status: ('A' for Active; 'I' for Inactive)
REMARK    1  A    between atoms: C_10  and  O_12
REMARK    2  A    between atoms: O_12  and  C_13
REMARK    3  A    between atoms: N_15  and  C_16
REMARK    4  A    between atoms: C_16  and  C_18
REMARK    5  A    between atoms: C_16  and  C_25
REMARK    6  A    between atoms: C_18  and  C_19
REMARK    7  A    between atoms: C_25  and  O_27
REMARK    8  A    between atoms: C_25  and  C_28
REMARK    9  A    between atoms: C_28  and  N_29
REMARK   10  A    between atoms: N_29  and  C_30
REMARK   11  A    between atoms: N_29  and  S_34
REMARK   12  A    between atoms: C_30  and  C_31
REMARK   13  A    between atoms: C_31  and  C_32
REMARK   14  A    between atoms: C_31  and  C_33
REMARK   15  A    between atoms: S_34  and  C_37
REMARK   16  A    between atoms: C_40  and  N_41
REMARK                            x       y       z     vdW  Elec       q    Type
REMARK                         _______ _______ _______ _____ _____    ______ ____
ROOT
ATOM      1  C   UNL     1       7.245  -1.836  24.818  0.00  0.00    +0.110 C 
ENDROOT
BRANCH   1   3
ATOM      2  C   UNL     1       7.613  -3.743  26.402  0.00  0.00    +0.401 C 
ATOM      3  N   UNL     1       6.809  -2.786  25.855  0.00  0.00    -0.275 N 
ATOM      4  H   UNL     1       6.008  -2.582  26.434  0.00  0.00    +0.152 HD
ATOM      5  O   UNL     1       8.746  -4.027  26.050  0.00  0.00    -0.226 OA
BRANCH   2   6
ATOM      6  O   UNL     1       6.974  -4.276  27.471  0.00  0.00    -0.444 OA
BRANCH   6   8
ATOM      7  C   UNL     1       5.361  -5.963  26.719  0.00  0.00    +0.090 C 
ATOM      8  C   UNL     1       6.676  -5.683  27.423  0.00  0.00    +0.212 C 
ATOM      9  C   UNL     1       6.433  -6.177  28.849  0.00  0.00    +0.208 C 
ATOM     10  O   UNL     1       5.146  -6.806  28.900  0.00  0.00    -0.347 OA
ATOM     11  C   UNL     1       4.737  -7.053  27.556  0.00  0.00    +0.257 C 
ATOM     12  O   UNL     1       3.329  -6.929  27.408  0.00  0.00    -0.351 OA
ATOM     13  C   UNL     1       3.028  -5.562  27.133  0.00  0.00    +0.163 C 
ATOM     14  C   UNL     1       4.317  -4.862  26.749  0.00  0.00    +0.040 C 
ENDBRANCH   6   8
ENDBRANCH   2   6
ENDBRANCH   1   3
BRANCH   1  15
ATOM     15  C   UNL     1       7.164  -0.343  25.263  0.00  0.00    +0.151 C 
BRANCH  15  16
ATOM     16  O   UNL     1       6.244  -0.180  26.351  0.00  0.00    -0.389 OA
ATOM     17  H   UNL     1       6.754  -0.071  27.172  0.00  0.00    +0.210 HD
ENDBRANCH  15  16
BRANCH  15  18
ATOM     18  C   UNL     1       6.918   0.728  24.176  0.00  0.00    +0.142 C 
BRANCH  18  19
ATOM     19  N   UNL     1       8.103   1.447  23.544  0.00  0.00    -0.174 NA
BRANCH  19  20
ATOM     20  S   UNL     1       7.667   3.128  23.247  0.00  0.00    +0.061 S 
ATOM     21  O   UNL     1       6.814   3.524  24.350  0.00  0.00    -0.153 OA
ATOM     22  O   UNL     1       7.237   3.263  21.874  0.00  0.00    -0.153 OA
BRANCH  20  23
ATOM     23  C   UNL     1       9.200   4.030  23.407  0.00  0.00    +0.106 A 
ATOM     24  C   UNL     1       9.182   5.393  23.724  0.00  0.00    +0.030 A 
ATOM     25  C   UNL     1      10.385   6.083  23.882  0.00  0.00    +0.024 A 
ATOM     26  C   UNL     1      11.612   5.433  23.750  0.00  0.00    +0.025 A 
ATOM     27  C   UNL     1      11.616   4.085  23.360  0.00  0.00    +0.024 A 
ATOM     28  C   UNL     1      10.416   3.376  23.207  0.00  0.00    +0.030 A 
BRANCH  26  29
ATOM     29  N   UNL     1      12.811   6.161  23.783  0.00  0.00    -0.358 N 
ATOM     30  H   UNL     1      12.729   7.114  23.445  0.00  0.00    +0.142 HD
ATOM     31  H   UNL     1      13.342   6.065  24.638  0.00  0.00    +0.142 HD
ENDBRANCH  26  29
ENDBRANCH  20  23
ENDBRANCH  19  20
BRANCH  19  32
ATOM     32  C   UNL     1       8.562   0.742  22.269  0.00  0.00    +0.112 C 
BRANCH  32  33
ATOM     33  C   UNL     1       9.899  -0.030  22.282  0.00  0.00    -0.001 C 
ATOM     34  C   UNL     1       9.646  -1.485  21.835  0.00  0.00    +0.008 C 
ATOM     35  C   UNL     1      10.573  -0.078  23.653  0.00  0.00    +0.008 C 
ENDBRANCH  32  33
ENDBRANCH  19  32
ENDBRANCH  18  19
ENDBRANCH  15  18
ENDBRANCH   1  15
BRANCH   1  36
ATOM     36  C   UNL     1       6.460  -2.035  23.480  0.00  0.00    +0.060 C 
BRANCH  36  37
ATOM     37  C   UNL     1       6.285  -3.472  23.020  0.00  0.00    -0.046 A 
ATOM     38  C   UNL     1       7.366  -4.191  22.496  0.00  0.00    +0.004 A 
ATOM     39  C   UNL     1       7.203  -5.507  22.056  0.00  0.00    +0.000 A 
ATOM     40  C   UNL     1       5.955  -6.126  22.142  0.00  0.00    +0.000 A 
ATOM     41  C   UNL     1       4.870  -5.424  22.659  0.00  0.00    +0.000 A 
ATOM     42  C   UNL     1       5.030  -4.101  23.081  0.00  0.00    +0.004 A 
ENDBRANCH  36  37
ENDBRANCH   1  36
TORSDOF 14
ENDMDL
MODEL 9
REMARK VINA RESULT:      -6.3      2.739      6.650
REMARK  Name = 
REMARK  16 active torsions:
REMARK  status: ('A' for Active; 'I' for Inactive)
REMARK    1  A    between atoms: C_10  and  O_12
REMARK    2  A    between atoms: O_12  and  C_13
REMARK    3  A    between atoms: N_15  and  C_16
REMARK    4  A    between atoms: C_16  and  C_18
REMARK    5  A    between atoms: C_16  and  C_25
REMARK    6  A    between atoms: C_18  and  C_19
REMARK    7  A    between atoms: C_25  and  O_27
REMARK    8  A    between atoms: C_25  and  C_28
REMARK    9  A    between atoms: C_28  and  N_29
REMARK   10  A    between atoms: N_29  and  C_30
REMARK   11  A    between atoms: N_29  and  S_34
REMARK   12  A    between atoms: C_30  and  C_31
REMARK   13  A    between atoms: C_31  and  C_32
REMARK   14  A    between atoms: C_31  and  C_33
REMARK   15  A    between atoms: S_34  and  C_37
REMARK   16  A    between atoms: C_40  and  N_41
REMARK                            x       y       z     vdW  Elec       q    Type
REMARK                         _______ _______ _______ _____ _____    ______ ____
ROOT
ATOM      1  C   UNL     1       6.974   0.475  25.924  0.00  0.00    +0.110 C 
ENDROOT
BRANCH   1   3
ATOM      2  C   UNL     1       7.276   2.957  25.758  0.00  0.00    +0.401 C 
ATOM      3  N   UNL     1       7.785   1.703  25.931  0.00  0.00    -0.275 N 
ATOM      4  H   UNL     1       8.694   1.716  26.371  0.00  0.00    +0.152 HD
ATOM      5  O   UNL     1       6.125   3.240  25.469  0.00  0.00    -0.226 OA
BRANCH   2   6
ATOM      6  O   UNL     1       8.247   3.855  26.051  0.00  0.00    -0.444 OA
BRANCH   6   8
ATOM      7  C   UNL     1       9.141   4.805  23.974  0.00  0.00    +0.090 C 
ATOM      8  C   UNL     1       8.319   5.034  25.229  0.00  0.00    +0.212 C 
ATOM      9  C   UNL     1       9.107   6.105  25.984  0.00  0.00    +0.208 C 
ATOM     10  O   UNL     1      10.196   6.536  25.157  0.00  0.00    -0.347 OA
ATOM     11  C   UNL     1       9.933   6.081  23.831  0.00  0.00    +0.257 C 
ATOM     12  O   UNL     1      11.133   5.745  23.148  0.00  0.00    -0.351 OA
ATOM     13  C   UNL     1      11.445   4.384  23.437  0.00  0.00    +0.163 C 
ATOM     14  C   UNL     1      10.215   3.735  24.042  0.00  0.00    +0.040 C 
ENDBRANCH   6   8
ENDBRANCH   2   6
ENDBRANCH   1   3
BRANCH   1  15
ATOM     15  C   UNL     1       7.591  -0.687  26.762  0.00  0.00    +0.151 C 
BRANCH  15  16
ATOM     16  O   UNL     1       8.937  -0.383  27.151  0.00  0.00    -0.389 OA
ATOM     17  H   UNL     1       8.919   0.019  28.037  0.00  0.00    +0.210 HD
ENDBRANCH  15  16
BRANCH  15  18
ATOM     18  C   UNL     1       7.499  -2.122  26.194  0.00  0.00    +0.142 C 
BRANCH  18  19
ATOM     19  N   UNL     1       7.016  -3.257  27.087  0.00  0.00    -0.174 NA
BRANCH  19  20
ATOM     20  S   UNL     1       7.764  -4.764  26.562  0.00  0.00    +0.061 S 
ATOM     21  O   UNL     1       7.116  -5.819  27.316  0.00  0.00    -0.153 OA
ATOM     22  O   UNL     1       9.199  -4.600  26.572  0.00  0.00    -0.153 OA
BRANCH  20  23
ATOM     23  C   UNL     1       7.270  -4.945  24.856  0.00  0.00    +0.106 A 
ATOM     24  C   UNL     1       6.200  -5.784  24.520  0.00  0.00    +0.030 A 
ATOM     25  C   UNL     1       5.796  -5.893  23.189  0.00  0.00    +0.024 A 
ATOM     26  C   UNL     1       6.429  -5.164  22.182  0.00  0.00    +0.025 A 
ATOM     27  C   UNL     1       7.546  -4.386  22.521  0.00  0.00    +0.024 A 
ATOM     28  C   UNL     1       7.957  -4.258  23.855  0.00  0.00    +0.030 A 
BRANCH  26  29
ATOM     29  N   UNL     1       6.102  -5.379  20.835  0.00  0.00    -0.358 N 
ATOM     30  H   UNL     1       5.116  -5.548  20.667  0.00  0.00    +0.142 HD
ATOM     31  H   UNL     1       6.532  -4.733  20.186  0.00  0.00    +0.142 HD
ENDBRANCH  26  29
ENDBRANCH  20  23
ENDBRANCH  19  20
BRANCH  19  32
ATOM     32  C   UNL     1       5.491  -3.348  27.090  0.00  0.00    +0.112 C 
BRANCH  32  33
ATOM     33  C   UNL     1       4.693  -2.533  26.049  0.00  0.00    -0.001 C 
ATOM     34  C   UNL     1       3.851  -1.467  26.781  0.00  0.00    +0.008 C 
ATOM     35  C   UNL     1       3.737  -3.376  25.205  0.00  0.00    +0.008 C 
ENDBRANCH  32  33
ENDBRANCH  19  32
ENDBRANCH  18  19
ENDBRANCH  15  18
ENDBRANCH   1  15
BRANCH   1  36
ATOM     36  C   UNL     1       6.676  -0.018  24.470  0.00  0.00    +0.060 C 
BRANCH  36  37
ATOM     37  C   UNL     1       7.716   0.338  23.422  0.00  0.00    -0.046 A 
ATOM     38  C   UNL     1       7.457   1.329  22.467  0.00  0.00    +0.004 A 
ATOM     39  C   UNL     1       8.405   1.647  21.491  0.00  0.00    +0.000 A 
ATOM     40  C   UNL     1       9.632   0.982  21.463  0.00  0.00    +0.000 A 
ATOM     41  C   UNL     1       9.905  -0.006  22.404  0.00  0.00    +0.000 A 
ATOM     42  C   UNL     1       8.948  -0.336  23.368  0.00  0.00    +0.004 A 
ENDBRANCH  36  37
ENDBRANCH   1  36
TORSDOF 14
ENDMDL
