MODEL 1
REMARK VINA RESULT:      -4.8      0.000      0.000
REMARK  Name = 
REMARK  4 active torsions:
REMARK  status: ('A' for Active; 'I' for Inactive)
REMARK    1  A    between atoms: C_1  and  O_2
REMARK    2  A    between atoms: O_2  and  C_3
REMARK    3  A    between atoms: C_6  and  C_9
REMARK    4  A    between atoms: C_9  and  O_10
REMARK                            x       y       z     vdW  Elec       q    Type
REMARK                         _______ _______ _______ _____ _____    ______ ____
ROOT
ATOM      1  C   UNL     1      10.145  -0.581  22.818  0.00  0.00    +0.120 A 
ATOM      2  C   UNL     1      10.556  -0.072  24.052  0.00  0.00    +0.046 A 
ATOM      3  C   UNL     1      10.635   1.307  24.262  0.00  0.00    +0.018 A 
ATOM      4  C   UNL     1      10.308   2.190  23.230  0.00  0.00    +0.059 A 
ATOM      5  C   UNL     1       9.871   1.687  22.000  0.00  0.00    +0.018 A 
ATOM      6  C   UNL     1       9.799   0.302  21.793  0.00  0.00    +0.046 A 
ENDROOT
BRANCH   1   8
ATOM      7  C   UNL     1       9.715  -2.648  23.917  0.00  0.00    +0.277 C 
ATOM      8  O   UNL     1      10.116  -1.946  22.746  0.00  0.00    -0.495 OA
ENDBRANCH   1   8
BRANCH   4   9
ATOM      9  C   UNL     1      10.393   3.647  23.500  0.00  0.00    +0.337 C 
ATOM     10  O   UNL     1       9.559   4.252  24.151  0.00  0.00    -0.245 OA
BRANCH   9  11
ATOM     11  O   UNL     1      11.501   4.230  22.995  0.00  0.00    -0.477 OA
ATOM     12  H   UNL     1      11.429   4.515  22.066  0.00  0.00    +0.295 HD
ENDBRANCH   9  11
ENDBRANCH   4   9
TORSDOF 3
ENDMDL
MODEL 2
REMARK VINA RESULT:      -4.8      1.528      1.915
REMARK  Name = 
REMARK  4 active torsions:
REMARK  status: ('A' for Active; 'I' for Inactive)
REMARK    1  A    between atoms: C_1  and  O_2
REMARK    2  A    between atoms: O_2  and  C_3
REMARK    3  A    between atoms: C_6  and  C_9
REMARK    4  A    between atoms: C_9  and  O_10
REMARK                            x       y       z     vdW  Elec       q    Type
REMARK                         _______ _______ _______ _____ _____    ______ ____
ROOT
ATOM      1  C   UNL     1       9.729  -2.143  23.621  0.00  0.00    +0.120 A 
ATOM      2  C   UNL     1       9.866  -1.210  24.652  0.00  0.00    +0.046 A 
ATOM      3  C   UNL     1      10.029   0.148  24.365  0.00  0.00    +0.018 A 
ATOM      4  C   UNL     1      10.062   0.582  23.038  0.00  0.00    +0.059 A 
ATOM      5  C   UNL     1       9.899  -0.344  22.001  0.00  0.00    +0.018 A 
ATOM      6  C   UNL     1       9.742  -1.706  22.295  0.00  0.00    +0.046 A 
ENDROOT
BRANCH   1   8
ATOM      7  C   UNL     1       8.298  -4.029  23.872  0.00  0.00    +0.277 C 
ATOM      8  O   UNL     1       9.581  -3.437  24.040  0.00  0.00    -0.495 OA
ENDBRANCH   1   8
BRANCH   4   9
ATOM      9  C   UNL     1      10.224   2.035  22.778  0.00  0.00    +0.337 C 
ATOM     10  O   UNL     1      10.495   2.839  23.652  0.00  0.00    -0.245 OA
BRANCH   9  11
ATOM     11  O   UNL     1      10.086   2.374  21.479  0.00  0.00    -0.477 OA
ATOM     12  H   UNL     1       9.550   3.171  21.317  0.00  0.00    +0.295 HD
ENDBRANCH   9  11
ENDBRANCH   4   9
TORSDOF 3
ENDMDL
MODEL 3
REMARK VINA RESULT:      -4.7      0.439      1.746
REMARK  Name = 
REMARK  4 active torsions:
REMARK  status: ('A' for Active; 'I' for Inactive)
REMARK    1  A    between atoms: C_1  and  O_2
REMARK    2  A    between atoms: O_2  and  C_3
REMARK    3  A    between atoms: C_6  and  C_9
REMARK    4  A    between atoms: C_9  and  O_10
REMARK                            x       y       z     vdW  Elec       q    Type
REMARK                         _______ _______ _______ _____ _____    ______ ____
ROOT
ATOM      1  C   UNL     1       9.906  -0.628  23.082  0.00  0.00    +0.120 A 
ATOM      2  C   UNL     1       9.782   0.199  21.963  0.00  0.00    +0.046 A 
ATOM      3  C   UNL     1      10.058   1.565  22.053  0.00  0.00    +0.018 A 
ATOM      4  C   UNL     1      10.456   2.118  23.273  0.00  0.00    +0.059 A 
ATOM      5  C   UNL     1      10.607   1.290  24.392  0.00  0.00    +0.018 A 
ATOM      6  C   UNL     1      10.323  -0.079  24.297  0.00  0.00    +0.046 A 
ENDROOT
BRANCH   1   8
ATOM      7  C   UNL     1       9.673  -2.824  23.971  0.00  0.00    +0.277 C 
ATOM      8  O   UNL     1       9.602  -1.942  22.857  0.00  0.00    -0.495 OA
ENDBRANCH   1   8
BRANCH   4   9
ATOM      9  C   UNL     1      10.752   3.571  23.323  0.00  0.00    +0.337 C 
ATOM     10  O   UNL     1      11.883   4.016  23.413  0.00  0.00    -0.245 OA
BRANCH   9  11
ATOM     11  O   UNL     1       9.657   4.354  23.214  0.00  0.00    -0.477 OA
ATOM     12  H   UNL     1       9.787   5.172  22.702  0.00  0.00    +0.295 HD
ENDBRANCH   9  11
ENDBRANCH   4   9
TORSDOF 3
ENDMDL
MODEL 4
REMARK VINA RESULT:      -4.6      0.934      4.797
REMARK  Name = 
REMARK  4 active torsions:
REMARK  status: ('A' for Active; 'I' for Inactive)
REMARK    1  A    between atoms: C_1  and  O_2
REMARK    2  A    between atoms: O_2  and  C_3
REMARK    3  A    between atoms: C_6  and  C_9
REMARK    4  A    between atoms: C_9  and  O_10
REMARK                            x       y       z     vdW  Elec       q    Type
REMARK                         _______ _______ _______ _____ _____    ______ ____
ROOT
ATOM      1  C   UNL     1      10.076   2.550  23.475  0.00  0.00    +0.120 A 
ATOM      2  C   UNL     1       9.851   2.079  22.179  0.00  0.00    +0.046 A 
ATOM      3  C   UNL     1       9.879   0.710  21.903  0.00  0.00    +0.018 A 
ATOM      4  C   UNL     1      10.139  -0.203  22.928  0.00  0.00    +0.059 A 
ATOM      5  C   UNL     1      10.339   0.260  24.234  0.00  0.00    +0.018 A 
ATOM      6  C   UNL     1      10.316   1.635  24.503  0.00  0.00    +0.046 A 
ENDROOT
BRANCH   1   8
ATOM      7  C   UNL     1       9.045   4.439  24.492  0.00  0.00    +0.277 C 
ATOM      8  O   UNL     1      10.024   3.910  23.605  0.00  0.00    -0.495 OA
ENDBRANCH   1   8
BRANCH   4   9
ATOM      9  C   UNL     1      10.147  -1.649  22.595  0.00  0.00    +0.337 C 
ATOM     10  O   UNL     1      10.352  -2.520  23.423  0.00  0.00    -0.245 OA
BRANCH   9  11
ATOM     11  O   UNL     1       9.862  -1.912  21.302  0.00  0.00    -0.477 OA
ATOM     12  H   UNL     1      10.257  -1.293  20.661  0.00  0.00    +0.295 HD
ENDBRANCH   9  11
ENDBRANCH   4   9
TORSDOF 3
ENDMDL
MODEL 5
REMARK VINA RESULT:      -4.3      1.617      5.189
REMARK  Name = 
REMARK  4 active torsions:
REMARK  status: ('A' for Active; 'I' for Inactive)
REMARK    1  A    between atoms: C_1  and  O_2
REMARK    2  A    between atoms: O_2  and  C_3
REMARK    3  A    between atoms: C_6  and  C_9
REMARK    4  A    between atoms: C_9  and  O_10
REMARK                            x       y       z     vdW  Elec       q    Type
REMARK                         _______ _______ _______ _____ _____    ______ ____
ROOT
ATOM      1  C   UNL     1      10.174   0.821  22.843  0.00  0.00    +0.120 A 
ATOM      2  C   UNL     1       9.881  -0.160  21.891  0.00  0.00    +0.046 A 
ATOM      3  C   UNL     1       9.574  -1.464  22.285  0.00  0.00    +0.018 A 
ATOM      4  C   UNL     1       9.563  -1.800  23.641  0.00  0.00    +0.059 A 
ATOM      5  C   UNL     1       9.830  -0.817  24.600  0.00  0.00    +0.018 A 
ATOM      6  C   UNL     1      10.143   0.489  24.200  0.00  0.00    +0.046 A 
ENDROOT
BRANCH   1   8
ATOM      7  C   UNL     1      10.727   3.100  23.248  0.00  0.00    +0.277 C 
ATOM      8  O   UNL     1      10.460   2.052  22.323  0.00  0.00    -0.495 OA
ENDBRANCH   1   8
BRANCH   4   9
ATOM      9  C   UNL     1       9.219  -3.195  24.016  0.00  0.00    +0.337 C 
ATOM     10  O   UNL     1      10.043  -3.995  24.422  0.00  0.00    -0.245 OA
BRANCH   9  11
ATOM     11  O   UNL     1       7.904  -3.479  23.908  0.00  0.00    -0.477 OA
ATOM     12  H   UNL     1       7.373  -2.799  23.456  0.00  0.00    +0.295 HD
ENDBRANCH   9  11
ENDBRANCH   4   9
TORSDOF 3
ENDMDL
MODEL 6
REMARK VINA RESULT:      -4.3      0.984      1.288
REMARK  Name = 
REMARK  4 active torsions:
REMARK  status: ('A' for Active; 'I' for Inactive)
REMARK    1  A    between atoms: C_1  and  O_2
REMARK    2  A    between atoms: O_2  and  C_3
REMARK    3  A    between atoms: C_6  and  C_9
REMARK    4  A    between atoms: C_9  and  O_10
REMARK                            x       y       z     vdW  Elec       q    Type
REMARK                         _______ _______ _______ _____ _____    ______ ____
ROOT
ATOM      1  C   UNL     1       9.480  -0.318  23.161  0.00  0.00    +0.120 A 
ATOM      2  C   UNL     1       9.814   0.277  24.380  0.00  0.00    +0.046 A 
ATOM      3  C   UNL     1      10.282   1.592  24.425  0.00  0.00    +0.018 A 
ATOM      4  C   UNL     1      10.425   2.323  23.243  0.00  0.00    +0.059 A 
ATOM      5  C   UNL     1      10.067   1.741  22.021  0.00  0.00    +0.018 A 
ATOM      6  C   UNL     1       9.604   0.419  21.982  0.00  0.00    +0.046 A 
ENDROOT
BRANCH   1   8
ATOM      7  C   UNL     1       8.462  -2.187  22.094  0.00  0.00    +0.277 C 
ATOM      8  O   UNL     1       9.039  -1.609  23.259  0.00  0.00    -0.495 OA
ENDBRANCH   1   8
BRANCH   4   9
ATOM      9  C   UNL     1      10.914   3.722  23.337  0.00  0.00    +0.337 C 
ATOM     10  O   UNL     1      12.088   4.005  23.500  0.00  0.00    -0.245 OA
BRANCH   9  11
ATOM     11  O   UNL     1       9.945   4.648  23.180  0.00  0.00    -0.477 OA
ATOM     12  H   UNL     1       9.499   4.919  24.003  0.00  0.00    +0.295 HD
ENDBRANCH   9  11
ENDBRANCH   4   9
TORSDOF 3
ENDMDL
MODEL 7
REMARK VINA RESULT:      -4.2      6.993      7.997
REMARK  Name = 
REMARK  4 active torsions:
REMARK  status: ('A' for Active; 'I' for Inactive)
REMARK    1  A    between atoms: C_1  and  O_2
REMARK    2  A    between atoms: O_2  and  C_3
REMARK    3  A    between atoms: C_6  and  C_9
REMARK    4  A    between atoms: C_9  and  O_10
REMARK                            x       y       z     vdW  Elec       q    Type
REMARK                         _______ _______ _______ _____ _____    ______ ____
ROOT
ATOM      1  C   UNL     1       5.171  -4.987  23.138  0.00  0.00    +0.120 A 
ATOM      2  C   UNL     1       5.215  -4.894  24.532  0.00  0.00    +0.046 A 
ATOM      3  C   UNL     1       6.431  -4.983  25.213  0.00  0.00    +0.018 A 
ATOM      4  C   UNL     1       7.618  -5.172  24.500  0.00  0.00    +0.059 A 
ATOM      5  C   UNL     1       7.584  -5.239  23.103  0.00  0.00    +0.018 A 
ATOM      6  C   UNL     1       6.360  -5.155  22.425  0.00  0.00    +0.046 A 
ENDROOT
BRANCH   1   8
ATOM      7  C   UNL     1       2.835  -5.377  23.383  0.00  0.00    +0.277 C 
ATOM      8  O   UNL     1       3.918  -4.888  22.600  0.00  0.00    -0.495 OA
ENDBRANCH   1   8
BRANCH   4   9
ATOM      9  C   UNL     1       8.890  -5.247  25.262  0.00  0.00    +0.337 C 
ATOM     10  O   UNL     1       9.954  -4.856  24.816  0.00  0.00    -0.245 OA
BRANCH   9  11
ATOM     11  O   UNL     1       8.749  -5.747  26.508  0.00  0.00    -0.477 OA
ATOM     12  H   UNL     1       8.522  -6.694  26.547  0.00  0.00    +0.295 HD
ENDBRANCH   9  11
ENDBRANCH   4   9
TORSDOF 3
ENDMDL
MODEL 8
REMARK VINA RESULT:      -4.2      2.576      4.908
REMARK  Name = 
REMARK  4 active torsions:
REMARK  status: ('A' for Active; 'I' for Inactive)
REMARK    1  A    between atoms: C_1  and  O_2
REMARK    2  A    between atoms: O_2  and  C_3
REMARK    3  A    between atoms: C_6  and  C_9
REMARK    4  A    between atoms: C_9  and  O_10
REMARK                            x       y       z     vdW  Elec       q    Type
REMARK                         _______ _______ _______ _____ _____    ______ ____
ROOT
ATOM      1  C   UNL     1       7.337   1.995  22.116  0.00  0.00    +0.120 A 
ATOM      2  C   UNL     1       8.635   1.964  21.599  0.00  0.00    +0.046 A 
ATOM      3  C   UNL     1       9.460   0.857  21.811  0.00  0.00    +0.018 A 
ATOM      4  C   UNL     1       8.991  -0.230  22.553  0.00  0.00    +0.059 A 
ATOM      5  C   UNL     1       7.683  -0.217  23.052  0.00  0.00    +0.018 A 
ATOM      6  C   UNL     1       6.862   0.899  22.840  0.00  0.00    +0.046 A 
ENDROOT
BRANCH   1   8
ATOM      7  C   UNL     1       7.207   4.366  22.276  0.00  0.00    +0.277 C 
ATOM      8  O   UNL     1       6.639   3.137  21.837  0.00  0.00    -0.495 OA
ENDBRANCH   1   8
BRANCH   4   9
ATOM      9  C   UNL     1       9.896  -1.392  22.745  0.00  0.00    +0.337 C 
ATOM     10  O   UNL     1       9.983  -1.998  23.798  0.00  0.00    -0.245 OA
BRANCH   9  11
ATOM     11  O   UNL     1      10.577  -1.741  21.633  0.00  0.00    -0.477 OA
ATOM     12  H   UNL     1      10.367  -1.214  20.840  0.00  0.00    +0.295 HD
ENDBRANCH   9  11
ENDBRANCH   4   9
TORSDOF 3
ENDMDL
MODEL 9
REMARK VINA RESULT:      -4.2      3.731      7.295
REMARK  Name = 
REMARK  4 active torsions:
REMARK  status: ('A' for Active; 'I' for Inactive)
REMARK    1  A    between atoms: C_1  and  O_2
REMARK    2  A    between atoms: O_2  and  C_3
REMARK    3  A    between atoms: C_6  and  C_9
REMARK    4  A    between atoms: C_9  and  O_10
REMARK                            x       y       z     vdW  Elec       q    Type
REMARK                         _______ _______ _______ _____ _____    ______ ____
ROOT
ATOM      1  C   UNL     1       8.928  -2.975  23.617  0.00  0.00    +0.120 A 
ATOM      2  C   UNL     1       8.066  -2.627  22.574  0.00  0.00    +0.046 A 
ATOM      3  C   UNL     1       7.025  -3.479  22.198  0.00  0.00    +0.018 A 
ATOM      4  C   UNL     1       6.842  -4.694  22.862  0.00  0.00    +0.059 A 
ATOM      5  C   UNL     1       7.687  -5.037  23.925  0.00  0.00    +0.018 A 
ATOM      6  C   UNL     1       8.733  -4.181  24.294  0.00  0.00    +0.046 A 
ENDROOT
BRANCH   1   8
ATOM      7  C   UNL     1      10.312  -1.217  22.804  0.00  0.00    +0.277 C 
ATOM      8  O   UNL     1       9.905  -2.055  23.880  0.00  0.00    -0.495 OA
ENDBRANCH   1   8
BRANCH   4   9
ATOM      9  C   UNL     1       5.716  -5.564  22.439  0.00  0.00    +0.337 C 
ATOM     10  O   UNL     1       4.562  -5.175  22.384  0.00  0.00    -0.245 OA
BRANCH   9  11
ATOM     11  O   UNL     1       6.094  -6.808  22.080  0.00  0.00    -0.477 OA
ATOM     12  H   UNL     1       6.561  -6.866  21.227  0.00  0.00    +0.295 HD
ENDBRANCH   9  11
ENDBRANCH   4   9
TORSDOF 3
ENDMDL
