MODEL 1
REMARK VINA RESULT:      -6.2      0.000      0.000
REMARK  Name = 
REMARK  13 active torsions:
REMARK  status: ('A' for Active; 'I' for Inactive)
REMARK    1  A    between atoms: C_1  and  C_2
REMARK    2  A    between atoms: C_2  and  N_3
REMARK    3  A    between atoms: N_3  and  C_4
REMARK    4  A    between atoms: N_3  and  C_5
REMARK    5  A    between atoms: N_3  and  C_7
REMARK    6  A    between atoms: C_5  and  C_6
REMARK    7  A    between atoms: C_7  and  C_8
REMARK    8  A    between atoms: C_8  and  O_9
REMARK    9  A    between atoms: O_9  and  C_10
REMARK   10  A    between atoms: C_10  and  C_12
REMARK   11  A    between atoms: C_12  and  O_13
REMARK   12  A    between atoms: C_12  and  C_14
REMARK   13  A    between atoms: C_12  and  C_20
REMARK                            x       y       z     vdW  Elec       q    Type
REMARK                         _______ _______ _______ _____ _____    ______ ____
ROOT
ATOM      1  C   UNL     1       8.954  -3.679  24.549  0.00  0.00    +0.190 C 
ENDROOT
BRANCH   1   2
ATOM      2  C   UNL     1       8.001  -4.066  23.403  0.00  0.00    -0.005 A 
ATOM      3  C   UNL     1       7.686  -5.415  23.142  0.00  0.00    +0.007 A 
ATOM      4  C   UNL     1       6.712  -5.768  22.205  0.00  0.00    +0.000 A 
ATOM      5  C   UNL     1       6.019  -4.782  21.514  0.00  0.00    +0.000 A 
ATOM      6  C   UNL     1       6.312  -3.443  21.747  0.00  0.00    +0.000 A 
ATOM      7  C   UNL     1       7.295  -3.090  22.675  0.00  0.00    +0.007 A 
ENDBRANCH   1   2
BRANCH   1   8
ATOM      8  C   UNL     1       8.305  -3.544  25.971  0.00  0.00    +0.036 C 
ATOM      9  C   UNL     1       8.091  -4.806  26.828  0.00  0.00    +0.007 C 
ATOM     10  C   UNL     1       6.835  -5.607  26.503  0.00  0.00    +0.000 C 
ATOM     11  C   UNL     1       5.582  -4.740  26.484  0.00  0.00    +0.000 C 
ATOM     12  C   UNL     1       5.748  -3.492  25.628  0.00  0.00    +0.000 C 
ATOM     13  C   UNL     1       7.002  -2.703  25.992  0.00  0.00    +0.007 C 
ENDBRANCH   1   8
BRANCH   1  14
ATOM     14  C   UNL     1       9.771  -2.447  24.032  0.00  0.00    +0.344 C 
ATOM     15  O   UNL     1      10.554  -2.411  23.093  0.00  0.00    -0.247 OA
BRANCH  14  16
ATOM     16  O   UNL     1       9.581  -1.367  24.857  0.00  0.00    -0.457 OA
BRANCH  16  17
ATOM     17  C   UNL     1      10.331  -0.205  24.480  0.00  0.00    +0.283 C 
BRANCH  17  18
ATOM     18  C   UNL     1       9.591   1.146  24.520  0.00  0.00    +0.174 C 
BRANCH  18  19
ATOM     19  N   UNL     1       8.840   1.582  23.192  0.00  0.00    +0.243 N 
ATOM     20  C   UNL     1       8.717   3.102  23.184  0.00  0.00    +0.192 C 
BRANCH  19  22
ATOM     21  C   UNL     1       9.204   0.056  21.105  0.00  0.00    +0.060 C 
ATOM     22  C   UNL     1       9.780   1.083  22.063  0.00  0.00    +0.129 C 
ENDBRANCH  19  22
BRANCH  19  23
ATOM     23  C   UNL     1       7.464   0.899  23.183  0.00  0.00    +0.129 C 
ATOM     24  C   UNL     1       6.753   0.775  24.516  0.00  0.00    +0.060 C 
ENDBRANCH  19  23
ENDBRANCH  18  19
ENDBRANCH  17  18
ENDBRANCH  16  17
ENDBRANCH  14  16
ENDBRANCH   1  14
BRANCH   1  25
ATOM     25  O   UNL     1       9.890  -4.785  24.686  0.00  0.00    -0.373 OA
ATOM     26  H   UNL     1      10.196  -5.029  23.796  0.00  0.00    +0.211 HD
ENDBRANCH   1  25
TORSDOF 10
ENDMDL
MODEL 2
REMARK VINA RESULT:      -5.8      1.204      2.277
REMARK  Name = 
REMARK  13 active torsions:
REMARK  status: ('A' for Active; 'I' for Inactive)
REMARK    1  A    between atoms: C_1  and  C_2
REMARK    2  A    between atoms: C_2  and  N_3
REMARK    3  A    between atoms: N_3  and  C_4
REMARK    4  A    between atoms: N_3  and  C_5
REMARK    5  A    between atoms: N_3  and  C_7
REMARK    6  A    between atoms: C_5  and  C_6
REMARK    7  A    between atoms: C_7  and  C_8
REMARK    8  A    between atoms: C_8  and  O_9
REMARK    9  A    between atoms: O_9  and  C_10
REMARK   10  A    between atoms: C_10  and  C_12
REMARK   11  A    between atoms: C_12  and  O_13
REMARK   12  A    between atoms: C_12  and  C_14
REMARK   13  A    between atoms: C_12  and  C_20
REMARK                            x       y       z     vdW  Elec       q    Type
REMARK                         _______ _______ _______ _____ _____    ______ ____
ROOT
ATOM      1  C   UNL     1       8.441  -3.148  23.999  0.00  0.00    +0.190 C 
ENDROOT
BRANCH   1   2
ATOM      2  C   UNL     1       7.594  -4.049  23.082  0.00  0.00    -0.005 A 
ATOM      3  C   UNL     1       6.671  -3.499  22.170  0.00  0.00    +0.007 A 
ATOM      4  C   UNL     1       6.008  -4.295  21.233  0.00  0.00    +0.000 A 
ATOM      5  C   UNL     1       6.259  -5.660  21.176  0.00  0.00    +0.000 A 
ATOM      6  C   UNL     1       7.161  -6.233  22.067  0.00  0.00    +0.000 A 
ATOM      7  C   UNL     1       7.815  -5.438  23.012  0.00  0.00    +0.007 A 
ENDBRANCH   1   2
BRANCH   1   8
ATOM      8  C   UNL     1       7.921  -2.976  25.470  0.00  0.00    +0.036 C 
ATOM      9  C   UNL     1       8.526  -3.840  26.592  0.00  0.00    +0.007 C 
ATOM     10  C   UNL     1       7.946  -5.244  26.718  0.00  0.00    +0.000 C 
ATOM     11  C   UNL     1       6.424  -5.239  26.792  0.00  0.00    +0.000 C 
ATOM     12  C   UNL     1       5.787  -4.413  25.684  0.00  0.00    +0.000 C 
ATOM     13  C   UNL     1       6.375  -3.007  25.599  0.00  0.00    +0.007 C 
ENDBRANCH   1   8
BRANCH   1  14
ATOM     14  C   UNL     1       8.702  -1.833  23.191  0.00  0.00    +0.344 C 
ATOM     15  O   UNL     1       9.385  -1.698  22.185  0.00  0.00    -0.247 OA
BRANCH  14  16
ATOM     16  O   UNL     1       8.129  -0.760  23.826  0.00  0.00    -0.457 OA
BRANCH  16  17
ATOM     17  C   UNL     1       7.087  -0.125  23.074  0.00  0.00    +0.283 C 
BRANCH  17  18
ATOM     18  C   UNL     1       6.760   1.338  23.432  0.00  0.00    +0.174 C 
BRANCH  18  19
ATOM     19  N   UNL     1       7.813   2.432  22.972  0.00  0.00    +0.243 N 
ATOM     20  C   UNL     1       7.053   3.686  22.555  0.00  0.00    +0.192 C 
BRANCH  19  22
ATOM     21  C   UNL     1       7.890   2.950  25.529  0.00  0.00    +0.060 C 
ATOM     22  C   UNL     1       8.659   2.680  24.249  0.00  0.00    +0.129 C 
ENDBRANCH  19  22
BRANCH  19  23
ATOM     23  C   UNL     1       8.625   1.845  21.809  0.00  0.00    +0.129 C 
ATOM     24  C   UNL     1      10.128   1.778  21.988  0.00  0.00    +0.060 C 
ENDBRANCH  19  23
ENDBRANCH  18  19
ENDBRANCH  17  18
ENDBRANCH  16  17
ENDBRANCH  14  16
ENDBRANCH   1  14
BRANCH   1  25
ATOM     25  O   UNL     1       9.724  -3.819  24.150  0.00  0.00    -0.373 OA
ATOM     26  H   UNL     1       9.593  -4.583  24.736  0.00  0.00    +0.211 HD
ENDBRANCH   1  25
TORSDOF 10
ENDMDL
MODEL 3
REMARK VINA RESULT:      -5.8      2.154      5.566
REMARK  Name = 
REMARK  13 active torsions:
REMARK  status: ('A' for Active; 'I' for Inactive)
REMARK    1  A    between atoms: C_1  and  C_2
REMARK    2  A    between atoms: C_2  and  N_3
REMARK    3  A    between atoms: N_3  and  C_4
REMARK    4  A    between atoms: N_3  and  C_5
REMARK    5  A    between atoms: N_3  and  C_7
REMARK    6  A    between atoms: C_5  and  C_6
REMARK    7  A    between atoms: C_7  and  C_8
REMARK    8  A    between atoms: C_8  and  O_9
REMARK    9  A    between atoms: O_9  and  C_10
REMARK   10  A    between atoms: C_10  and  C_12
REMARK   11  A    between atoms: C_12  and  O_13
REMARK   12  A    between atoms: C_12  and  C_14
REMARK   13  A    between atoms: C_12  and  C_20
REMARK                            x       y       z     vdW  Elec       q    Type
REMARK                         _______ _______ _______ _____ _____    ______ ____
ROOT
ATOM      1  C   UNL     1       8.730  -2.642  24.558  0.00  0.00    +0.190 C 
ENDROOT
BRANCH   1   2
ATOM      2  C   UNL     1       7.779  -3.163  23.464  0.00  0.00    -0.005 A 
ATOM      3  C   UNL     1       7.959  -4.435  22.887  0.00  0.00    +0.007 A 
ATOM      4  C   UNL     1       7.021  -4.976  22.004  0.00  0.00    +0.000 A 
ATOM      5  C   UNL     1       5.873  -4.262  21.685  0.00  0.00    +0.000 A 
ATOM      6  C   UNL     1       5.670  -3.001  22.236  0.00  0.00    +0.000 A 
ATOM      7  C   UNL     1       6.615  -2.456  23.109  0.00  0.00    +0.007 A 
ENDBRANCH   1   2
BRANCH   1   8
ATOM      8  C   UNL     1       9.818  -1.611  24.094  0.00  0.00    +0.036 C 
ATOM      9  C   UNL     1       9.577  -0.106  24.313  0.00  0.00    +0.007 C 
ATOM     10  C   UNL     1       8.709   0.574  23.260  0.00  0.00    +0.000 C 
ATOM     11  C   UNL     1       9.194   0.298  21.842  0.00  0.00    +0.000 C 
ATOM     12  C   UNL     1       9.424  -1.184  21.579  0.00  0.00    +0.000 C 
ATOM     13  C   UNL     1      10.312  -1.828  22.640  0.00  0.00    +0.007 C 
ENDBRANCH   1   8
BRANCH   1  14
ATOM     14  C   UNL     1       9.245  -3.910  25.320  0.00  0.00    +0.344 C 
ATOM     15  O   UNL     1      10.017  -4.765  24.910  0.00  0.00    -0.247 OA
BRANCH  14  16
ATOM     16  O   UNL     1       8.623  -4.021  26.538  0.00  0.00    -0.457 OA
BRANCH  16  17
ATOM     17  C   UNL     1       7.943  -5.268  26.734  0.00  0.00    +0.283 C 
BRANCH  17  18
ATOM     18  C   UNL     1       6.589  -5.216  27.467  0.00  0.00    +0.174 C 
BRANCH  18  19
ATOM     19  N   UNL     1       5.290  -5.176  26.556  0.00  0.00    +0.243 N 
ATOM     20  C   UNL     1       4.164  -5.894  27.291  0.00  0.00    +0.192 C 
BRANCH  19  22
ATOM     21  C   UNL     1       3.851  -3.275  25.493  0.00  0.00    +0.060 C 
ATOM     22  C   UNL     1       4.997  -3.659  26.412  0.00  0.00    +0.129 C 
ENDBRANCH  19  22
BRANCH  19  23
ATOM     23  C   UNL     1       5.628  -5.860  25.224  0.00  0.00    +0.129 C 
ATOM     24  C   UNL     1       4.567  -6.765  24.631  0.00  0.00    +0.060 C 
ENDBRANCH  19  23
ENDBRANCH  18  19
ENDBRANCH  17  18
ENDBRANCH  16  17
ENDBRANCH  14  16
ENDBRANCH   1  14
BRANCH   1  25
ATOM     25  O   UNL     1       7.900  -1.892  25.490  0.00  0.00    -0.373 OA
ATOM     26  H   UNL     1       8.459  -1.214  25.905  0.00  0.00    +0.211 HD
ENDBRANCH   1  25
TORSDOF 10
ENDMDL
MODEL 4
REMARK VINA RESULT:      -5.7      2.360      7.004
REMARK  Name = 
REMARK  13 active torsions:
REMARK  status: ('A' for Active; 'I' for Inactive)
REMARK    1  A    between atoms: C_1  and  C_2
REMARK    2  A    between atoms: C_2  and  N_3
REMARK    3  A    between atoms: N_3  and  C_4
REMARK    4  A    between atoms: N_3  and  C_5
REMARK    5  A    between atoms: N_3  and  C_7
REMARK    6  A    between atoms: C_5  and  C_6
REMARK    7  A    between atoms: C_7  and  C_8
REMARK    8  A    between atoms: C_8  and  O_9
REMARK    9  A    between atoms: O_9  and  C_10
REMARK   10  A    between atoms: C_10  and  C_12
REMARK   11  A    between atoms: C_12  and  O_13
REMARK   12  A    between atoms: C_12  and  C_14
REMARK   13  A    between atoms: C_12  and  C_20
REMARK                            x       y       z     vdW  Elec       q    Type
REMARK                         _______ _______ _______ _____ _____    ______ ____
ROOT
ATOM      1  C   UNL     1       8.778   1.736  24.342  0.00  0.00    +0.190 C 
ENDROOT
BRANCH   1   2
ATOM      2  C   UNL     1       8.633   3.239  24.646  0.00  0.00    -0.005 A 
ATOM      3  C   UNL     1       7.862   3.691  25.735  0.00  0.00    +0.007 A 
ATOM      4  C   UNL     1       7.843   5.037  26.108  0.00  0.00    +0.000 A 
ATOM      5  C   UNL     1       8.605   5.964  25.408  0.00  0.00    +0.000 A 
ATOM      6  C   UNL     1       9.373   5.548  24.326  0.00  0.00    +0.000 A 
ATOM      7  C   UNL     1       9.381   4.204  23.946  0.00  0.00    +0.007 A 
ENDBRANCH   1   2
BRANCH   1   8
ATOM      8  C   UNL     1      10.047   1.318  23.519  0.00  0.00    +0.036 C 
ATOM      9  C   UNL     1       9.967   1.257  21.982  0.00  0.00    +0.007 C 
ATOM     10  C   UNL     1       9.368  -0.024  21.412  0.00  0.00    +0.000 C 
ATOM     11  C   UNL     1      10.031  -1.275  21.975  0.00  0.00    +0.000 C 
ATOM     12  C   UNL     1      10.109  -1.262  23.496  0.00  0.00    +0.000 C 
ATOM     13  C   UNL     1      10.732   0.024  24.031  0.00  0.00    +0.007 C 
ENDBRANCH   1   8
BRANCH   1  14
ATOM     14  C   UNL     1       7.393   1.275  23.775  0.00  0.00    +0.344 C 
ATOM     15  O   UNL     1       6.706   1.837  22.933  0.00  0.00    -0.247 OA
BRANCH  14  16
ATOM     16  O   UNL     1       6.955   0.156  24.437  0.00  0.00    -0.457 OA
BRANCH  16  17
ATOM     17  C   UNL     1       6.527  -0.904  23.571  0.00  0.00    +0.283 C 
BRANCH  17  18
ATOM     18  C   UNL     1       5.793  -2.089  24.229  0.00  0.00    +0.174 C 
BRANCH  18  19
ATOM     19  N   UNL     1       6.521  -3.498  24.162  0.00  0.00    +0.243 N 
ATOM     20  C   UNL     1       5.478  -4.589  24.378  0.00  0.00    +0.192 C 
BRANCH  19  22
ATOM     21  C   UNL     1       7.114  -4.895  22.039  0.00  0.00    +0.060 C 
ATOM     22  C   UNL     1       7.097  -3.540  22.722  0.00  0.00    +0.129 C 
ENDBRANCH  19  22
BRANCH  19  23
ATOM     23  C   UNL     1       7.602  -3.521  25.252  0.00  0.00    +0.129 C 
ATOM     24  C   UNL     1       8.168  -4.877  25.626  0.00  0.00    +0.060 C 
ENDBRANCH  19  23
ENDBRANCH  18  19
ENDBRANCH  17  18
ENDBRANCH  16  17
ENDBRANCH  14  16
ENDBRANCH   1  14
BRANCH   1  25
ATOM     25  O   UNL     1       8.953   1.079  25.629  0.00  0.00    -0.373 OA
ATOM     26  H   UNL     1       8.112   1.143  26.112  0.00  0.00    +0.211 HD
ENDBRANCH   1  25
TORSDOF 10
ENDMDL
MODEL 5
REMARK VINA RESULT:      -5.7      2.306      6.013
REMARK  Name = 
REMARK  13 active torsions:
REMARK  status: ('A' for Active; 'I' for Inactive)
REMARK    1  A    between atoms: C_1  and  C_2
REMARK    2  A    between atoms: C_2  and  N_3
REMARK    3  A    between atoms: N_3  and  C_4
REMARK    4  A    between atoms: N_3  and  C_5
REMARK    5  A    between atoms: N_3  and  C_7
REMARK    6  A    between atoms: C_5  and  C_6
REMARK    7  A    between atoms: C_7  and  C_8
REMARK    8  A    between atoms: C_8  and  O_9
REMARK    9  A    between atoms: O_9  and  C_10
REMARK   10  A    between atoms: C_10  and  C_12
REMARK   11  A    between atoms: C_12  and  O_13
REMARK   12  A    between atoms: C_12  and  C_14
REMARK   13  A    between atoms: C_12  and  C_20
REMARK                            x       y       z     vdW  Elec       q    Type
REMARK                         _______ _______ _______ _____ _____    ______ ____
ROOT
ATOM      1  C   UNL     1       8.175  -1.552  24.068  0.00  0.00    +0.190 C 
ENDROOT
BRANCH   1   2
ATOM      2  C   UNL     1       7.642  -2.808  23.355  0.00  0.00    -0.005 A 
ATOM      3  C   UNL     1       8.140  -4.089  23.666  0.00  0.00    +0.007 A 
ATOM      4  C   UNL     1       7.564  -5.245  23.136  0.00  0.00    +0.000 A 
ATOM      5  C   UNL     1       6.465  -5.151  22.290  0.00  0.00    +0.000 A 
ATOM      6  C   UNL     1       5.953  -3.900  21.962  0.00  0.00    +0.000 A 
ATOM      7  C   UNL     1       6.539  -2.744  22.483  0.00  0.00    +0.007 A 
ENDBRANCH   1   2
BRANCH   1   8
ATOM      8  C   UNL     1       9.626  -1.100  23.677  0.00  0.00    +0.036 C 
ATOM      9  C   UNL     1      10.190   0.214  24.250  0.00  0.00    +0.007 C 
ATOM     10  C   UNL     1       9.766   1.480  23.515  0.00  0.00    +0.000 C 
ATOM     11  C   UNL     1      10.012   1.389  22.014  0.00  0.00    +0.000 C 
ATOM     12  C   UNL     1       9.448   0.113  21.405  0.00  0.00    +0.000 C 
ATOM     13  C   UNL     1       9.908  -1.136  22.152  0.00  0.00    +0.007 C 
ENDBRANCH   1   8
BRANCH   1  14
ATOM     14  C   UNL     1       7.897  -1.770  25.593  0.00  0.00    +0.344 C 
ATOM     15  O   UNL     1       8.689  -2.126  26.453  0.00  0.00    -0.247 OA
BRANCH  14  16
ATOM     16  O   UNL     1       6.561  -1.606  25.863  0.00  0.00    -0.457 OA
BRANCH  16  17
ATOM     17  C   UNL     1       6.027  -2.576  26.774  0.00  0.00    +0.283 C 
BRANCH  17  18
ATOM     18  C   UNL     1       5.439  -3.861  26.158  0.00  0.00    +0.174 C 
BRANCH  18  19
ATOM     19  N   UNL     1       5.757  -5.220  26.914  0.00  0.00    +0.243 N 
ATOM     20  C   UNL     1       7.260  -5.295  27.158  0.00  0.00    +0.192 C 
BRANCH  19  22
ATOM     21  C   UNL     1       5.579  -5.761  29.462  0.00  0.00    +0.060 C 
ATOM     22  C   UNL     1       4.971  -5.085  28.246  0.00  0.00    +0.129 C 
ENDBRANCH  19  22
BRANCH  19  23
ATOM     23  C   UNL     1       5.265  -6.376  26.032  0.00  0.00    +0.129 C 
ATOM     24  C   UNL     1       4.136  -6.070  25.069  0.00  0.00    +0.060 C 
ENDBRANCH  19  23
ENDBRANCH  18  19
ENDBRANCH  17  18
ENDBRANCH  16  17
ENDBRANCH  14  16
ENDBRANCH   1  14
BRANCH   1  25
ATOM     25  O   UNL     1       7.328  -0.451  23.632  0.00  0.00    -0.373 OA
ATOM     26  H   UNL     1       7.166   0.122  24.400  0.00  0.00    +0.211 HD
ENDBRANCH   1  25
TORSDOF 10
ENDMDL
MODEL 6
REMARK VINA RESULT:      -5.6      2.389      5.920
REMARK  Name = 
REMARK  13 active torsions:
REMARK  status: ('A' for Active; 'I' for Inactive)
REMARK    1  A    between atoms: C_1  and  C_2
REMARK    2  A    between atoms: C_2  and  N_3
REMARK    3  A    between atoms: N_3  and  C_4
REMARK    4  A    between atoms: N_3  and  C_5
REMARK    5  A    between atoms: N_3  and  C_7
REMARK    6  A    between atoms: C_5  and  C_6
REMARK    7  A    between atoms: C_7  and  C_8
REMARK    8  A    between atoms: C_8  and  O_9
REMARK    9  A    between atoms: O_9  and  C_10
REMARK   10  A    between atoms: C_10  and  C_12
REMARK   11  A    between atoms: C_12  and  O_13
REMARK   12  A    between atoms: C_12  and  C_14
REMARK   13  A    between atoms: C_12  and  C_20
REMARK                            x       y       z     vdW  Elec       q    Type
REMARK                         _______ _______ _______ _____ _____    ______ ____
ROOT
ATOM      1  C   UNL     1       8.083  -1.844  24.161  0.00  0.00    +0.190 C 
ENDROOT
BRANCH   1   2
ATOM      2  C   UNL     1       7.463  -3.018  23.381  0.00  0.00    -0.005 A 
ATOM      3  C   UNL     1       6.508  -2.796  22.368  0.00  0.00    +0.007 A 
ATOM      4  C   UNL     1       6.049  -3.836  21.557  0.00  0.00    +0.000 A 
ATOM      5  C   UNL     1       6.543  -5.123  21.729  0.00  0.00    +0.000 A 
ATOM      6  C   UNL     1       7.483  -5.374  22.723  0.00  0.00    +0.000 A 
ATOM      7  C   UNL     1       7.931  -4.335  23.543  0.00  0.00    +0.007 A 
ENDBRANCH   1   2
BRANCH   1   8
ATOM      8  C   UNL     1       9.545  -1.442  23.755  0.00  0.00    +0.036 C 
ATOM      9  C   UNL     1      10.156  -0.144  24.316  0.00  0.00    +0.007 C 
ATOM     10  C   UNL     1       9.767   1.131  23.576  0.00  0.00    +0.000 C 
ATOM     11  C   UNL     1       9.998   1.022  22.073  0.00  0.00    +0.000 C 
ATOM     12  C   UNL     1       9.388  -0.239  21.477  0.00  0.00    +0.000 C 
ATOM     13  C   UNL     1       9.814  -1.497  22.229  0.00  0.00    +0.007 C 
ENDBRANCH   1   8
BRANCH   1  14
ATOM     14  C   UNL     1       7.837  -2.155  25.676  0.00  0.00    +0.344 C 
ATOM     15  O   UNL     1       8.676  -2.356  26.543  0.00  0.00    -0.247 OA
BRANCH  14  16
ATOM     16  O   UNL     1       6.494  -2.286  25.924  0.00  0.00    -0.457 OA
BRANCH  16  17
ATOM     17  C   UNL     1       6.186  -3.164  27.015  0.00  0.00    +0.283 C 
BRANCH  17  18
ATOM     18  C   UNL     1       6.114  -4.670  26.700  0.00  0.00    +0.174 C 
BRANCH  18  19
ATOM     19  N   UNL     1       4.667  -5.276  26.457  0.00  0.00    +0.243 N 
ATOM     20  C   UNL     1       3.651  -4.397  27.177  0.00  0.00    +0.192 C 
BRANCH  19  22
ATOM     21  C   UNL     1       3.630  -4.070  24.388  0.00  0.00    +0.060 C 
ATOM     22  C   UNL     1       4.496  -5.199  24.917  0.00  0.00    +0.129 C 
ENDBRANCH  19  22
BRANCH  19  23
ATOM     23  C   UNL     1       4.662  -6.713  26.998  0.00  0.00    +0.129 C 
ATOM     24  C   UNL     1       5.179  -6.916  28.408  0.00  0.00    +0.060 C 
ENDBRANCH  19  23
ENDBRANCH  18  19
ENDBRANCH  17  18
ENDBRANCH  16  17
ENDBRANCH  14  16
ENDBRANCH   1  14
BRANCH   1  25
ATOM     25  O   UNL     1       7.285  -0.673  23.830  0.00  0.00    -0.373 OA
ATOM     26  H   UNL     1       6.895  -0.817  22.951  0.00  0.00    +0.211 HD
ENDBRANCH   1  25
TORSDOF 10
ENDMDL
MODEL 7
REMARK VINA RESULT:      -5.6      1.657      3.598
REMARK  Name = 
REMARK  13 active torsions:
REMARK  status: ('A' for Active; 'I' for Inactive)
REMARK    1  A    between atoms: C_1  and  C_2
REMARK    2  A    between atoms: C_2  and  N_3
REMARK    3  A    between atoms: N_3  and  C_4
REMARK    4  A    between atoms: N_3  and  C_5
REMARK    5  A    between atoms: N_3  and  C_7
REMARK    6  A    between atoms: C_5  and  C_6
REMARK    7  A    between atoms: C_7  and  C_8
REMARK    8  A    between atoms: C_8  and  O_9
REMARK    9  A    between atoms: O_9  and  C_10
REMARK   10  A    between atoms: C_10  and  C_12
REMARK   11  A    between atoms: C_12  and  O_13
REMARK   12  A    between atoms: C_12  and  C_14
REMARK   13  A    between atoms: C_12  and  C_20
REMARK                            x       y       z     vdW  Elec       q    Type
REMARK                         _______ _______ _______ _____ _____    ______ ____
ROOT
ATOM      1  C   UNL     1       7.625  -2.919  23.247  0.00  0.00    +0.190 C 
ENDROOT
BRANCH   1   2
ATOM      2  C   UNL     1       7.254  -2.048  24.461  0.00  0.00    -0.005 A 
ATOM      3  C   UNL     1       7.993  -2.113  25.658  0.00  0.00    +0.007 A 
ATOM      4  C   UNL     1       7.758  -1.225  26.711  0.00  0.00    +0.000 A 
ATOM      5  C   UNL     1       6.786  -0.241  26.587  0.00  0.00    +0.000 A 
ATOM      6  C   UNL     1       6.037  -0.154  25.419  0.00  0.00    +0.000 A 
ATOM      7  C   UNL     1       6.264  -1.051  24.372  0.00  0.00    +0.007 A 
ENDBRANCH   1   2
BRANCH   1   8
ATOM      8  C   UNL     1       7.528  -4.471  23.455  0.00  0.00    +0.036 C 
ATOM      9  C   UNL     1       7.382  -5.392  22.230  0.00  0.00    +0.007 C 
ATOM     10  C   UNL     1       5.964  -5.534  21.687  0.00  0.00    +0.000 C 
ATOM     11  C   UNL     1       4.963  -5.907  22.774  0.00  0.00    +0.000 C 
ATOM     12  C   UNL     1       5.061  -5.004  23.995  0.00  0.00    +0.000 C 
ATOM     13  C   UNL     1       6.488  -4.900  24.524  0.00  0.00    +0.007 C 
ENDBRANCH   1   8
BRANCH   1  14
ATOM     14  C   UNL     1       8.993  -2.367  22.722  0.00  0.00    +0.344 C 
ATOM     15  O   UNL     1      10.117  -2.705  23.067  0.00  0.00    -0.247 OA
BRANCH  14  16
ATOM     16  O   UNL     1       8.786  -1.327  21.851  0.00  0.00    -0.457 OA
BRANCH  16  17
ATOM     17  C   UNL     1       9.856  -0.372  21.818  0.00  0.00    +0.283 C 
BRANCH  17  18
ATOM     18  C   UNL     1       9.460   1.117  21.789  0.00  0.00    +0.174 C 
BRANCH  18  19
ATOM     19  N   UNL     1       9.424   1.869  23.186  0.00  0.00    +0.243 N 
ATOM     20  C   UNL     1      10.528   2.921  23.195  0.00  0.00    +0.192 C 
BRANCH  19  22
ATOM     21  C   UNL     1       7.142   2.291  21.991  0.00  0.00    +0.060 C 
ATOM     22  C   UNL     1       8.017   2.521  23.211  0.00  0.00    +0.129 C 
ENDBRANCH  19  22
BRANCH  19  23
ATOM     23  C   UNL     1       9.628   0.821  24.290  0.00  0.00    +0.129 C 
ATOM     24  C   UNL     1      11.040   0.639  24.810  0.00  0.00    +0.060 C 
ENDBRANCH  19  23
ENDBRANCH  18  19
ENDBRANCH  17  18
ENDBRANCH  16  17
ENDBRANCH  14  16
ENDBRANCH   1  14
BRANCH   1  25
ATOM     25  O   UNL     1       6.628  -2.633  22.225  0.00  0.00    -0.373 OA
ATOM     26  H   UNL     1       6.938  -3.023  21.390  0.00  0.00    +0.211 HD
ENDBRANCH   1  25
TORSDOF 10
ENDMDL
MODEL 8
REMARK VINA RESULT:      -5.5      2.465      6.349
REMARK  Name = 
REMARK  13 active torsions:
REMARK  status: ('A' for Active; 'I' for Inactive)
REMARK    1  A    between atoms: C_1  and  C_2
REMARK    2  A    between atoms: C_2  and  N_3
REMARK    3  A    between atoms: N_3  and  C_4
REMARK    4  A    between atoms: N_3  and  C_5
REMARK    5  A    between atoms: N_3  and  C_7
REMARK    6  A    between atoms: C_5  and  C_6
REMARK    7  A    between atoms: C_7  and  C_8
REMARK    8  A    between atoms: C_8  and  O_9
REMARK    9  A    between atoms: O_9  and  C_10
REMARK   10  A    between atoms: C_10  and  C_12
REMARK   11  A    between atoms: C_12  and  O_13
REMARK   12  A    between atoms: C_12  and  C_14
REMARK   13  A    between atoms: C_12  and  C_20
REMARK                            x       y       z     vdW  Elec       q    Type
REMARK                         _______ _______ _______ _____ _____    ______ ____
ROOT
ATOM      1  C   UNL     1       8.779  -1.811  23.662  0.00  0.00    +0.190 C 
ENDROOT
BRANCH   1   2
ATOM      2  C   UNL     1       8.153  -1.030  24.831  0.00  0.00    -0.005 A 
ATOM      3  C   UNL     1       8.594  -1.222  26.156  0.00  0.00    +0.007 A 
ATOM      4  C   UNL     1       8.138  -0.416  27.201  0.00  0.00    +0.000 A 
ATOM      5  C   UNL     1       7.238   0.612  26.947  0.00  0.00    +0.000 A 
ATOM      6  C   UNL     1       6.782   0.823  25.651  0.00  0.00    +0.000 A 
ATOM      7  C   UNL     1       7.228   0.008  24.607  0.00  0.00    +0.007 A 
ENDBRANCH   1   2
BRANCH   1   8
ATOM      8  C   UNL     1       9.950  -1.095  22.901  0.00  0.00    +0.036 C 
ATOM      9  C   UNL     1      10.777  -0.017  23.628  0.00  0.00    +0.007 C 
ATOM     10  C   UNL     1      10.153   1.373  23.655  0.00  0.00    +0.000 C 
ATOM     11  C   UNL     1       9.733   1.848  22.269  0.00  0.00    +0.000 C 
ATOM     12  C   UNL     1       8.894   0.817  21.527  0.00  0.00    +0.000 C 
ATOM     13  C   UNL     1       9.557  -0.557  21.501  0.00  0.00    +0.007 C 
ENDBRANCH   1   8
BRANCH   1  14
ATOM     14  C   UNL     1       7.581  -2.314  22.788  0.00  0.00    +0.344 C 
ATOM     15  O   UNL     1       6.513  -1.753  22.591  0.00  0.00    -0.247 OA
BRANCH  14  16
ATOM     16  O   UNL     1       7.831  -3.579  22.318  0.00  0.00    -0.457 OA
BRANCH  16  17
ATOM     17  C   UNL     1       6.652  -4.308  21.949  0.00  0.00    +0.283 C 
BRANCH  17  18
ATOM     18  C   UNL     1       6.305  -5.547  22.796  0.00  0.00    +0.174 C 
BRANCH  18  19
ATOM     19  N   UNL     1       5.286  -5.326  23.992  0.00  0.00    +0.243 N 
ATOM     20  C   UNL     1       4.206  -4.353  23.531  0.00  0.00    +0.192 C 
BRANCH  19  22
ATOM     21  C   UNL     1       4.167  -7.022  25.631  0.00  0.00    +0.060 C 
ATOM     22  C   UNL     1       4.705  -6.744  24.239  0.00  0.00    +0.129 C 
ENDBRANCH  19  22
BRANCH  19  23
ATOM     23  C   UNL     1       6.075  -4.775  25.188  0.00  0.00    +0.129 C 
ATOM     24  C   UNL     1       5.595  -3.466  25.781  0.00  0.00    +0.060 C 
ENDBRANCH  19  23
ENDBRANCH  18  19
ENDBRANCH  17  18
ENDBRANCH  16  17
ENDBRANCH  14  16
ENDBRANCH   1  14
BRANCH   1  25
ATOM     25  O   UNL     1       9.403  -2.988  24.251  0.00  0.00    -0.373 OA
ATOM     26  H   UNL     1       9.278  -2.940  25.213  0.00  0.00    +0.211 HD
ENDBRANCH   1  25
TORSDOF 10
ENDMDL
MODEL 9
REMARK VINA RESULT:      -5.5      1.743      3.880
REMARK  Name = 
REMARK  13 active torsions:
REMARK  status: ('A' for Active; 'I' for Inactive)
REMARK    1  A    between atoms: C_1  and  C_2
REMARK    2  A    between atoms: C_2  and  N_3
REMARK    3  A    between atoms: N_3  and  C_4
REMARK    4  A    between atoms: N_3  and  C_5
REMARK    5  A    between atoms: N_3  and  C_7
REMARK    6  A    between atoms: C_5  and  C_6
REMARK    7  A    between atoms: C_7  and  C_8
REMARK    8  A    between atoms: C_8  and  O_9
REMARK    9  A    between atoms: O_9  and  C_10
REMARK   10  A    between atoms: C_10  and  C_12
REMARK   11  A    between atoms: C_12  and  O_13
REMARK   12  A    between atoms: C_12  and  C_14
REMARK   13  A    between atoms: C_12  and  C_20
REMARK                            x       y       z     vdW  Elec       q    Type
REMARK                         _______ _______ _______ _____ _____    ______ ____
ROOT
ATOM      1  C   UNL     1       6.053  -2.627  23.755  0.00  0.00    +0.190 C 
ENDROOT
BRANCH   1   2
ATOM      2  C   UNL     1       7.017  -3.398  24.675  0.00  0.00    -0.005 A 
ATOM      3  C   UNL     1       8.357  -3.625  24.301  0.00  0.00    +0.007 A 
ATOM      4  C   UNL     1       9.276  -4.192  25.187  0.00  0.00    +0.000 A 
ATOM      5  C   UNL     1       8.882  -4.535  26.474  0.00  0.00    +0.000 A 
ATOM      6  C   UNL     1       7.566  -4.327  26.870  0.00  0.00    +0.000 A 
ATOM      7  C   UNL     1       6.643  -3.772  25.979  0.00  0.00    +0.007 A 
ENDBRANCH   1   2
BRANCH   1   8
ATOM      8  C   UNL     1       5.268  -3.485  22.702  0.00  0.00    +0.036 C 
ATOM      9  C   UNL     1       4.450  -4.701  23.176  0.00  0.00    +0.007 C 
ATOM     10  C   UNL     1       5.250  -5.981  23.390  0.00  0.00    +0.000 C 
ATOM     11  C   UNL     1       6.109  -6.337  22.182  0.00  0.00    +0.000 C 
ATOM     12  C   UNL     1       6.950  -5.164  21.697  0.00  0.00    +0.000 C 
ATOM     13  C   UNL     1       6.115  -3.907  21.474  0.00  0.00    +0.007 C 
ENDBRANCH   1   8
BRANCH   1  14
ATOM     14  C   UNL     1       6.868  -1.410  23.199  0.00  0.00    +0.344 C 
ATOM     15  O   UNL     1       7.759  -1.429  22.362  0.00  0.00    -0.247 OA
BRANCH  14  16
ATOM     16  O   UNL     1       6.525  -0.261  23.865  0.00  0.00    -0.457 OA
BRANCH  16  17
ATOM     17  C   UNL     1       7.068   0.933  23.286  0.00  0.00    +0.283 C 
BRANCH  17  18
ATOM     18  C   UNL     1       8.042   1.750  24.157  0.00  0.00    +0.174 C 
BRANCH  18  19
ATOM     19  N   UNL     1       9.504   1.963  23.576  0.00  0.00    +0.243 N 
ATOM     20  C   UNL     1       9.519   1.494  22.125  0.00  0.00    +0.192 C 
BRANCH  19  22
ATOM     21  C   UNL     1       8.834   4.236  24.671  0.00  0.00    +0.060 C 
ATOM     22  C   UNL     1       9.713   3.497  23.678  0.00  0.00    +0.129 C 
ENDBRANCH  19  22
BRANCH  19  23
ATOM     23  C   UNL     1      10.479   1.157  24.445  0.00  0.00    +0.129 C 
ATOM     24  C   UNL     1       9.979  -0.167  24.987  0.00  0.00    +0.060 C 
ENDBRANCH  19  23
ENDBRANCH  18  19
ENDBRANCH  17  18
ENDBRANCH  16  17
ENDBRANCH  14  16
ENDBRANCH   1  14
BRANCH   1  25
ATOM     25  O   UNL     1       5.016  -2.086  24.621  0.00  0.00    -0.373 OA
ATOM     26  H   UNL     1       5.344  -1.249  24.992  0.00  0.00    +0.211 HD
ENDBRANCH   1  25
TORSDOF 10
ENDMDL
