MODEL 1
REMARK VINA RESULT:      -7.0      0.000      0.000
REMARK  Name = 
REMARK  10 active torsions:
REMARK  status: ('A' for Active; 'I' for Inactive)
REMARK    1  A    between atoms: C_2  and  N_3
REMARK    2  A    between atoms: C_2  and  C_4
REMARK    3  A    between atoms: C_2  and  C_8
REMARK    4  A    between atoms: C_4  and  C_5
REMARK    5  A    between atoms: C_5  and  C_6
REMARK    6  A    between atoms: C_5  and  C_7
REMARK    7  A    between atoms: C_14  and  C_16
REMARK    8  A    between atoms: N_18  and  C_19
REMARK    9  A    between atoms: C_19  and  C_20
REMARK   10  A    between atoms: C_23  and  C_26
REMARK                            x       y       z     vdW  Elec       q    Type
REMARK                         _______ _______ _______ _____ _____    ______ ____
ROOT
ATOM      1  C   UNL     1       6.035  -1.645  24.110  0.00  0.00    +0.234 C 
ATOM      2  N   UNL     1       6.238  -0.336  23.730  0.00  0.00    -0.310 N 
ATOM      3  H   UNL     1       6.925  -0.158  23.008  0.00  0.00    +0.149 HD
ATOM      4  O   UNL     1       5.417  -1.960  25.125  0.00  0.00    -0.274 OA
ENDROOT
BRANCH   1   7
ATOM      5  C   UNL     1       9.135  -2.780  23.544  0.00  0.00    +0.233 C 
ATOM      6  N   UNL     1       7.858  -3.302  23.624  0.00  0.00    -0.289 N 
ATOM      7  C   UNL     1       6.607  -2.713  23.141  0.00  0.00    +0.162 C 
ATOM      8  C   UNL     1       5.637  -3.899  23.032  0.00  0.00    +0.033 C 
ATOM      9  C   UNL     1       6.463  -5.138  23.372  0.00  0.00    +0.021 C 
ATOM     10  C   UNL     1       7.610  -4.604  24.208  0.00  0.00    +0.108 C 
ATOM     11  O   UNL     1      10.072  -3.339  24.120  0.00  0.00    -0.274 OA
BRANCH   5  12
ATOM     12  C   UNL     1       9.335  -1.482  22.712  0.00  0.00    +0.138 C 
BRANCH  12  13
ATOM     13  N   UNL     1      10.109  -1.804  21.499  0.00  0.00    -0.320 NA
ATOM     14  H   UNL     1       9.506  -1.803  20.681  0.00  0.00    +0.119 HD
ATOM     15  H   UNL     1      10.824  -1.097  21.342  0.00  0.00    +0.119 HD
ENDBRANCH  12  13
BRANCH  12  16
ATOM     16  C   UNL     1      10.062  -0.433  23.573  0.00  0.00    +0.031 C 
BRANCH  16  17
ATOM     17  C   UNL     1       9.637   1.034  23.365  0.00  0.00    -0.015 C 
ATOM     18  C   UNL     1       9.764   1.393  21.880  0.00  0.00    +0.007 C 
ATOM     19  C   UNL     1      10.462   2.012  24.202  0.00  0.00    +0.007 C 
ENDBRANCH  16  17
ENDBRANCH  12  16
ENDBRANCH   5  12
ENDBRANCH   1   7
BRANCH   2  20
ATOM     20  C   UNL     1       5.771   0.787  24.509  0.00  0.00    +0.139 C 
BRANCH  20  21
ATOM     21  C   UNL     1       6.282   2.093  23.959  0.00  0.00    -0.030 A 
ATOM     22  C   UNL     1       6.863   3.040  24.813  0.00  0.00    +0.006 A 
ATOM     23  C   UNL     1       7.371   4.241  24.306  0.00  0.00    +0.016 A 
ATOM     24  C   UNL     1       7.312   4.502  22.933  0.00  0.00    +0.065 A 
ATOM     25  C   UNL     1       6.719   3.569  22.076  0.00  0.00    +0.016 A 
ATOM     26  C   UNL     1       6.214   2.368  22.585  0.00  0.00    +0.006 A 
BRANCH  24  27
ATOM     27  C   UNL     1       7.888   5.766  22.397  0.00  0.00    +0.308 C 
ATOM     28  N   UNL     1       7.364   6.415  21.404  0.00  0.00    -0.099 NA
ATOM     29  H   UNL     1       6.553   5.922  21.022  0.00  0.00    +0.363 HD
ATOM     30  N   UNL     1       9.018   6.301  22.938  0.00  0.00    -0.247 N 
ATOM     31  H   UNL     1       9.165   7.248  22.599  0.00  0.00    +0.288 HD
ATOM     32  H   UNL     1       9.107   6.231  23.944  0.00  0.00    +0.288 HD
ENDBRANCH  24  27
ENDBRANCH  20  21
ENDBRANCH   2  20
TORSDOF 8
ENDMDL
MODEL 2
REMARK VINA RESULT:      -6.8      2.619      3.837
REMARK  Name = 
REMARK  10 active torsions:
REMARK  status: ('A' for Active; 'I' for Inactive)
REMARK    1  A    between atoms: C_2  and  N_3
REMARK    2  A    between atoms: C_2  and  C_4
REMARK    3  A    between atoms: C_2  and  C_8
REMARK    4  A    between atoms: C_4  and  C_5
REMARK    5  A    between atoms: C_5  and  C_6
REMARK    6  A    between atoms: C_5  and  C_7
REMARK    7  A    between atoms: C_14  and  C_16
REMARK    8  A    between atoms: N_18  and  C_19
REMARK    9  A    between atoms: C_19  and  C_20
REMARK   10  A    between atoms: C_23  and  C_26
REMARK                            x       y       z     vdW  Elec       q    Type
REMARK                         _______ _______ _______ _____ _____    ______ ____
ROOT
ATOM      1  C   UNL     1       7.097  -2.885  26.106  0.00  0.00    +0.234 C 
ATOM      2  N   UNL     1       7.099  -1.577  26.542  0.00  0.00    -0.310 N 
ATOM      3  H   UNL     1       6.295  -1.005  26.311  0.00  0.00    +0.149 HD
ATOM      4  O   UNL     1       8.102  -3.594  26.114  0.00  0.00    -0.274 OA
ENDROOT
BRANCH   1   7
ATOM      5  C   UNL     1       6.161  -4.798  23.521  0.00  0.00    +0.233 C 
ATOM      6  N   UNL     1       5.835  -4.661  24.857  0.00  0.00    -0.289 N 
ATOM      7  C   UNL     1       5.721  -3.426  25.639  0.00  0.00    +0.162 C 
ATOM      8  C   UNL     1       4.868  -3.817  26.855  0.00  0.00    +0.033 C 
ATOM      9  C   UNL     1       4.455  -5.268  26.619  0.00  0.00    +0.021 C 
ATOM     10  C   UNL     1       5.514  -5.809  25.679  0.00  0.00    +0.108 C 
ATOM     11  O   UNL     1       6.348  -5.919  23.040  0.00  0.00    -0.274 OA
BRANCH   5  12
ATOM     12  C   UNL     1       6.279  -3.504  22.668  0.00  0.00    +0.138 C 
BRANCH  12  13
ATOM     13  N   UNL     1       5.580  -3.709  21.386  0.00  0.00    -0.320 NA
ATOM     14  H   UNL     1       5.674  -2.888  20.794  0.00  0.00    +0.119 HD
ATOM     15  H   UNL     1       5.997  -4.488  20.881  0.00  0.00    +0.119 HD
ENDBRANCH  12  13
BRANCH  12  16
ATOM     16  C   UNL     1       7.766  -3.175  22.444  0.00  0.00    +0.031 C 
BRANCH  16  17
ATOM     17  C   UNL     1       8.199  -1.727  22.748  0.00  0.00    -0.015 C 
ATOM     18  C   UNL     1       6.953  -0.843  22.876  0.00  0.00    +0.007 C 
ATOM     19  C   UNL     1       9.129  -1.152  21.680  0.00  0.00    +0.007 C 
ENDBRANCH  16  17
ENDBRANCH  12  16
ENDBRANCH   5  12
ENDBRANCH   1   7
BRANCH   2  20
ATOM     20  C   UNL     1       8.289  -0.911  27.016  0.00  0.00    +0.139 C 
BRANCH  20  21
ATOM     21  C   UNL     1       8.836   0.043  25.987  0.00  0.00    -0.030 A 
ATOM     22  C   UNL     1      10.086  -0.195  25.398  0.00  0.00    +0.006 A 
ATOM     23  C   UNL     1      10.587   0.666  24.416  0.00  0.00    +0.016 A 
ATOM     24  C   UNL     1       9.837   1.773  24.006  0.00  0.00    +0.065 A 
ATOM     25  C   UNL     1       8.596   2.027  24.601  0.00  0.00    +0.016 A 
ATOM     26  C   UNL     1       8.096   1.163  25.580  0.00  0.00    +0.006 A 
BRANCH  24  27
ATOM     27  C   UNL     1      10.361   2.664  22.935  0.00  0.00    +0.308 C 
ATOM     28  N   UNL     1      10.956   3.790  23.182  0.00  0.00    -0.099 NA
ATOM     29  H   UNL     1      10.968   3.994  24.183  0.00  0.00    +0.363 HD
ATOM     30  N   UNL     1      10.229   2.327  21.622  0.00  0.00    -0.247 N 
ATOM     31  H   UNL     1      10.803   2.929  21.037  0.00  0.00    +0.288 HD
ATOM     32  H   UNL     1      10.343   1.346  21.400  0.00  0.00    +0.288 HD
ENDBRANCH  24  27
ENDBRANCH  20  21
ENDBRANCH   2  20
TORSDOF 8
ENDMDL
MODEL 3
REMARK VINA RESULT:      -6.8      3.198      5.666
REMARK  Name = 
REMARK  10 active torsions:
REMARK  status: ('A' for Active; 'I' for Inactive)
REMARK    1  A    between atoms: C_2  and  N_3
REMARK    2  A    between atoms: C_2  and  C_4
REMARK    3  A    between atoms: C_2  and  C_8
REMARK    4  A    between atoms: C_4  and  C_5
REMARK    5  A    between atoms: C_5  and  C_6
REMARK    6  A    between atoms: C_5  and  C_7
REMARK    7  A    between atoms: C_14  and  C_16
REMARK    8  A    between atoms: N_18  and  C_19
REMARK    9  A    between atoms: C_19  and  C_20
REMARK   10  A    between atoms: C_23  and  C_26
REMARK                            x       y       z     vdW  Elec       q    Type
REMARK                         _______ _______ _______ _____ _____    ______ ____
ROOT
ATOM      1  C   UNL     1       7.312  -4.815  25.838  0.00  0.00    +0.234 C 
ATOM      2  N   UNL     1       7.758  -3.744  25.093  0.00  0.00    -0.310 N 
ATOM      3  H   UNL     1       7.060  -3.151  24.661  0.00  0.00    +0.149 HD
ATOM      4  O   UNL     1       8.049  -5.730  26.202  0.00  0.00    -0.274 OA
ENDROOT
BRANCH   1   7
ATOM      5  C   UNL     1       4.602  -6.383  24.647  0.00  0.00    +0.233 C 
ATOM      6  N   UNL     1       5.101  -6.005  25.879  0.00  0.00    -0.289 N 
ATOM      7  C   UNL     1       5.812  -4.772  26.229  0.00  0.00    +0.162 C 
ATOM      8  C   UNL     1       5.667  -4.661  27.754  0.00  0.00    +0.033 C 
ATOM      9  C   UNL     1       4.765  -5.823  28.167  0.00  0.00    +0.021 C 
ATOM     10  C   UNL     1       4.929  -6.837  27.052  0.00  0.00    +0.108 C 
ATOM     11  O   UNL     1       4.145  -7.518  24.484  0.00  0.00    -0.274 OA
BRANCH   5  12
ATOM     12  C   UNL     1       4.643  -5.337  23.498  0.00  0.00    +0.138 C 
BRANCH  12  13
ATOM     13  N   UNL     1       3.280  -4.823  23.269  0.00  0.00    -0.320 NA
ATOM     14  H   UNL     1       2.590  -5.454  23.667  0.00  0.00    +0.119 HD
ATOM     15  H   UNL     1       3.163  -3.924  23.731  0.00  0.00    +0.119 HD
ENDBRANCH  12  13
BRANCH  12  16
ATOM     16  C   UNL     1       5.208  -5.998  22.227  0.00  0.00    +0.031 C 
BRANCH  16  17
ATOM     17  C   UNL     1       6.439  -5.319  21.594  0.00  0.00    -0.015 C 
ATOM     18  C   UNL     1       7.714  -5.905  22.210  0.00  0.00    +0.007 C 
ATOM     19  C   UNL     1       6.433  -3.801  21.774  0.00  0.00    +0.007 C 
ENDBRANCH  16  17
ENDBRANCH  12  16
ENDBRANCH   5  12
ENDBRANCH   1   7
BRANCH   2  20
ATOM     20  C   UNL     1       9.125  -3.616  24.645  0.00  0.00    +0.139 C 
BRANCH  20  21
ATOM     21  C   UNL     1       9.423  -2.218  24.171  0.00  0.00    -0.030 A 
ATOM     22  C   UNL     1       9.840  -1.993  22.852  0.00  0.00    +0.006 A 
ATOM     23  C   UNL     1      10.087  -0.695  22.394  0.00  0.00    +0.016 A 
ATOM     24  C   UNL     1       9.908   0.396  23.251  0.00  0.00    +0.065 A 
ATOM     25  C   UNL     1       9.508   0.179  24.574  0.00  0.00    +0.016 A 
ATOM     26  C   UNL     1       9.260  -1.120  25.028  0.00  0.00    +0.006 A 
BRANCH  24  27
ATOM     27  C   UNL     1      10.137   1.778  22.745  0.00  0.00    +0.308 C 
ATOM     28  N   UNL     1       9.814   2.153  21.546  0.00  0.00    -0.099 NA
ATOM     29  H   UNL     1       9.439   1.374  21.000  0.00  0.00    +0.363 HD
ATOM     30  N   UNL     1      10.712   2.724  23.539  0.00  0.00    -0.247 N 
ATOM     31  H   UNL     1      10.617   3.647  23.123  0.00  0.00    +0.288 HD
ATOM     32  H   UNL     1      10.447   2.708  24.515  0.00  0.00    +0.288 HD
ENDBRANCH  24  27
ENDBRANCH  20  21
ENDBRANCH   2  20
TORSDOF 8
ENDMDL
MODEL 4
REMARK VINA RESULT:      -6.8      3.044      7.937
REMARK  Name = 
REMARK  10 active torsions:
REMARK  status: ('A' for Active; 'I' for Inactive)
REMARK    1  A    between atoms: C_2  and  N_3
REMARK    2  A    between atoms: C_2  and  C_4
REMARK    3  A    between atoms: C_2  and  C_8
REMARK    4  A    between atoms: C_4  and  C_5
REMARK    5  A    between atoms: C_5  and  C_6
REMARK    6  A    between atoms: C_5  and  C_7
REMARK    7  A    between atoms: C_14  and  C_16
REMARK    8  A    between atoms: N_18  and  C_19
REMARK    9  A    between atoms: C_19  and  C_20
REMARK   10  A    between atoms: C_23  and  C_26
REMARK                            x       y       z     vdW  Elec       q    Type
REMARK                         _______ _______ _______ _____ _____    ______ ____
ROOT
ATOM      1  C   UNL     1       8.762  -2.271  22.830  0.00  0.00    +0.234 C 
ATOM      2  N   UNL     1       7.715  -3.162  22.730  0.00  0.00    -0.310 N 
ATOM      3  H   UNL     1       6.777  -2.781  22.695  0.00  0.00    +0.149 HD
ATOM      4  O   UNL     1       9.907  -2.613  23.120  0.00  0.00    -0.274 OA
ENDROOT
BRANCH   1   7
ATOM      5  C   UNL     1       7.582   0.249  24.694  0.00  0.00    +0.233 C 
ATOM      6  N   UNL     1       8.505   0.078  23.680  0.00  0.00    -0.289 N 
ATOM      7  C   UNL     1       8.409  -0.796  22.507  0.00  0.00    +0.162 C 
ATOM      8  C   UNL     1       9.425  -0.217  21.510  0.00  0.00    +0.033 C 
ATOM      9  C   UNL     1       9.970   1.050  22.168  0.00  0.00    +0.021 C 
ATOM     10  C   UNL     1       9.743   0.828  23.650  0.00  0.00    +0.108 C 
ATOM     11  O   UNL     1       7.869   0.924  25.687  0.00  0.00    -0.274 OA
BRANCH   5  12
ATOM     12  C   UNL     1       6.194  -0.432  24.533  0.00  0.00    +0.138 C 
BRANCH  12  13
ATOM     13  N   UNL     1       5.138   0.560  24.805  0.00  0.00    -0.320 NA
ATOM     14  H   UNL     1       4.285   0.097  25.106  0.00  0.00    +0.119 HD
ATOM     15  H   UNL     1       5.425   1.178  25.560  0.00  0.00    +0.119 HD
ENDBRANCH  12  13
BRANCH  12  16
ATOM     16  C   UNL     1       6.098  -1.626  25.501  0.00  0.00    +0.031 C 
BRANCH  16  17
ATOM     17  C   UNL     1       4.729  -1.850  26.174  0.00  0.00    -0.015 C 
ATOM     18  C   UNL     1       4.946  -2.345  27.609  0.00  0.00    +0.007 C 
ATOM     19  C   UNL     1       3.854  -2.847  25.414  0.00  0.00    +0.007 C 
ENDBRANCH  16  17
ENDBRANCH  12  16
ENDBRANCH   5  12
ENDBRANCH   1   7
BRANCH   2  20
ATOM     20  C   UNL     1       7.862  -4.575  22.990  0.00  0.00    +0.139 C 
BRANCH  20  21
ATOM     21  C   UNL     1       7.356  -4.940  24.362  0.00  0.00    -0.030 A 
ATOM     22  C   UNL     1       6.104  -5.552  24.513  0.00  0.00    +0.006 A 
ATOM     23  C   UNL     1       5.642  -5.925  25.779  0.00  0.00    +0.016 A 
ATOM     24  C   UNL     1       6.435  -5.700  26.909  0.00  0.00    +0.065 A 
ATOM     25  C   UNL     1       7.679  -5.076  26.768  0.00  0.00    +0.016 A 
ATOM     26  C   UNL     1       8.139  -4.705  25.501  0.00  0.00    +0.006 A 
BRANCH  24  27
ATOM     27  C   UNL     1       5.952  -6.134  28.249  0.00  0.00    +0.308 C 
ATOM     28  N   UNL     1       6.075  -5.405  29.314  0.00  0.00    -0.099 NA
ATOM     29  H   UNL     1       6.582  -4.539  29.117  0.00  0.00    +0.363 HD
ATOM     30  N   UNL     1       5.349  -7.345  28.413  0.00  0.00    -0.247 N 
ATOM     31  H   UNL     1       4.908  -7.405  29.327  0.00  0.00    +0.288 HD
ATOM     32  H   UNL     1       4.737  -7.644  27.665  0.00  0.00    +0.288 HD
ENDBRANCH  24  27
ENDBRANCH  20  21
ENDBRANCH   2  20
TORSDOF 8
ENDMDL
MODEL 5
REMARK VINA RESULT:      -6.6      1.878      3.892
REMARK  Name = 
REMARK  10 active torsions:
REMARK  status: ('A' for Active; 'I' for Inactive)
REMARK    1  A    between atoms: C_2  and  N_3
REMARK    2  A    between atoms: C_2  and  C_4
REMARK    3  A    between atoms: C_2  and  C_8
REMARK    4  A    between atoms: C_4  and  C_5
REMARK    5  A    between atoms: C_5  and  C_6
REMARK    6  A    between atoms: C_5  and  C_7
REMARK    7  A    between atoms: C_14  and  C_16
REMARK    8  A    between atoms: N_18  and  C_19
REMARK    9  A    between atoms: C_19  and  C_20
REMARK   10  A    between atoms: C_23  and  C_26
REMARK                            x       y       z     vdW  Elec       q    Type
REMARK                         _______ _______ _______ _____ _____    ______ ____
ROOT
ATOM      1  C   UNL     1       8.183  -2.995  23.319  0.00  0.00    +0.234 C 
ATOM      2  N   UNL     1       9.434  -2.538  23.674  0.00  0.00    -0.310 N 
ATOM      3  H   UNL     1       9.640  -2.458  24.663  0.00  0.00    +0.149 HD
ATOM      4  O   UNL     1       7.738  -2.906  22.176  0.00  0.00    -0.274 OA
ENDROOT
BRANCH   1   7
ATOM      5  C   UNL     1       5.720  -1.924  25.321  0.00  0.00    +0.233 C 
ATOM      6  N   UNL     1       6.050  -3.081  24.642  0.00  0.00    -0.289 N 
ATOM      7  C   UNL     1       7.378  -3.675  24.457  0.00  0.00    +0.162 C 
ATOM      8  C   UNL     1       7.098  -5.143  24.100  0.00  0.00    +0.033 C 
ATOM      9  C   UNL     1       5.585  -5.313  24.214  0.00  0.00    +0.021 C 
ATOM     10  C   UNL     1       5.037  -3.912  24.027  0.00  0.00    +0.108 C 
ATOM     11  O   UNL     1       4.568  -1.483  25.273  0.00  0.00    -0.274 OA
BRANCH   5  12
ATOM     12  C   UNL     1       6.841  -1.214  26.130  0.00  0.00    +0.138 C 
BRANCH  12  13
ATOM     13  N   UNL     1       6.261  -0.655  27.365  0.00  0.00    -0.320 NA
ATOM     14  H   UNL     1       6.443   0.344  27.423  0.00  0.00    +0.119 HD
ATOM     15  H   UNL     1       5.250  -0.773  27.361  0.00  0.00    +0.119 HD
ENDBRANCH  12  13
BRANCH  12  16
ATOM     16  C   UNL     1       7.474  -0.110  25.264  0.00  0.00    +0.031 C 
BRANCH  16  17
ATOM     17  C   UNL     1       6.729   1.239  25.225  0.00  0.00    -0.015 C 
ATOM     18  C   UNL     1       6.368   1.577  23.774  0.00  0.00    +0.007 C 
ATOM     19  C   UNL     1       7.546   2.382  25.830  0.00  0.00    +0.007 C 
ENDBRANCH  16  17
ENDBRANCH  12  16
ENDBRANCH   5  12
ENDBRANCH   1   7
BRANCH   2  20
ATOM     20  C   UNL     1      10.323  -1.884  22.743  0.00  0.00    +0.139 C 
BRANCH  20  21
ATOM     21  C   UNL     1      10.275  -0.386  22.892  0.00  0.00    -0.030 A 
ATOM     22  C   UNL     1      10.796   0.228  24.040  0.00  0.00    +0.006 A 
ATOM     23  C   UNL     1      10.787   1.620  24.171  0.00  0.00    +0.016 A 
ATOM     24  C   UNL     1      10.262   2.416  23.147  0.00  0.00    +0.065 A 
ATOM     25  C   UNL     1       9.725   1.811  22.005  0.00  0.00    +0.016 A 
ATOM     26  C   UNL     1       9.738   0.419  21.876  0.00  0.00    +0.006 A 
BRANCH  24  27
ATOM     27  C   UNL     1      10.289   3.899  23.278  0.00  0.00    +0.308 C 
ATOM     28  N   UNL     1       9.215   4.619  23.378  0.00  0.00    -0.099 NA
ATOM     29  H   UNL     1       8.373   4.044  23.304  0.00  0.00    +0.363 HD
ATOM     30  N   UNL     1      11.472   4.576  23.295  0.00  0.00    -0.247 N 
ATOM     31  H   UNL     1      11.330   5.539  23.585  0.00  0.00    +0.288 HD
ATOM     32  H   UNL     1      12.234   4.129  23.788  0.00  0.00    +0.288 HD
ENDBRANCH  24  27
ENDBRANCH  20  21
ENDBRANCH   2  20
TORSDOF 8
ENDMDL
MODEL 6
REMARK VINA RESULT:      -6.5      2.659      7.785
REMARK  Name = 
REMARK  10 active torsions:
REMARK  status: ('A' for Active; 'I' for Inactive)
REMARK    1  A    between atoms: C_2  and  N_3
REMARK    2  A    between atoms: C_2  and  C_4
REMARK    3  A    between atoms: C_2  and  C_8
REMARK    4  A    between atoms: C_4  and  C_5
REMARK    5  A    between atoms: C_5  and  C_6
REMARK    6  A    between atoms: C_5  and  C_7
REMARK    7  A    between atoms: C_14  and  C_16
REMARK    8  A    between atoms: N_18  and  C_19
REMARK    9  A    between atoms: C_19  and  C_20
REMARK   10  A    between atoms: C_23  and  C_26
REMARK                            x       y       z     vdW  Elec       q    Type
REMARK                         _______ _______ _______ _____ _____    ______ ____
ROOT
ATOM      1  C   UNL     1       9.263  -1.052  24.047  0.00  0.00    +0.234 C 
ATOM      2  N   UNL     1       9.166  -2.365  23.639  0.00  0.00    -0.310 N 
ATOM      3  H   UNL     1       8.549  -2.571  22.863  0.00  0.00    +0.149 HD
ATOM      4  O   UNL     1       9.780  -0.717  25.111  0.00  0.00    -0.274 OA
ENDROOT
BRANCH   1   7
ATOM      5  C   UNL     1       7.405   1.709  24.432  0.00  0.00    +0.233 C 
ATOM      6  N   UNL     1       8.481   1.304  23.665  0.00  0.00    -0.289 N 
ATOM      7  C   UNL     1       8.710  -0.005  23.045  0.00  0.00    +0.162 C 
ATOM      8  C   UNL     1       9.743   0.266  21.941  0.00  0.00    +0.033 C 
ATOM      9  C   UNL     1       9.958   1.778  21.941  0.00  0.00    +0.021 C 
ATOM     10  C   UNL     1       9.560   2.212  23.338  0.00  0.00    +0.108 C 
ATOM     11  O   UNL     1       7.423   2.806  24.996  0.00  0.00    -0.274 OA
BRANCH   5  12
ATOM     12  C   UNL     1       6.195   0.740  24.551  0.00  0.00    +0.138 C 
BRANCH  12  13
ATOM     13  N   UNL     1       4.947   1.509  24.396  0.00  0.00    -0.320 NA
ATOM     14  H   UNL     1       4.697   1.962  25.272  0.00  0.00    +0.119 HD
ATOM     15  H   UNL     1       5.074   2.246  23.706  0.00  0.00    +0.119 HD
ENDBRANCH  12  13
BRANCH  12  16
ATOM     16  C   UNL     1       6.245   0.029  25.916  0.00  0.00    +0.031 C 
BRANCH  16  17
ATOM     17  C   UNL     1       6.101  -1.506  25.892  0.00  0.00    -0.015 C 
ATOM     18  C   UNL     1       5.540  -1.941  24.533  0.00  0.00    +0.007 C 
ATOM     19  C   UNL     1       5.202  -2.032  27.011  0.00  0.00    +0.007 C 
ENDBRANCH  16  17
ENDBRANCH  12  16
ENDBRANCH   5  12
ENDBRANCH   1   7
BRANCH   2  20
ATOM     20  C   UNL     1       9.634  -3.471  24.442  0.00  0.00    +0.139 C 
BRANCH  20  21
ATOM     21  C   UNL     1       8.487  -4.256  25.024  0.00  0.00    -0.030 A 
ATOM     22  C   UNL     1       8.380  -4.426  26.411  0.00  0.00    +0.006 A 
ATOM     23  C   UNL     1       7.300  -5.125  26.962  0.00  0.00    +0.016 A 
ATOM     24  C   UNL     1       6.309  -5.653  26.128  0.00  0.00    +0.065 A 
ATOM     25  C   UNL     1       6.418  -5.502  24.742  0.00  0.00    +0.016 A 
ATOM     26  C   UNL     1       7.497  -4.801  24.194  0.00  0.00    +0.006 A 
BRANCH  24  27
ATOM     27  C   UNL     1       5.145  -6.364  26.725  0.00  0.00    +0.308 C 
ATOM     28  N   UNL     1       3.932  -6.221  26.289  0.00  0.00    -0.099 NA
ATOM     29  H   UNL     1       3.885  -5.533  25.534  0.00  0.00    +0.363 HD
ATOM     30  N   UNL     1       5.311  -7.209  27.780  0.00  0.00    -0.247 N 
ATOM     31  H   UNL     1       4.468  -7.756  27.938  0.00  0.00    +0.288 HD
ATOM     32  H   UNL     1       6.147  -7.779  27.768  0.00  0.00    +0.288 HD
ENDBRANCH  24  27
ENDBRANCH  20  21
ENDBRANCH   2  20
TORSDOF 8
ENDMDL
MODEL 7
REMARK VINA RESULT:      -6.4      1.505      3.571
REMARK  Name = 
REMARK  10 active torsions:
REMARK  status: ('A' for Active; 'I' for Inactive)
REMARK    1  A    between atoms: C_2  and  N_3
REMARK    2  A    between atoms: C_2  and  C_4
REMARK    3  A    between atoms: C_2  and  C_8
REMARK    4  A    between atoms: C_4  and  C_5
REMARK    5  A    between atoms: C_5  and  C_6
REMARK    6  A    between atoms: C_5  and  C_7
REMARK    7  A    between atoms: C_14  and  C_16
REMARK    8  A    between atoms: N_18  and  C_19
REMARK    9  A    between atoms: C_19  and  C_20
REMARK   10  A    between atoms: C_23  and  C_26
REMARK                            x       y       z     vdW  Elec       q    Type
REMARK                         _______ _______ _______ _____ _____    ______ ____
ROOT
ATOM      1  C   UNL     1       9.768  -1.996  23.964  0.00  0.00    +0.234 C 
ATOM      2  N   UNL     1       9.823  -0.689  24.399  0.00  0.00    -0.310 N 
ATOM      3  H   UNL     1       9.152  -0.400  25.102  0.00  0.00    +0.149 HD
ATOM      4  O   UNL     1      10.357  -2.392  22.960  0.00  0.00    -0.274 OA
ENDROOT
BRANCH   1   7
ATOM      5  C   UNL     1       6.475  -2.439  24.387  0.00  0.00    +0.233 C 
ATOM      6  N   UNL     1       7.607  -3.228  24.308  0.00  0.00    -0.289 N 
ATOM      7  C   UNL     1       8.939  -2.957  24.855  0.00  0.00    +0.162 C 
ATOM      8  C   UNL     1       9.618  -4.334  24.919  0.00  0.00    +0.033 C 
ATOM      9  C   UNL     1       8.551  -5.338  24.487  0.00  0.00    +0.021 C 
ATOM     10  C   UNL     1       7.583  -4.520  23.655  0.00  0.00    +0.108 C 
ATOM     11  O   UNL     1       5.459  -2.745  23.756  0.00  0.00    -0.274 OA
BRANCH   5  12
ATOM     12  C   UNL     1       6.536  -1.174  25.288  0.00  0.00    +0.138 C 
BRANCH  12  13
ATOM     13  N   UNL     1       5.656  -1.372  26.454  0.00  0.00    -0.320 NA
ATOM     14  H   UNL     1       5.845  -2.268  26.895  0.00  0.00    +0.119 HD
ATOM     15  H   UNL     1       5.834  -0.653  27.152  0.00  0.00    +0.119 HD
ENDBRANCH  12  13
BRANCH  12  16
ATOM     16  C   UNL     1       6.104   0.056  24.468  0.00  0.00    +0.031 C 
BRANCH  16  17
ATOM     17  C   UNL     1       5.668   1.296  25.274  0.00  0.00    -0.015 C 
ATOM     18  C   UNL     1       4.983   2.295  24.335  0.00  0.00    +0.007 C 
ATOM     19  C   UNL     1       6.836   1.978  25.986  0.00  0.00    +0.007 C 
ENDBRANCH  16  17
ENDBRANCH  12  16
ENDBRANCH   5  12
ENDBRANCH   1   7
BRANCH   2  20
ATOM     20  C   UNL     1      10.551   0.341  23.697  0.00  0.00    +0.139 C 
BRANCH  20  21
ATOM     21  C   UNL     1       9.657   1.494  23.322  0.00  0.00    -0.030 A 
ATOM     22  C   UNL     1       9.779   2.725  23.980  0.00  0.00    +0.006 A 
ATOM     23  C   UNL     1       8.976   3.811  23.615  0.00  0.00    +0.016 A 
ATOM     24  C   UNL     1       8.048   3.678  22.577  0.00  0.00    +0.065 A 
ATOM     25  C   UNL     1       7.909   2.447  21.926  0.00  0.00    +0.016 A 
ATOM     26  C   UNL     1       8.714   1.364  22.292  0.00  0.00    +0.006 A 
BRANCH  24  27
ATOM     27  C   UNL     1       7.223   4.849  22.170  0.00  0.00    +0.308 C 
ATOM     28  N   UNL     1       5.926   4.837  22.182  0.00  0.00    -0.099 NA
ATOM     29  H   UNL     1       5.564   3.921  22.454  0.00  0.00    +0.363 HD
ATOM     30  N   UNL     1       7.812   6.005  21.755  0.00  0.00    -0.247 N 
ATOM     31  H   UNL     1       7.130   6.757  21.705  0.00  0.00    +0.288 HD
ATOM     32  H   UNL     1       8.656   6.276  22.243  0.00  0.00    +0.288 HD
ENDBRANCH  24  27
ENDBRANCH  20  21
ENDBRANCH   2  20
TORSDOF 8
ENDMDL
MODEL 8
REMARK VINA RESULT:      -6.2      2.521      4.790
REMARK  Name = 
REMARK  10 active torsions:
REMARK  status: ('A' for Active; 'I' for Inactive)
REMARK    1  A    between atoms: C_2  and  N_3
REMARK    2  A    between atoms: C_2  and  C_4
REMARK    3  A    between atoms: C_2  and  C_8
REMARK    4  A    between atoms: C_4  and  C_5
REMARK    5  A    between atoms: C_5  and  C_6
REMARK    6  A    between atoms: C_5  and  C_7
REMARK    7  A    between atoms: C_14  and  C_16
REMARK    8  A    between atoms: N_18  and  C_19
REMARK    9  A    between atoms: C_19  and  C_20
REMARK   10  A    between atoms: C_23  and  C_26
REMARK                            x       y       z     vdW  Elec       q    Type
REMARK                         _______ _______ _______ _____ _____    ______ ____
ROOT
ATOM      1  C   UNL     1       8.045  -4.080  26.287  0.00  0.00    +0.234 C 
ATOM      2  N   UNL     1       8.198  -3.834  24.939  0.00  0.00    -0.310 N 
ATOM      3  H   UNL     1       7.403  -4.013  24.337  0.00  0.00    +0.149 HD
ATOM      4  O   UNL     1       8.992  -4.132  27.069  0.00  0.00    -0.274 OA
ENDROOT
BRANCH   1   7
ATOM      5  C   UNL     1       5.102  -3.144  24.991  0.00  0.00    +0.233 C 
ATOM      6  N   UNL     1       5.618  -4.235  25.663  0.00  0.00    -0.289 N 
ATOM      7  C   UNL     1       6.580  -4.246  26.768  0.00  0.00    +0.162 C 
ATOM      8  C   UNL     1       6.395  -5.621  27.428  0.00  0.00    +0.033 C 
ATOM      9  C   UNL     1       5.228  -6.277  26.692  0.00  0.00    +0.021 C 
ATOM     10  C   UNL     1       5.202  -5.585  25.343  0.00  0.00    +0.108 C 
ATOM     11  O   UNL     1       4.400  -3.306  23.989  0.00  0.00    -0.274 OA
BRANCH   5  12
ATOM     12  C   UNL     1       5.439  -1.729  25.541  0.00  0.00    +0.138 C 
BRANCH  12  13
ATOM     13  N   UNL     1       4.185  -1.045  25.905  0.00  0.00    -0.320 NA
ATOM     14  H   UNL     1       3.384  -1.548  25.534  0.00  0.00    +0.119 HD
ATOM     15  H   UNL     1       4.080  -1.023  26.918  0.00  0.00    +0.119 HD
ENDBRANCH  12  13
BRANCH  12  16
ATOM     16  C   UNL     1       6.213  -0.938  24.471  0.00  0.00    +0.031 C 
BRANCH  16  17
ATOM     17  C   UNL     1       6.073   0.597  24.521  0.00  0.00    -0.015 C 
ATOM     18  C   UNL     1       6.523   1.190  23.182  0.00  0.00    +0.007 C 
ATOM     19  C   UNL     1       6.877   1.226  25.658  0.00  0.00    +0.007 C 
ENDBRANCH  16  17
ENDBRANCH  12  16
ENDBRANCH   5  12
ENDBRANCH   1   7
BRANCH   2  20
ATOM     20  C   UNL     1       9.488  -3.649  24.318  0.00  0.00    +0.139 C 
BRANCH  20  21
ATOM     21  C   UNL     1       9.707  -2.214  23.915  0.00  0.00    -0.030 A 
ATOM     22  C   UNL     1       9.677  -1.848  22.562  0.00  0.00    +0.006 A 
ATOM     23  C   UNL     1       9.845  -0.513  22.181  0.00  0.00    +0.016 A 
ATOM     24  C   UNL     1      10.036   0.475  23.154  0.00  0.00    +0.065 A 
ATOM     25  C   UNL     1      10.083   0.115  24.505  0.00  0.00    +0.016 A 
ATOM     26  C   UNL     1       9.913  -1.220  24.883  0.00  0.00    +0.006 A 
BRANCH  24  27
ATOM     27  C   UNL     1      10.177   1.899  22.742  0.00  0.00    +0.308 C 
ATOM     28  N   UNL     1      10.661   2.814  23.522  0.00  0.00    -0.099 NA
ATOM     29  H   UNL     1      10.877   2.439  24.449  0.00  0.00    +0.363 HD
ATOM     30  N   UNL     1       9.791   2.306  21.501  0.00  0.00    -0.247 N 
ATOM     31  H   UNL     1      10.131   3.245  21.310  0.00  0.00    +0.288 HD
ATOM     32  H   UNL     1       9.977   1.664  20.742  0.00  0.00    +0.288 HD
ENDBRANCH  24  27
ENDBRANCH  20  21
ENDBRANCH   2  20
TORSDOF 8
ENDMDL
MODEL 9
REMARK VINA RESULT:      -6.1      3.242      5.105
REMARK  Name = 
REMARK  10 active torsions:
REMARK  status: ('A' for Active; 'I' for Inactive)
REMARK    1  A    between atoms: C_2  and  N_3
REMARK    2  A    between atoms: C_2  and  C_4
REMARK    3  A    between atoms: C_2  and  C_8
REMARK    4  A    between atoms: C_4  and  C_5
REMARK    5  A    between atoms: C_5  and  C_6
REMARK    6  A    between atoms: C_5  and  C_7
REMARK    7  A    between atoms: C_14  and  C_16
REMARK    8  A    between atoms: N_18  and  C_19
REMARK    9  A    between atoms: C_19  and  C_20
REMARK   10  A    between atoms: C_23  and  C_26
REMARK                            x       y       z     vdW  Elec       q    Type
REMARK                         _______ _______ _______ _____ _____    ______ ____
ROOT
ATOM      1  C   UNL     1       6.411  -3.861  26.946  0.00  0.00    +0.234 C 
ATOM      2  N   UNL     1       6.705  -2.589  26.503  0.00  0.00    -0.310 N 
ATOM      3  H   UNL     1       6.006  -2.113  25.946  0.00  0.00    +0.149 HD
ATOM      4  O   UNL     1       7.258  -4.620  27.414  0.00  0.00    -0.274 OA
ENDROOT
BRANCH   1   7
ATOM      5  C   UNL     1       4.741  -5.975  24.954  0.00  0.00    +0.233 C 
ATOM      6  N   UNL     1       4.726  -5.603  26.285  0.00  0.00    -0.289 N 
ATOM      7  C   UNL     1       4.916  -4.265  26.854  0.00  0.00    +0.162 C 
ATOM      8  C   UNL     1       4.306  -4.354  28.261  0.00  0.00    +0.033 C 
ATOM      9  C   UNL     1       3.699  -5.751  28.359  0.00  0.00    +0.021 C 
ATOM     10  C   UNL     1       4.467  -6.565  27.336  0.00  0.00    +0.108 C 
ATOM     11  O   UNL     1       4.699  -7.168  24.642  0.00  0.00    -0.274 OA
BRANCH   5  12
ATOM     12  C   UNL     1       4.812  -4.846  23.888  0.00  0.00    +0.138 C 
BRANCH  12  13
ATOM     13  N   UNL     1       3.624  -4.931  23.020  0.00  0.00    -0.320 NA
ATOM     14  H   UNL     1       3.700  -4.274  22.247  0.00  0.00    +0.119 HD
ATOM     15  H   UNL     1       3.553  -5.861  22.613  0.00  0.00    +0.119 HD
ENDBRANCH  12  13
BRANCH  12  16
ATOM     16  C   UNL     1       6.109  -4.997  23.072  0.00  0.00    +0.031 C 
BRANCH  16  17
ATOM     17  C   UNL     1       7.266  -4.051  23.447  0.00  0.00    -0.015 C 
ATOM     18  C   UNL     1       7.696  -3.259  22.206  0.00  0.00    +0.007 C 
ATOM     19  C   UNL     1       8.472  -4.793  24.025  0.00  0.00    +0.007 C 
ENDBRANCH  16  17
ENDBRANCH  12  16
ENDBRANCH   5  12
ENDBRANCH   1   7
BRANCH   2  20
ATOM     20  C   UNL     1       8.042  -2.044  26.519  0.00  0.00    +0.139 C 
BRANCH  20  21
ATOM     21  C   UNL     1       8.306  -1.190  25.307  0.00  0.00    -0.030 A 
ATOM     22  C   UNL     1       7.258  -0.487  24.696  0.00  0.00    +0.006 A 
ATOM     23  C   UNL     1       7.499   0.336  23.592  0.00  0.00    +0.016 A 
ATOM     24  C   UNL     1       8.798   0.472  23.090  0.00  0.00    +0.065 A 
ATOM     25  C   UNL     1       9.847  -0.239  23.684  0.00  0.00    +0.016 A 
ATOM     26  C   UNL     1       9.603  -1.059  24.789  0.00  0.00    +0.006 A 
BRANCH  24  27
ATOM     27  C   UNL     1       9.053   1.378  21.937  0.00  0.00    +0.308 C 
ATOM     28  N   UNL     1       8.215   1.529  20.959  0.00  0.00    -0.099 NA
ATOM     29  H   UNL     1       7.403   0.916  21.066  0.00  0.00    +0.363 HD
ATOM     30  N   UNL     1      10.207   2.099  21.859  0.00  0.00    -0.247 N 
ATOM     31  H   UNL     1      10.141   2.804  21.130  0.00  0.00    +0.288 HD
ATOM     32  H   UNL     1      10.558   2.474  22.731  0.00  0.00    +0.288 HD
ENDBRANCH  24  27
ENDBRANCH  20  21
ENDBRANCH   2  20
TORSDOF 8
ENDMDL
