MODEL 1
REMARK VINA RESULT:      -4.7      0.000      0.000
REMARK  Name = 
REMARK  9 active torsions:
REMARK  status: ('A' for Active; 'I' for Inactive)
REMARK    1  A    between atoms: C_2  and  C_3
REMARK    2  A    between atoms: C_2  and  C_4
REMARK    3  A    between atoms: C_2  and  C_11
REMARK    4  A    between atoms: C_4  and  C_6
REMARK    5  A    between atoms: C_6  and  P_7
REMARK    6  A    between atoms: P_7  and  O_9
REMARK    7  A    between atoms: C_11  and  O_13
REMARK    8  A    between atoms: C_11  and  C_14
REMARK    9  A    between atoms: C_14  and  C_15
REMARK                            x       y       z     vdW  Elec       q    Type
REMARK                         _______ _______ _______ _____ _____    ______ ____
ROOT
ATOM      1  C   UNL     1       9.219  -2.761  23.876  0.00  0.00    +0.148 C 
ATOM      2  O   UNL     1      10.414  -3.067  23.809  0.00  0.00    -0.296 OA
ENDROOT
BRANCH   1   3
ATOM      3  C   UNL     1       8.710  -1.403  23.382  0.00  0.00    +0.081 C 
ATOM      4  C   UNL     1       7.314  -1.584  22.775  0.00  0.00    +0.018 C 
BRANCH   3   5
ATOM      5  C   UNL     1       9.724  -0.749  22.420  0.00  0.00    +0.124 C 
BRANCH   5   6
ATOM      6  C   UNL     1       9.159   0.515  21.744  0.00  0.00    +0.028 C 
ATOM      7  C   UNL     1       9.989   1.762  22.036  0.00  0.00    +0.006 C 
ENDBRANCH   5   6
BRANCH   5   8
ATOM      8  O   UNL     1      10.105  -1.655  21.388  0.00  0.00    -0.391 OA
ATOM      9  H   UNL     1       9.911  -2.563  21.678  0.00  0.00    +0.210 HD
ENDBRANCH   5   8
ENDBRANCH   3   5
ENDBRANCH   1   3
BRANCH   1  10
ATOM     10  C   UNL     1       8.257  -3.735  24.492  0.00  0.00    +0.168 C 
BRANCH  10  11
ATOM     11  P   UNL     1       8.958  -4.726  25.805  0.00  0.00    +0.198 P 
ATOM     12  H   UNL     1       9.742  -4.005  26.730  0.00  0.00    +0.128 HD
ATOM     13  O   UNL     1       7.948  -5.727  26.298  0.00  0.00    -0.294 OA
BRANCH  11  14
ATOM     14  O   UNL     1      10.073  -5.581  24.995  0.00  0.00    -0.345 OA
ATOM     15  H   UNL     1       9.678  -6.359  24.543  0.00  0.00    +0.217 HD
ENDBRANCH  11  14
ENDBRANCH  10  11
ENDBRANCH   1  10
TORSDOF 7
ENDMDL
MODEL 2
REMARK VINA RESULT:      -4.5      1.747      2.306
REMARK  Name = 
REMARK  9 active torsions:
REMARK  status: ('A' for Active; 'I' for Inactive)
REMARK    1  A    between atoms: C_2  and  C_3
REMARK    2  A    between atoms: C_2  and  C_4
REMARK    3  A    between atoms: C_2  and  C_11
REMARK    4  A    between atoms: C_4  and  C_6
REMARK    5  A    between atoms: C_6  and  P_7
REMARK    6  A    between atoms: P_7  and  O_9
REMARK    7  A    between atoms: C_11  and  O_13
REMARK    8  A    between atoms: C_11  and  C_14
REMARK    9  A    between atoms: C_14  and  C_15
REMARK                            x       y       z     vdW  Elec       q    Type
REMARK                         _______ _______ _______ _____ _____    ______ ____
ROOT
ATOM      1  C   UNL     1       7.724  -4.517  24.052  0.00  0.00    +0.148 C 
ATOM      2  O   UNL     1       8.275  -5.421  23.415  0.00  0.00    -0.296 OA
ENDROOT
BRANCH   1   3
ATOM      3  C   UNL     1       7.924  -3.042  23.688  0.00  0.00    +0.081 C 
ATOM      4  C   UNL     1       7.524  -2.831  22.223  0.00  0.00    +0.018 C 
BRANCH   3   5
ATOM      5  C   UNL     1       9.361  -2.582  24.012  0.00  0.00    +0.124 C 
BRANCH   5   6
ATOM      6  C   UNL     1       9.992  -1.780  22.859  0.00  0.00    +0.028 C 
ATOM      7  C   UNL     1      10.366  -0.356  23.264  0.00  0.00    +0.006 C 
ENDBRANCH   5   6
BRANCH   5   8
ATOM      8  O   UNL     1      10.207  -3.699  24.272  0.00  0.00    -0.391 OA
ATOM      9  H   UNL     1       9.803  -4.496  23.888  0.00  0.00    +0.210 HD
ENDBRANCH   5   8
ENDBRANCH   3   5
ENDBRANCH   1   3
BRANCH   1  10
ATOM     10  C   UNL     1       6.872  -4.882  25.233  0.00  0.00    +0.168 C 
BRANCH  10  11
ATOM     11  P   UNL     1       7.772  -5.013  26.773  0.00  0.00    +0.198 P 
ATOM     12  H   UNL     1       8.104  -3.776  27.366  0.00  0.00    +0.128 HD
ATOM     13  O   UNL     1       7.200  -6.119  27.618  0.00  0.00    -0.294 OA
BRANCH  11  14
ATOM     14  O   UNL     1       9.212  -5.548  26.253  0.00  0.00    -0.345 OA
ATOM     15  H   UNL     1       9.475  -5.120  25.408  0.00  0.00    +0.217 HD
ENDBRANCH  11  14
ENDBRANCH  10  11
ENDBRANCH   1  10
TORSDOF 7
ENDMDL
MODEL 3
REMARK VINA RESULT:      -4.4      1.799      2.290
REMARK  Name = 
REMARK  9 active torsions:
REMARK  status: ('A' for Active; 'I' for Inactive)
REMARK    1  A    between atoms: C_2  and  C_3
REMARK    2  A    between atoms: C_2  and  C_4
REMARK    3  A    between atoms: C_2  and  C_11
REMARK    4  A    between atoms: C_4  and  C_6
REMARK    5  A    between atoms: C_6  and  P_7
REMARK    6  A    between atoms: P_7  and  O_9
REMARK    7  A    between atoms: C_11  and  O_13
REMARK    8  A    between atoms: C_11  and  C_14
REMARK    9  A    between atoms: C_14  and  C_15
REMARK                            x       y       z     vdW  Elec       q    Type
REMARK                         _______ _______ _______ _____ _____    ______ ____
ROOT
ATOM      1  C   UNL     1       9.471  -2.473  24.236  0.00  0.00    +0.148 C 
ATOM      2  O   UNL     1      10.196  -3.456  24.051  0.00  0.00    -0.296 OA
ENDROOT
BRANCH   1   3
ATOM      3  C   UNL     1      10.018  -1.044  24.146  0.00  0.00    +0.081 C 
ATOM      4  C   UNL     1       9.070  -0.100  24.895  0.00  0.00    +0.018 C 
BRANCH   3   5
ATOM      5  C   UNL     1      10.265  -0.638  22.678  0.00  0.00    +0.124 C 
BRANCH   5   6
ATOM      6  C   UNL     1       9.279   0.441  22.195  0.00  0.00    +0.028 C 
ATOM      7  C   UNL     1       9.953   1.786  21.938  0.00  0.00    +0.006 C 
ENDBRANCH   5   6
BRANCH   5   8
ATOM      8  O   UNL     1      10.134  -1.761  21.810  0.00  0.00    -0.391 OA
ATOM      9  H   UNL     1       9.394  -2.312  22.118  0.00  0.00    +0.210 HD
ENDBRANCH   5   8
ENDBRANCH   3   5
ENDBRANCH   1   3
BRANCH   1  10
ATOM     10  C   UNL     1       8.030  -2.695  24.594  0.00  0.00    +0.168 C 
BRANCH  10  11
ATOM     11  P   UNL     1       7.061  -3.452  23.296  0.00  0.00    +0.198 P 
ATOM     12  H   UNL     1       5.731  -3.755  23.657  0.00  0.00    +0.128 HD
ATOM     13  O   UNL     1       7.346  -2.785  21.977  0.00  0.00    -0.294 OA
BRANCH  11  14
ATOM     14  O   UNL     1       7.742  -4.922  23.209  0.00  0.00    -0.345 OA
ATOM     15  H   UNL     1       7.180  -5.608  23.633  0.00  0.00    +0.217 HD
ENDBRANCH  11  14
ENDBRANCH  10  11
ENDBRANCH   1  10
TORSDOF 7
ENDMDL
MODEL 4
REMARK VINA RESULT:      -4.4      2.365      5.107
REMARK  Name = 
REMARK  9 active torsions:
REMARK  status: ('A' for Active; 'I' for Inactive)
REMARK    1  A    between atoms: C_2  and  C_3
REMARK    2  A    between atoms: C_2  and  C_4
REMARK    3  A    between atoms: C_2  and  C_11
REMARK    4  A    between atoms: C_4  and  C_6
REMARK    5  A    between atoms: C_6  and  P_7
REMARK    6  A    between atoms: P_7  and  O_9
REMARK    7  A    between atoms: C_11  and  O_13
REMARK    8  A    between atoms: C_11  and  C_14
REMARK    9  A    between atoms: C_14  and  C_15
REMARK                            x       y       z     vdW  Elec       q    Type
REMARK                         _______ _______ _______ _____ _____    ______ ____
ROOT
ATOM      1  C   UNL     1       9.127  -2.963  23.796  0.00  0.00    +0.148 C 
ATOM      2  O   UNL     1      10.358  -3.027  23.861  0.00  0.00    -0.296 OA
ENDROOT
BRANCH   1   3
ATOM      3  C   UNL     1       8.255  -4.223  23.808  0.00  0.00    +0.081 C 
ATOM      4  C   UNL     1       6.779  -3.809  23.823  0.00  0.00    +0.018 C 
BRANCH   3   5
ATOM      5  C   UNL     1       8.648  -5.156  24.973  0.00  0.00    +0.124 C 
BRANCH   5   6
ATOM      6  C   UNL     1       8.395  -4.513  26.349  0.00  0.00    +0.028 C 
ATOM      7  C   UNL     1       7.380  -5.288  27.186  0.00  0.00    +0.006 C 
ENDBRANCH   5   6
BRANCH   5   8
ATOM      8  O   UNL     1      10.030  -5.500  24.906  0.00  0.00    -0.391 OA
ATOM      9  H   UNL     1      10.366  -5.282  24.020  0.00  0.00    +0.210 HD
ENDBRANCH   5   8
ENDBRANCH   3   5
ENDBRANCH   1   3
BRANCH   1  10
ATOM     10  C   UNL     1       8.480  -1.614  23.664  0.00  0.00    +0.168 C 
BRANCH  10  11
ATOM     11  P   UNL     1       9.239  -0.555  22.439  0.00  0.00    +0.198 P 
ATOM     12  H   UNL     1       8.328   0.085  21.572  0.00  0.00    +0.128 HD
ATOM     13  O   UNL     1      10.364   0.231  23.056  0.00  0.00    -0.294 OA
BRANCH  11  14
ATOM     14  O   UNL     1       9.939  -1.648  21.466  0.00  0.00    -0.345 OA
ATOM     15  H   UNL     1      10.815  -1.341  21.145  0.00  0.00    +0.217 HD
ENDBRANCH  11  14
ENDBRANCH  10  11
ENDBRANCH   1  10
TORSDOF 7
ENDMDL
MODEL 5
REMARK VINA RESULT:      -4.4      1.916      2.653
REMARK  Name = 
REMARK  9 active torsions:
REMARK  status: ('A' for Active; 'I' for Inactive)
REMARK    1  A    between atoms: C_2  and  C_3
REMARK    2  A    between atoms: C_2  and  C_4
REMARK    3  A    between atoms: C_2  and  C_11
REMARK    4  A    between atoms: C_4  and  C_6
REMARK    5  A    between atoms: C_6  and  P_7
REMARK    6  A    between atoms: P_7  and  O_9
REMARK    7  A    between atoms: C_11  and  O_13
REMARK    8  A    between atoms: C_11  and  C_14
REMARK    9  A    between atoms: C_14  and  C_15
REMARK                            x       y       z     vdW  Elec       q    Type
REMARK                         _______ _______ _______ _____ _____    ______ ____
ROOT
ATOM      1  C   UNL     1       9.269  -1.438  22.400  0.00  0.00    +0.148 C 
ATOM      2  O   UNL     1      10.415  -1.756  22.070  0.00  0.00    -0.296 OA
ENDROOT
BRANCH   1   3
ATOM      3  C   UNL     1       8.901   0.014  22.726  0.00  0.00    +0.081 C 
ATOM      4  C   UNL     1       9.565   0.939  21.699  0.00  0.00    +0.018 C 
BRANCH   3   5
ATOM      5  C   UNL     1       9.254   0.358  24.189  0.00  0.00    +0.124 C 
BRANCH   5   6
ATOM      6  C   UNL     1       9.676   1.830  24.358  0.00  0.00    +0.028 C 
ATOM      7  C   UNL     1       8.545   2.714  24.875  0.00  0.00    +0.006 C 
ENDBRANCH   5   6
BRANCH   5   8
ATOM      8  O   UNL     1      10.326  -0.454  24.659  0.00  0.00    -0.391 OA
ATOM      9  H   UNL     1      11.093  -0.333  24.075  0.00  0.00    +0.210 HD
ENDBRANCH   5   8
ENDBRANCH   3   5
ENDBRANCH   1   3
BRANCH   1  10
ATOM     10  C   UNL     1       8.226  -2.511  22.520  0.00  0.00    +0.168 C 
BRANCH  10  11
ATOM     11  P   UNL     1       8.444  -3.590  23.929  0.00  0.00    +0.198 P 
ATOM     12  H   UNL     1       7.857  -3.121  25.123  0.00  0.00    +0.128 HD
ATOM     13  O   UNL     1       8.261  -5.026  23.519  0.00  0.00    -0.294 OA
BRANCH  11  14
ATOM     14  O   UNL     1      10.028  -3.409  24.224  0.00  0.00    -0.345 OA
ATOM     15  H   UNL     1      10.566  -4.082  23.751  0.00  0.00    +0.217 HD
ENDBRANCH  11  14
ENDBRANCH  10  11
ENDBRANCH   1  10
TORSDOF 7
ENDMDL
MODEL 6
REMARK VINA RESULT:      -4.3      1.433      1.824
REMARK  Name = 
REMARK  9 active torsions:
REMARK  status: ('A' for Active; 'I' for Inactive)
REMARK    1  A    between atoms: C_2  and  C_3
REMARK    2  A    between atoms: C_2  and  C_4
REMARK    3  A    between atoms: C_2  and  C_11
REMARK    4  A    between atoms: C_4  and  C_6
REMARK    5  A    between atoms: C_6  and  P_7
REMARK    6  A    between atoms: P_7  and  O_9
REMARK    7  A    between atoms: C_11  and  O_13
REMARK    8  A    between atoms: C_11  and  C_14
REMARK    9  A    between atoms: C_14  and  C_15
REMARK                            x       y       z     vdW  Elec       q    Type
REMARK                         _______ _______ _______ _____ _____    ______ ____
ROOT
ATOM      1  C   UNL     1       9.092  -3.098  24.048  0.00  0.00    +0.148 C 
ATOM      2  O   UNL     1      10.293  -3.385  24.061  0.00  0.00    -0.296 OA
ENDROOT
BRANCH   1   3
ATOM      3  C   UNL     1       8.593  -1.763  23.484  0.00  0.00    +0.081 C 
ATOM      4  C   UNL     1       9.025  -1.647  22.018  0.00  0.00    +0.018 C 
BRANCH   3   5
ATOM      5  C   UNL     1       9.059  -0.583  24.363  0.00  0.00    +0.124 C 
BRANCH   5   6
ATOM      6  C   UNL     1      10.384   0.027  23.869  0.00  0.00    +0.028 C 
ATOM      7  C   UNL     1      10.462   1.534  24.095  0.00  0.00    +0.006 C 
ENDBRANCH   5   6
BRANCH   5   8
ATOM      8  O   UNL     1       9.253  -0.998  25.712  0.00  0.00    -0.391 OA
ATOM      9  H   UNL     1       9.766  -0.318  26.181  0.00  0.00    +0.210 HD
ENDBRANCH   5   8
ENDBRANCH   3   5
ENDBRANCH   1   3
BRANCH   1  10
ATOM     10  C   UNL     1       8.110  -4.069  24.635  0.00  0.00    +0.168 C 
BRANCH  10  11
ATOM     11  P   UNL     1       8.655  -4.832  26.158  0.00  0.00    +0.198 P 
ATOM     12  H   UNL     1       9.257  -3.944  27.075  0.00  0.00    +0.128 HD
ATOM     13  O   UNL     1       7.631  -5.825  26.639  0.00  0.00    -0.294 OA
BRANCH  11  14
ATOM     14  O   UNL     1       9.917  -5.707  25.640  0.00  0.00    -0.345 OA
ATOM     15  H   UNL     1       9.949  -6.590  26.070  0.00  0.00    +0.217 HD
ENDBRANCH  11  14
ENDBRANCH  10  11
ENDBRANCH   1  10
TORSDOF 7
ENDMDL
MODEL 7
REMARK VINA RESULT:      -4.2      5.475      7.423
REMARK  Name = 
REMARK  9 active torsions:
REMARK  status: ('A' for Active; 'I' for Inactive)
REMARK    1  A    between atoms: C_2  and  C_3
REMARK    2  A    between atoms: C_2  and  C_4
REMARK    3  A    between atoms: C_2  and  C_11
REMARK    4  A    between atoms: C_4  and  C_6
REMARK    5  A    between atoms: C_6  and  P_7
REMARK    6  A    between atoms: P_7  and  O_9
REMARK    7  A    between atoms: C_11  and  O_13
REMARK    8  A    between atoms: C_11  and  C_14
REMARK    9  A    between atoms: C_14  and  C_15
REMARK                            x       y       z     vdW  Elec       q    Type
REMARK                         _______ _______ _______ _____ _____    ______ ____
ROOT
ATOM      1  C   UNL     1      10.425   3.416  23.628  0.00  0.00    +0.148 C 
ATOM      2  O   UNL     1      11.280   2.542  23.802  0.00  0.00    -0.296 OA
ENDROOT
BRANCH   1   3
ATOM      3  C   UNL     1       8.941   3.067  23.467  0.00  0.00    +0.081 C 
ATOM      4  C   UNL     1       8.437   2.421  24.763  0.00  0.00    +0.018 C 
BRANCH   3   5
ATOM      5  C   UNL     1       8.711   2.200  22.212  0.00  0.00    +0.124 C 
BRANCH   5   6
ATOM      6  C   UNL     1       8.397   0.733  22.563  0.00  0.00    +0.028 C 
ATOM      7  C   UNL     1       9.479  -0.233  22.087  0.00  0.00    +0.006 C 
ENDBRANCH   5   6
BRANCH   5   8
ATOM      8  O   UNL     1       9.862   2.204  21.371  0.00  0.00    -0.391 OA
ATOM      9  H   UNL     1       9.592   1.973  20.466  0.00  0.00    +0.210 HD
ENDBRANCH   5   8
ENDBRANCH   3   5
ENDBRANCH   1   3
BRANCH   1  10
ATOM     10  C   UNL     1      10.864   4.849  23.535  0.00  0.00    +0.168 C 
BRANCH  10  11
ATOM     11  P   UNL     1      12.627   5.062  23.324  0.00  0.00    +0.198 P 
ATOM     12  H   UNL     1      13.407   3.974  23.771  0.00  0.00    +0.128 HD
ATOM     13  O   UNL     1      12.919   5.696  21.990  0.00  0.00    -0.294 OA
BRANCH  11  14
ATOM     14  O   UNL     1      12.944   6.198  24.437  0.00  0.00    -0.345 OA
ATOM     15  H   UNL     1      13.155   7.064  24.023  0.00  0.00    +0.217 HD
ENDBRANCH  11  14
ENDBRANCH  10  11
ENDBRANCH   1  10
TORSDOF 7
ENDMDL
MODEL 8
REMARK VINA RESULT:      -4.1      1.787      2.240
REMARK  Name = 
REMARK  9 active torsions:
REMARK  status: ('A' for Active; 'I' for Inactive)
REMARK    1  A    between atoms: C_2  and  C_3
REMARK    2  A    between atoms: C_2  and  C_4
REMARK    3  A    between atoms: C_2  and  C_11
REMARK    4  A    between atoms: C_4  and  C_6
REMARK    5  A    between atoms: C_6  and  P_7
REMARK    6  A    between atoms: P_7  and  O_9
REMARK    7  A    between atoms: C_11  and  O_13
REMARK    8  A    between atoms: C_11  and  C_14
REMARK    9  A    between atoms: C_14  and  C_15
REMARK                            x       y       z     vdW  Elec       q    Type
REMARK                         _______ _______ _______ _____ _____    ______ ____
ROOT
ATOM      1  C   UNL     1       8.032  -2.170  22.835  0.00  0.00    +0.148 C 
ATOM      2  O   UNL     1       7.148  -1.307  22.836  0.00  0.00    -0.296 OA
ENDROOT
BRANCH   1   3
ATOM      3  C   UNL     1       9.475  -1.839  23.230  0.00  0.00    +0.081 C 
ATOM      4  C   UNL     1       9.487  -1.284  24.659  0.00  0.00    +0.018 C 
BRANCH   3   5
ATOM      5  C   UNL     1      10.131  -0.900  22.196  0.00  0.00    +0.124 C 
BRANCH   5   6
ATOM      6  C   UNL     1      10.131   0.569  22.656  0.00  0.00    +0.028 C 
ATOM      7  C   UNL     1       9.251   1.462  21.785  0.00  0.00    +0.006 C 
ENDBRANCH   5   6
BRANCH   5   8
ATOM      8  O   UNL     1       9.446  -0.960  20.947  0.00  0.00    -0.391 OA
ATOM      9  H   UNL     1       9.475  -1.874  20.615  0.00  0.00    +0.210 HD
ENDBRANCH   5   8
ENDBRANCH   3   5
ENDBRANCH   1   3
BRANCH   1  10
ATOM     10  C   UNL     1       7.683  -3.563  22.397  0.00  0.00    +0.168 C 
BRANCH  10  11
ATOM     11  P   UNL     1       7.496  -4.728  23.742  0.00  0.00    +0.198 P 
ATOM     12  H   UNL     1       6.427  -5.635  23.586  0.00  0.00    +0.128 HD
ATOM     13  O   UNL     1       8.843  -5.226  24.190  0.00  0.00    -0.294 OA
BRANCH  11  14
ATOM     14  O   UNL     1       6.961  -3.758  24.927  0.00  0.00    -0.345 OA
ATOM     15  H   UNL     1       6.344  -3.074  24.586  0.00  0.00    +0.217 HD
ENDBRANCH  11  14
ENDBRANCH  10  11
ENDBRANCH   1  10
TORSDOF 7
ENDMDL
MODEL 9
REMARK VINA RESULT:      -4.1      2.957      4.293
REMARK  Name = 
REMARK  9 active torsions:
REMARK  status: ('A' for Active; 'I' for Inactive)
REMARK    1  A    between atoms: C_2  and  C_3
REMARK    2  A    between atoms: C_2  and  C_4
REMARK    3  A    between atoms: C_2  and  C_11
REMARK    4  A    between atoms: C_4  and  C_6
REMARK    5  A    between atoms: C_6  and  P_7
REMARK    6  A    between atoms: P_7  and  O_9
REMARK    7  A    between atoms: C_11  and  O_13
REMARK    8  A    between atoms: C_11  and  C_14
REMARK    9  A    between atoms: C_14  and  C_15
REMARK                            x       y       z     vdW  Elec       q    Type
REMARK                         _______ _______ _______ _____ _____    ______ ____
ROOT
ATOM      1  C   UNL     1      10.302   0.847  23.778  0.00  0.00    +0.148 C 
ATOM      2  O   UNL     1      11.301   0.771  24.500  0.00  0.00    -0.296 OA
ENDROOT
BRANCH   1   3
ATOM      3  C   UNL     1      10.220   0.101  22.441  0.00  0.00    +0.081 C 
ATOM      4  C   UNL     1       9.144   0.758  21.568  0.00  0.00    +0.018 C 
BRANCH   3   5
ATOM      5  C   UNL     1       9.999  -1.410  22.664  0.00  0.00    +0.124 C 
BRANCH   5   6
ATOM      6  C   UNL     1       8.698  -1.914  22.013  0.00  0.00    +0.028 C 
ATOM      7  C   UNL     1       8.012  -3.006  22.829  0.00  0.00    +0.006 C 
ENDBRANCH   5   6
BRANCH   5   8
ATOM      8  O   UNL     1       9.930  -1.715  24.055  0.00  0.00    -0.391 OA
ATOM      9  H   UNL     1      10.459  -2.512  24.229  0.00  0.00    +0.210 HD
ENDBRANCH   5   8
ENDBRANCH   3   5
ENDBRANCH   1   3
BRANCH   1  10
ATOM     10  C   UNL     1       9.162   1.723  24.209  0.00  0.00    +0.168 C 
BRANCH  10  11
ATOM     11  P   UNL     1       8.022   0.937  25.342  0.00  0.00    +0.198 P 
ATOM     12  H   UNL     1       7.396   1.819  26.249  0.00  0.00    +0.128 HD
ATOM     13  O   UNL     1       7.206  -0.102  24.622  0.00  0.00    -0.294 OA
BRANCH  11  14
ATOM     14  O   UNL     1       9.043   0.119  26.300  0.00  0.00    -0.345 OA
ATOM     15  H   UNL     1       9.047  -0.841  26.092  0.00  0.00    +0.217 HD
ENDBRANCH  11  14
ENDBRANCH  10  11
ENDBRANCH   1  10
TORSDOF 7
ENDMDL
