MODEL 1
REMARK VINA RESULT:      -6.8      0.000      0.000
REMARK  Name = 
REMARK  8 active torsions:
REMARK  status: ('A' for Active; 'I' for Inactive)
REMARK    1  A    between atoms: C_1  and  C_2
REMARK    2  A    between atoms: C_2  and  O_3
REMARK    3  A    between atoms: O_3  and  C_4
REMARK    4  A    between atoms: N_6  and  C_7
REMARK    5  A    between atoms: C_8  and  N_9
REMARK    6  A    between atoms: C_11  and  N_12
REMARK    7  A    between atoms: N_12  and  C_13
REMARK    8  A    between atoms: C_13  and  C_14
REMARK                            x       y       z     vdW  Elec       q    Type
REMARK                         _______ _______ _______ _____ _____    ______ ____
ROOT
ATOM      1  C   UNL     1       7.446  -5.109  25.538  0.00  0.00    +0.057 A 
ATOM      2  C   UNL     1       6.588  -4.794  24.483  0.00  0.00    +0.027 A 
ATOM      3  C   UNL     1       6.987  -3.904  23.480  0.00  0.00    +0.025 A 
ATOM      4  C   UNL     1       8.257  -3.324  23.501  0.00  0.00    +0.029 A 
ATOM      5  C   UNL     1       9.161  -3.769  24.466  0.00  0.00    +0.047 A 
ATOM      6  C   UNL     1       8.774  -4.607  25.521  0.00  0.00    +0.048 A 
ENDROOT
BRANCH   1   8
ATOM      7  C   UNL     1       6.528  -5.555  27.791  0.00  0.00    +0.405 C 
ATOM      8  N   UNL     1       6.933  -5.954  26.548  0.00  0.00    -0.249 N 
ATOM      9  H   UNL     1       6.816  -6.934  26.350  0.00  0.00    +0.158 HD
ATOM     10  O   UNL     1       6.294  -4.407  28.145  0.00  0.00    -0.226 OA
BRANCH   7  11
ATOM     11  O   UNL     1       6.501  -6.620  28.634  0.00  0.00    -0.450 OA
BRANCH  11  13
ATOM     12  C   UNL     1       4.177  -6.866  29.211  0.00  0.00    +0.048 C 
ATOM     13  C   UNL     1       5.555  -6.451  29.705  0.00  0.00    +0.230 C 
ENDBRANCH  11  13
ENDBRANCH   7  11
ENDBRANCH   1   8
BRANCH   6  14
ATOM     14  N   UNL     1       9.803  -5.101  26.354  0.00  0.00    -0.356 N 
ATOM     15  H   UNL     1      10.104  -4.421  27.043  0.00  0.00    +0.142 HD
ATOM     16  H   UNL     1       9.494  -5.942  26.845  0.00  0.00    +0.142 HD
ENDBRANCH   6  14
BRANCH   4  17
ATOM     17  N   UNL     1       8.713  -2.391  22.559  0.00  0.00    -0.340 N 
ATOM     18  H   UNL     1       8.043  -1.631  22.454  0.00  0.00    +0.146 HD
BRANCH  17  19
ATOM     19  C   UNL     1      10.072  -1.893  22.744  0.00  0.00    +0.137 C 
BRANCH  19  20
ATOM     20  C   UNL     1      10.104  -0.386  22.898  0.00  0.00    -0.030 A 
ATOM     21  C   UNL     1       9.803   0.483  21.835  0.00  0.00    +0.008 A 
ATOM     22  C   UNL     1       9.914   1.866  21.996  0.00  0.00    +0.038 A 
ATOM     23  C   UNL     1      10.344   2.383  23.212  0.00  0.00    +0.123 A 
ATOM     24  F   UNL     1      10.456   3.709  23.365  0.00  0.00    -0.205 F 
ATOM     25  C   UNL     1      10.673   1.544  24.268  0.00  0.00    +0.038 A 
ATOM     26  C   UNL     1      10.559   0.162  24.111  0.00  0.00    +0.008 A 
ENDBRANCH  19  20
ENDBRANCH  17  19
ENDBRANCH   4  17
TORSDOF 7
ENDMDL
MODEL 2
REMARK VINA RESULT:      -6.7      4.905      8.659
REMARK  Name = 
REMARK  8 active torsions:
REMARK  status: ('A' for Active; 'I' for Inactive)
REMARK    1  A    between atoms: C_1  and  C_2
REMARK    2  A    between atoms: C_2  and  O_3
REMARK    3  A    between atoms: O_3  and  C_4
REMARK    4  A    between atoms: N_6  and  C_7
REMARK    5  A    between atoms: C_8  and  N_9
REMARK    6  A    between atoms: C_11  and  N_12
REMARK    7  A    between atoms: N_12  and  C_13
REMARK    8  A    between atoms: C_13  and  C_14
REMARK                            x       y       z     vdW  Elec       q    Type
REMARK                         _______ _______ _______ _____ _____    ______ ____
ROOT
ATOM      1  C   UNL     1      10.033   1.933  23.421  0.00  0.00    +0.057 A 
ATOM      2  C   UNL     1      10.670   1.251  24.459  0.00  0.00    +0.027 A 
ATOM      3  C   UNL     1      10.569  -0.140  24.566  0.00  0.00    +0.025 A 
ATOM      4  C   UNL     1       9.848  -0.880  23.628  0.00  0.00    +0.029 A 
ATOM      5  C   UNL     1       9.355  -0.210  22.508  0.00  0.00    +0.047 A 
ATOM      6  C   UNL     1       9.381   1.188  22.404  0.00  0.00    +0.048 A 
ENDROOT
BRANCH   1   8
ATOM      7  C   UNL     1       9.200   4.194  23.980  0.00  0.00    +0.405 C 
ATOM      8  N   UNL     1      10.121   3.344  23.434  0.00  0.00    -0.249 N 
ATOM      9  H   UNL     1      10.938   3.785  23.044  0.00  0.00    +0.158 HD
ATOM     10  O   UNL     1       8.304   3.893  24.757  0.00  0.00    -0.226 OA
BRANCH   7  11
ATOM     11  O   UNL     1       9.357   5.441  23.464  0.00  0.00    -0.450 OA
BRANCH  11  13
ATOM     12  C   UNL     1      10.545   6.724  25.118  0.00  0.00    +0.048 C 
ATOM     13  C   UNL     1      10.640   6.010  23.778  0.00  0.00    +0.230 C 
ENDBRANCH  11  13
ENDBRANCH   7  11
ENDBRANCH   1   8
BRANCH   6  14
ATOM     14  N   UNL     1       8.981   1.743  21.168  0.00  0.00    -0.356 N 
ATOM     15  H   UNL     1       7.974   1.749  21.052  0.00  0.00    +0.142 HD
ATOM     16  H   UNL     1       9.320   2.703  21.079  0.00  0.00    +0.142 HD
ENDBRANCH   6  14
BRANCH   4  17
ATOM     17  N   UNL     1       9.664  -2.269  23.691  0.00  0.00    -0.340 N 
ATOM     18  H   UNL     1      10.469  -2.717  24.127  0.00  0.00    +0.146 HD
BRANCH  17  19
ATOM     19  C   UNL     1       8.408  -2.732  24.271  0.00  0.00    +0.137 C 
BRANCH  19  20
ATOM     20  C   UNL     1       7.665  -3.664  23.336  0.00  0.00    -0.030 A 
ATOM     21  C   UNL     1       7.900  -5.050  23.315  0.00  0.00    +0.008 A 
ATOM     22  C   UNL     1       7.247  -5.867  22.390  0.00  0.00    +0.038 A 
ATOM     23  C   UNL     1       6.373  -5.299  21.470  0.00  0.00    +0.123 A 
ATOM     24  F   UNL     1       5.750  -6.081  20.579  0.00  0.00    -0.205 F 
ATOM     25  C   UNL     1       6.145  -3.930  21.453  0.00  0.00    +0.038 A 
ATOM     26  C   UNL     1       6.793  -3.113  22.381  0.00  0.00    +0.008 A 
ENDBRANCH  19  20
ENDBRANCH  17  19
ENDBRANCH   4  17
TORSDOF 7
ENDMDL
MODEL 3
REMARK VINA RESULT:      -6.7      5.213      8.816
REMARK  Name = 
REMARK  8 active torsions:
REMARK  status: ('A' for Active; 'I' for Inactive)
REMARK    1  A    between atoms: C_1  and  C_2
REMARK    2  A    between atoms: C_2  and  O_3
REMARK    3  A    between atoms: O_3  and  C_4
REMARK    4  A    between atoms: N_6  and  C_7
REMARK    5  A    between atoms: C_8  and  N_9
REMARK    6  A    between atoms: C_11  and  N_12
REMARK    7  A    between atoms: N_12  and  C_13
REMARK    8  A    between atoms: C_13  and  C_14
REMARK                            x       y       z     vdW  Elec       q    Type
REMARK                         _______ _______ _______ _____ _____    ______ ____
ROOT
ATOM      1  C   UNL     1      10.319   1.649  23.005  0.00  0.00    +0.057 A 
ATOM      2  C   UNL     1       9.634   1.520  21.796  0.00  0.00    +0.027 A 
ATOM      3  C   UNL     1       9.036   0.305  21.440  0.00  0.00    +0.025 A 
ATOM      4  C   UNL     1       9.095  -0.798  22.293  0.00  0.00    +0.029 A 
ATOM      5  C   UNL     1       9.638  -0.611  23.565  0.00  0.00    +0.047 A 
ATOM      6  C   UNL     1      10.302   0.569  23.926  0.00  0.00    +0.048 A 
ENDROOT
BRANCH   1   8
ATOM      7  C   UNL     1      10.361   4.009  23.744  0.00  0.00    +0.405 C 
ATOM      8  N   UNL     1      10.959   2.885  23.248  0.00  0.00    -0.249 N 
ATOM      9  H   UNL     1      11.950   2.963  23.079  0.00  0.00    +0.158 HD
ATOM     10  O   UNL     1       9.269   4.067  24.296  0.00  0.00    -0.226 OA
BRANCH   7  11
ATOM     11  O   UNL     1      11.116   5.102  23.459  0.00  0.00    -0.450 OA
BRANCH  11  13
ATOM     12  C   UNL     1      13.116   5.606  22.219  0.00  0.00    +0.048 C 
ATOM     13  C   UNL     1      12.516   4.793  23.357  0.00  0.00    +0.230 C 
ENDBRANCH  11  13
ENDBRANCH   7  11
ENDBRANCH   1   8
BRANCH   6  14
ATOM     14  N   UNL     1      10.687   0.696  25.279  0.00  0.00    -0.356 N 
ATOM     15  H   UNL     1      10.048   1.273  25.813  0.00  0.00    +0.142 HD
ATOM     16  H   UNL     1      10.739  -0.223  25.725  0.00  0.00    +0.142 HD
ENDBRANCH   6  14
BRANCH   4  17
ATOM     17  N   UNL     1       8.561  -2.058  21.990  0.00  0.00    -0.340 N 
ATOM     18  H   UNL     1       9.027  -2.459  21.177  0.00  0.00    +0.146 HD
BRANCH  17  19
ATOM     19  C   UNL     1       8.479  -3.011  23.091  0.00  0.00    +0.137 C 
BRANCH  19  20
ATOM     20  C   UNL     1       7.244  -3.883  22.994  0.00  0.00    -0.030 A 
ATOM     21  C   UNL     1       7.302  -5.220  22.561  0.00  0.00    +0.008 A 
ATOM     22  C   UNL     1       6.133  -5.970  22.415  0.00  0.00    +0.038 A 
ATOM     23  C   UNL     1       4.903  -5.381  22.683  0.00  0.00    +0.123 A 
ATOM     24  F   UNL     1       3.780  -6.098  22.538  0.00  0.00    -0.205 F 
ATOM     25  C   UNL     1       4.818  -4.055  23.085  0.00  0.00    +0.038 A 
ATOM     26  C   UNL     1       5.986  -3.306  23.236  0.00  0.00    +0.008 A 
ENDBRANCH  19  20
ENDBRANCH  17  19
ENDBRANCH   4  17
TORSDOF 7
ENDMDL
MODEL 4
REMARK VINA RESULT:      -6.5      2.127      2.793
REMARK  Name = 
REMARK  8 active torsions:
REMARK  status: ('A' for Active; 'I' for Inactive)
REMARK    1  A    between atoms: C_1  and  C_2
REMARK    2  A    between atoms: C_2  and  O_3
REMARK    3  A    between atoms: O_3  and  C_4
REMARK    4  A    between atoms: N_6  and  C_7
REMARK    5  A    between atoms: C_8  and  N_9
REMARK    6  A    between atoms: C_11  and  N_12
REMARK    7  A    between atoms: N_12  and  C_13
REMARK    8  A    between atoms: C_13  and  C_14
REMARK                            x       y       z     vdW  Elec       q    Type
REMARK                         _______ _______ _______ _____ _____    ______ ____
ROOT
ATOM      1  C   UNL     1       6.397  -4.812  25.186  0.00  0.00    +0.057 A 
ATOM      2  C   UNL     1       6.364  -4.088  23.993  0.00  0.00    +0.027 A 
ATOM      3  C   UNL     1       7.501  -3.408  23.540  0.00  0.00    +0.025 A 
ATOM      4  C   UNL     1       8.696  -3.453  24.259  0.00  0.00    +0.029 A 
ATOM      5  C   UNL     1       8.764  -4.308  25.358  0.00  0.00    +0.047 A 
ATOM      6  C   UNL     1       7.630  -4.950  25.876  0.00  0.00    +0.048 A 
ENDROOT
BRANCH   1   8
ATOM      7  C   UNL     1       4.546  -6.440  24.993  0.00  0.00    +0.405 C 
ATOM      8  N   UNL     1       5.184  -5.401  25.609  0.00  0.00    -0.249 N 
ATOM      9  H   UNL     1       4.748  -5.066  26.453  0.00  0.00    +0.158 HD
ATOM     10  O   UNL     1       5.025  -7.192  24.154  0.00  0.00    -0.226 OA
BRANCH   7  11
ATOM     11  O   UNL     1       3.244  -6.480  25.378  0.00  0.00    -0.450 OA
BRANCH  11  13
ATOM     12  C   UNL     1       2.187  -5.299  23.567  0.00  0.00    +0.048 C 
ATOM     13  C   UNL     1       2.535  -5.274  25.048  0.00  0.00    +0.230 C 
ENDBRANCH  11  13
ENDBRANCH   7  11
ENDBRANCH   1   8
BRANCH   6  14
ATOM     14  N   UNL     1       7.845  -5.897  26.902  0.00  0.00    -0.356 N 
ATOM     15  H   UNL     1       7.347  -6.765  26.740  0.00  0.00    +0.142 HD
ATOM     16  H   UNL     1       8.841  -6.108  26.992  0.00  0.00    +0.142 HD
ENDBRANCH   6  14
BRANCH   4  17
ATOM     17  N   UNL     1       9.862  -2.764  23.894  0.00  0.00    -0.340 N 
ATOM     18  H   UNL     1      10.666  -3.389  23.905  0.00  0.00    +0.146 HD
BRANCH  17  19
ATOM     19  C   UNL     1       9.798  -1.986  22.661  0.00  0.00    +0.137 C 
BRANCH  19  20
ATOM     20  C   UNL     1      10.058  -0.515  22.907  0.00  0.00    -0.030 A 
ATOM     21  C   UNL     1      10.407  -0.016  24.175  0.00  0.00    +0.008 A 
ATOM     22  C   UNL     1      10.569   1.356  24.378  0.00  0.00    +0.038 A 
ATOM     23  C   UNL     1      10.364   2.235  23.322  0.00  0.00    +0.123 A 
ATOM     24  F   UNL     1      10.513   3.552  23.517  0.00  0.00    -0.205 F 
ATOM     25  C   UNL     1       9.992   1.769  22.067  0.00  0.00    +0.038 A 
ATOM     26  C   UNL     1       9.835   0.398  21.861  0.00  0.00    +0.008 A 
ENDBRANCH  19  20
ENDBRANCH  17  19
ENDBRANCH   4  17
TORSDOF 7
ENDMDL
MODEL 5
REMARK VINA RESULT:      -6.5      4.598      8.527
REMARK  Name = 
REMARK  8 active torsions:
REMARK  status: ('A' for Active; 'I' for Inactive)
REMARK    1  A    between atoms: C_1  and  C_2
REMARK    2  A    between atoms: C_2  and  O_3
REMARK    3  A    between atoms: O_3  and  C_4
REMARK    4  A    between atoms: N_6  and  C_7
REMARK    5  A    between atoms: C_8  and  N_9
REMARK    6  A    between atoms: C_11  and  N_12
REMARK    7  A    between atoms: N_12  and  C_13
REMARK    8  A    between atoms: C_13  and  C_14
REMARK                            x       y       z     vdW  Elec       q    Type
REMARK                         _______ _______ _______ _____ _____    ______ ____
ROOT
ATOM      1  C   UNL     1      10.292   1.563  23.023  0.00  0.00    +0.057 A 
ATOM      2  C   UNL     1       9.618   1.383  21.814  0.00  0.00    +0.027 A 
ATOM      3  C   UNL     1       9.049   0.146  21.492  0.00  0.00    +0.025 A 
ATOM      4  C   UNL     1       9.126  -0.930  22.377  0.00  0.00    +0.029 A 
ATOM      5  C   UNL     1       9.657  -0.694  23.646  0.00  0.00    +0.047 A 
ATOM      6  C   UNL     1      10.293   0.511  23.976  0.00  0.00    +0.048 A 
ENDROOT
BRANCH   1   8
ATOM      7  C   UNL     1      10.293   3.927  23.751  0.00  0.00    +0.405 C 
ATOM      8  N   UNL     1      10.904   2.820  23.233  0.00  0.00    -0.249 N 
ATOM      9  H   UNL     1      11.883   2.927  23.021  0.00  0.00    +0.158 HD
ATOM     10  O   UNL     1       9.225   3.954  24.350  0.00  0.00    -0.226 OA
BRANCH   7  11
ATOM     11  O   UNL     1      11.000   5.041  23.429  0.00  0.00    -0.450 OA
BRANCH  11  13
ATOM     12  C   UNL     1      13.039   5.557  22.259  0.00  0.00    +0.048 C 
ATOM     13  C   UNL     1      12.420   4.813  23.434  0.00  0.00    +0.230 C 
ENDBRANCH  11  13
ENDBRANCH   7  11
ENDBRANCH   1   8
BRANCH   6  14
ATOM     14  N   UNL     1      10.666   0.685  25.327  0.00  0.00    -0.356 N 
ATOM     15  H   UNL     1      10.463  -0.129  25.895  0.00  0.00    +0.142 HD
ATOM     16  H   UNL     1      11.666   0.887  25.400  0.00  0.00    +0.142 HD
ENDBRANCH   6  14
BRANCH   4  17
ATOM     17  N   UNL     1       8.622  -2.210  22.108  0.00  0.00    -0.340 N 
ATOM     18  H   UNL     1       9.292  -2.925  22.387  0.00  0.00    +0.146 HD
BRANCH  17  19
ATOM     19  C   UNL     1       7.283  -2.499  22.609  0.00  0.00    +0.137 C 
BRANCH  19  20
ATOM     20  C   UNL     1       7.317  -3.410  23.819  0.00  0.00    -0.030 A 
ATOM     21  C   UNL     1       6.322  -3.376  24.812  0.00  0.00    +0.008 A 
ATOM     22  C   UNL     1       6.426  -4.181  25.949  0.00  0.00    +0.038 A 
ATOM     23  C   UNL     1       7.532  -5.006  26.106  0.00  0.00    +0.123 A 
ATOM     24  F   UNL     1       7.635  -5.774  27.199  0.00  0.00    -0.205 F 
ATOM     25  C   UNL     1       8.541  -5.037  25.152  0.00  0.00    +0.038 A 
ATOM     26  C   UNL     1       8.437  -4.237  24.014  0.00  0.00    +0.008 A 
ENDBRANCH  19  20
ENDBRANCH  17  19
ENDBRANCH   4  17
TORSDOF 7
ENDMDL
MODEL 6
REMARK VINA RESULT:      -6.5      5.585      9.037
REMARK  Name = 
REMARK  8 active torsions:
REMARK  status: ('A' for Active; 'I' for Inactive)
REMARK    1  A    between atoms: C_1  and  C_2
REMARK    2  A    between atoms: C_2  and  O_3
REMARK    3  A    between atoms: O_3  and  C_4
REMARK    4  A    between atoms: N_6  and  C_7
REMARK    5  A    between atoms: C_8  and  N_9
REMARK    6  A    between atoms: C_11  and  N_12
REMARK    7  A    between atoms: N_12  and  C_13
REMARK    8  A    between atoms: C_13  and  C_14
REMARK                            x       y       z     vdW  Elec       q    Type
REMARK                         _______ _______ _______ _____ _____    ______ ____
ROOT
ATOM      1  C   UNL     1       9.307   2.683  23.826  0.00  0.00    +0.057 A 
ATOM      2  C   UNL     1       8.509   2.268  24.894  0.00  0.00    +0.027 A 
ATOM      3  C   UNL     1       7.508   1.308  24.706  0.00  0.00    +0.025 A 
ATOM      4  C   UNL     1       7.298   0.729  23.454  0.00  0.00    +0.029 A 
ATOM      5  C   UNL     1       8.204   1.028  22.437  0.00  0.00    +0.047 A 
ATOM      6  C   UNL     1       9.173   2.032  22.572  0.00  0.00    +0.048 A 
ENDROOT
BRANCH   1   8
ATOM      7  C   UNL     1      10.076   5.032  23.771  0.00  0.00    +0.405 C 
ATOM      8  N   UNL     1      10.238   3.713  24.087  0.00  0.00    -0.249 N 
ATOM      9  H   UNL     1      11.090   3.488  24.576  0.00  0.00    +0.158 HD
ATOM     10  O   UNL     1       9.027   5.581  23.459  0.00  0.00    -0.226 OA
BRANCH   7  11
ATOM     11  O   UNL     1      11.282   5.659  23.760  0.00  0.00    -0.450 OA
BRANCH  11  13
ATOM     12  C   UNL     1      13.120   5.547  22.210  0.00  0.00    +0.048 C 
ATOM     13  C   UNL     1      12.341   4.808  23.290  0.00  0.00    +0.230 C 
ENDBRANCH  11  13
ENDBRANCH   7  11
ENDBRANCH   1   8
BRANCH   6  14
ATOM     14  N   UNL     1      10.120   2.149  21.530  0.00  0.00    -0.356 N 
ATOM     15  H   UNL     1       9.732   1.914  20.624  0.00  0.00    +0.142 HD
ATOM     16  H   UNL     1      10.488   3.102  21.485  0.00  0.00    +0.142 HD
ENDBRANCH   6  14
BRANCH   4  17
ATOM     17  N   UNL     1       6.289  -0.205  23.177  0.00  0.00    -0.340 N 
ATOM     18  H   UNL     1       6.376  -0.553  22.223  0.00  0.00    +0.146 HD
BRANCH  17  19
ATOM     19  C   UNL     1       6.129  -1.292  24.137  0.00  0.00    +0.137 C 
BRANCH  19  20
ATOM     20  C   UNL     1       6.440  -2.640  23.521  0.00  0.00    -0.030 A 
ATOM     21  C   UNL     1       7.395  -3.513  24.070  0.00  0.00    +0.008 A 
ATOM     22  C   UNL     1       7.706  -4.717  23.433  0.00  0.00    +0.038 A 
ATOM     23  C   UNL     1       7.078  -5.042  22.237  0.00  0.00    +0.123 A 
ATOM     24  F   UNL     1       7.380  -6.194  21.623  0.00  0.00    -0.205 F 
ATOM     25  C   UNL     1       6.151  -4.183  21.661  0.00  0.00    +0.038 A 
ATOM     26  C   UNL     1       5.836  -2.983  22.298  0.00  0.00    +0.008 A 
ENDBRANCH  19  20
ENDBRANCH  17  19
ENDBRANCH   4  17
TORSDOF 7
ENDMDL
MODEL 7
REMARK VINA RESULT:      -6.3      4.451      8.407
REMARK  Name = 
REMARK  8 active torsions:
REMARK  status: ('A' for Active; 'I' for Inactive)
REMARK    1  A    between atoms: C_1  and  C_2
REMARK    2  A    between atoms: C_2  and  O_3
REMARK    3  A    between atoms: O_3  and  C_4
REMARK    4  A    between atoms: N_6  and  C_7
REMARK    5  A    between atoms: C_8  and  N_9
REMARK    6  A    between atoms: C_11  and  N_12
REMARK    7  A    between atoms: N_12  and  C_13
REMARK    8  A    between atoms: C_13  and  C_14
REMARK                            x       y       z     vdW  Elec       q    Type
REMARK                         _______ _______ _______ _____ _____    ______ ____
ROOT
ATOM      1  C   UNL     1       9.614   1.886  23.928  0.00  0.00    +0.057 A 
ATOM      2  C   UNL     1       9.608   0.974  24.985  0.00  0.00    +0.027 A 
ATOM      3  C   UNL     1       9.678  -0.402  24.741  0.00  0.00    +0.025 A 
ATOM      4  C   UNL     1       9.775  -0.894  23.438  0.00  0.00    +0.029 A 
ATOM      5  C   UNL     1       9.945   0.026  22.404  0.00  0.00    +0.047 A 
ATOM      6  C   UNL     1       9.813   1.408  22.606  0.00  0.00    +0.048 A 
ENDROOT
BRANCH   1   8
ATOM      7  C   UNL     1       8.329   3.994  24.071  0.00  0.00    +0.405 C 
ATOM      8  N   UNL     1       9.460   3.250  24.260  0.00  0.00    -0.249 N 
ATOM      9  H   UNL     1      10.224   3.733  24.706  0.00  0.00    +0.158 HD
ATOM     10  O   UNL     1       7.207   3.563  23.837  0.00  0.00    -0.226 OA
BRANCH   7  11
ATOM     11  O   UNL     1       8.635   5.317  24.089  0.00  0.00    -0.450 OA
BRANCH  11  13
ATOM     12  C   UNL     1      10.432   6.667  24.949  0.00  0.00    +0.048 C 
ATOM     13  C   UNL     1      10.048   5.558  23.980  0.00  0.00    +0.230 C 
ENDBRANCH  11  13
ENDBRANCH   7  11
ENDBRANCH   1   8
BRANCH   6  14
ATOM     14  N   UNL     1      10.143   2.245  21.517  0.00  0.00    -0.356 N 
ATOM     15  H   UNL     1      10.452   1.724  20.705  0.00  0.00    +0.142 HD
ATOM     16  H   UNL     1       9.338   2.815  21.246  0.00  0.00    +0.142 HD
ENDBRANCH   6  14
BRANCH   4  17
ATOM     17  N   UNL     1       9.804  -2.257  23.111  0.00  0.00    -0.340 N 
ATOM     18  H   UNL     1      10.455  -2.757  23.715  0.00  0.00    +0.146 HD
BRANCH  17  19
ATOM     19  C   UNL     1       8.514  -2.933  23.029  0.00  0.00    +0.137 C 
BRANCH  19  20
ATOM     20  C   UNL     1       8.235  -3.769  24.261  0.00  0.00    -0.030 A 
ATOM     21  C   UNL     1       6.929  -4.113  24.654  0.00  0.00    +0.008 A 
ATOM     22  C   UNL     1       6.708  -4.824  25.835  0.00  0.00    +0.038 A 
ATOM     23  C   UNL     1       7.787  -5.175  26.637  0.00  0.00    +0.123 A 
ATOM     24  F   UNL     1       7.575  -5.852  27.773  0.00  0.00    -0.205 F 
ATOM     25  C   UNL     1       9.083  -4.823  26.284  0.00  0.00    +0.038 A 
ATOM     26  C   UNL     1       9.307  -4.117  25.101  0.00  0.00    +0.008 A 
ENDBRANCH  19  20
ENDBRANCH  17  19
ENDBRANCH   4  17
TORSDOF 7
ENDMDL
MODEL 8
REMARK VINA RESULT:      -6.3      4.853      8.524
REMARK  Name = 
REMARK  8 active torsions:
REMARK  status: ('A' for Active; 'I' for Inactive)
REMARK    1  A    between atoms: C_1  and  C_2
REMARK    2  A    between atoms: C_2  and  O_3
REMARK    3  A    between atoms: O_3  and  C_4
REMARK    4  A    between atoms: N_6  and  C_7
REMARK    5  A    between atoms: C_8  and  N_9
REMARK    6  A    between atoms: C_11  and  N_12
REMARK    7  A    between atoms: N_12  and  C_13
REMARK    8  A    between atoms: C_13  and  C_14
REMARK                            x       y       z     vdW  Elec       q    Type
REMARK                         _______ _______ _______ _____ _____    ______ ____
ROOT
ATOM      1  C   UNL     1       9.523   2.146  23.112  0.00  0.00    +0.057 A 
ATOM      2  C   UNL     1       9.746   1.538  21.875  0.00  0.00    +0.027 A 
ATOM      3  C   UNL     1       9.776   0.143  21.762  0.00  0.00    +0.025 A 
ATOM      4  C   UNL     1       9.566  -0.671  22.876  0.00  0.00    +0.029 A 
ATOM      5  C   UNL     1       9.184  -0.057  24.069  0.00  0.00    +0.047 A 
ATOM      6  C   UNL     1       9.208   1.335  24.234  0.00  0.00    +0.048 A 
ENDROOT
BRANCH   1   8
ATOM      7  C   UNL     1      10.699   4.297  23.443  0.00  0.00    +0.405 C 
ATOM      8  N   UNL     1       9.588   3.558  23.150  0.00  0.00    -0.249 N 
ATOM      9  H   UNL     1       8.765   4.089  22.914  0.00  0.00    +0.158 HD
ATOM     10  O   UNL     1      11.855   3.894  23.462  0.00  0.00    -0.226 OA
BRANCH   7  11
ATOM     11  O   UNL     1      10.337   5.554  23.808  0.00  0.00    -0.450 OA
BRANCH  11  13
ATOM     12  C   UNL     1       9.525   6.521  25.857  0.00  0.00    +0.048 C 
ATOM     13  C   UNL     1       9.219   5.566  24.712  0.00  0.00    +0.230 C 
ENDBRANCH  11  13
ENDBRANCH   7  11
ENDBRANCH   1   8
BRANCH   6  14
ATOM     14  N   UNL     1       8.670   1.845  25.436  0.00  0.00    -0.356 N 
ATOM     15  H   UNL     1       8.210   2.739  25.307  0.00  0.00    +0.142 HD
ATOM     16  H   UNL     1       7.993   1.190  25.832  0.00  0.00    +0.142 HD
ENDBRANCH   6  14
BRANCH   4  17
ATOM     17  N   UNL     1       9.625  -2.071  22.852  0.00  0.00    -0.340 N 
ATOM     18  H   UNL     1      10.278  -2.415  23.555  0.00  0.00    +0.146 HD
BRANCH  17  19
ATOM     19  C   UNL     1       8.349  -2.776  22.909  0.00  0.00    +0.137 C 
BRANCH  19  20
ATOM     20  C   UNL     1       8.183  -3.539  24.207  0.00  0.00    -0.030 A 
ATOM     21  C   UNL     1       9.275  -3.862  25.032  0.00  0.00    +0.008 A 
ATOM     22  C   UNL     1       9.090  -4.629  26.185  0.00  0.00    +0.038 A 
ATOM     23  C   UNL     1       7.819  -5.090  26.506  0.00  0.00    +0.123 A 
ATOM     24  F   UNL     1       7.643  -5.830  27.609  0.00  0.00    -0.205 F 
ATOM     25  C   UNL     1       6.730  -4.806  25.693  0.00  0.00    +0.038 A 
ATOM     26  C   UNL     1       6.912  -4.037  24.543  0.00  0.00    +0.008 A 
ENDBRANCH  19  20
ENDBRANCH  17  19
ENDBRANCH   4  17
TORSDOF 7
ENDMDL
MODEL 9
REMARK VINA RESULT:      -6.2      3.038      3.682
REMARK  Name = 
REMARK  8 active torsions:
REMARK  status: ('A' for Active; 'I' for Inactive)
REMARK    1  A    between atoms: C_1  and  C_2
REMARK    2  A    between atoms: C_2  and  O_3
REMARK    3  A    between atoms: O_3  and  C_4
REMARK    4  A    between atoms: N_6  and  C_7
REMARK    5  A    between atoms: C_8  and  N_9
REMARK    6  A    between atoms: C_11  and  N_12
REMARK    7  A    between atoms: N_12  and  C_13
REMARK    8  A    between atoms: C_13  and  C_14
REMARK                            x       y       z     vdW  Elec       q    Type
REMARK                         _______ _______ _______ _____ _____    ______ ____
ROOT
ATOM      1  C   UNL     1       5.715  -5.995  23.677  0.00  0.00    +0.057 A 
ATOM      2  C   UNL     1       5.994  -5.281  24.844  0.00  0.00    +0.027 A 
ATOM      3  C   UNL     1       6.967  -4.275  24.849  0.00  0.00    +0.025 A 
ATOM      4  C   UNL     1       7.667  -3.949  23.686  0.00  0.00    +0.029 A 
ATOM      5  C   UNL     1       7.267  -4.554  22.494  0.00  0.00    +0.047 A 
ATOM      6  C   UNL     1       6.345  -5.610  22.465  0.00  0.00    +0.048 A 
ENDROOT
BRANCH   1   8
ATOM      7  C   UNL     1       3.418  -6.901  23.808  0.00  0.00    +0.405 C 
ATOM      8  N   UNL     1       4.776  -7.046  23.781  0.00  0.00    -0.249 N 
ATOM      9  H   UNL     1       5.110  -7.997  23.806  0.00  0.00    +0.158 HD
ATOM     10  O   UNL     1       2.787  -5.900  23.492  0.00  0.00    -0.226 OA
BRANCH   7  11
ATOM     11  O   UNL     1       2.842  -8.016  24.330  0.00  0.00    -0.450 OA
BRANCH  11  13
ATOM     12  C   UNL     1       0.838  -9.178  24.981  0.00  0.00    +0.048 C 
ATOM     13  C   UNL     1       1.446  -7.830  24.621  0.00  0.00    +0.230 C 
ENDBRANCH  11  13
ENDBRANCH   7  11
ENDBRANCH   1   8
BRANCH   6  14
ATOM     14  N   UNL     1       5.916  -6.047  21.192  0.00  0.00    -0.356 N 
ATOM     15  H   UNL     1       6.283  -6.961  20.952  0.00  0.00    +0.142 HD
ATOM     16  H   UNL     1       4.896  -6.089  21.152  0.00  0.00    +0.142 HD
ENDBRANCH   6  14
BRANCH   4  17
ATOM     17  N   UNL     1       8.684  -2.987  23.622  0.00  0.00    -0.340 N 
ATOM     18  H   UNL     1       9.592  -3.412  23.807  0.00  0.00    +0.146 HD
BRANCH  17  19
ATOM     19  C   UNL     1       8.713  -2.151  22.427  0.00  0.00    +0.137 C 
BRANCH  19  20
ATOM     20  C   UNL     1       9.379  -0.816  22.687  0.00  0.00    -0.030 A 
ATOM     21  C   UNL     1       9.980  -0.505  23.920  0.00  0.00    +0.008 A 
ATOM     22  C   UNL     1      10.521   0.762  24.147  0.00  0.00    +0.038 A 
ATOM     23  C   UNL     1      10.446   1.728  23.150  0.00  0.00    +0.123 A 
ATOM     24  F   UNL     1      10.961   2.945  23.369  0.00  0.00    -0.205 F 
ATOM     25  C   UNL     1       9.834   1.454  21.934  0.00  0.00    +0.038 A 
ATOM     26  C   UNL     1       9.297   0.186  21.705  0.00  0.00    +0.008 A 
ENDBRANCH  19  20
ENDBRANCH  17  19
ENDBRANCH   4  17
TORSDOF 7
ENDMDL
