MODEL 1
REMARK VINA RESULT:      -5.3      0.000      0.000
REMARK  Name = 
REMARK  5 active torsions:
REMARK  status: ('A' for Active; 'I' for Inactive)
REMARK    1  A    between atoms: N_1  and  C_2
REMARK    2  A    between atoms: C_2  and  C_3
REMARK    3  A    between atoms: C_3  and  C_4
REMARK    4  A    between atoms: C_7  and  S_10
REMARK    5  A    between atoms: S_10  and  N_11
REMARK                            x       y       z     vdW  Elec       q    Type
REMARK                         _______ _______ _______ _____ _____    ______ ____
ROOT
ATOM      1  C   UNL     1       9.158  -1.468  22.251  0.00  0.00    -0.046 A 
ATOM      2  C   UNL     1      10.185  -1.792  23.151  0.00  0.00    +0.005 A 
ATOM      3  C   UNL     1       9.990  -2.777  24.119  0.00  0.00    +0.029 A 
ATOM      4  C   UNL     1       8.766  -3.447  24.179  0.00  0.00    +0.105 A 
ATOM      5  C   UNL     1       7.730  -3.125  23.299  0.00  0.00    +0.029 A 
ATOM      6  C   UNL     1       7.930  -2.139  22.335  0.00  0.00    +0.005 A 
ENDROOT
BRANCH   4   7
ATOM      7  S   UNL     1       8.511  -4.697  25.399  0.00  0.00    +0.056 S 
ATOM      8  O   UNL     1       7.295  -5.417  25.100  0.00  0.00    -0.153 OA
ATOM      9  O   UNL     1       8.789  -4.154  26.708  0.00  0.00    -0.153 OA
BRANCH   7  10
ATOM     10  N   UNL     1       9.771  -5.752  25.057  0.00  0.00    -0.204 NA
ATOM     11  H   UNL     1       9.932  -5.792  24.052  0.00  0.00    +0.144 HD
ATOM     12  H   UNL     1       9.596  -6.657  25.491  0.00  0.00    +0.144 HD
ENDBRANCH   7  10
ENDBRANCH   4   7
BRANCH   1  13
ATOM     13  C   UNL     1       9.356  -0.366  21.238  0.00  0.00    +0.050 C 
BRANCH  13  14
ATOM     14  C   UNL     1       8.899   0.983  21.801  0.00  0.00    +0.082 C 
BRANCH  14  15
ATOM     15  N   UNL     1       9.904   2.020  21.576  0.00  0.00    -0.330 NA
ATOM     16  H   UNL     1      10.581   2.013  22.337  0.00  0.00    +0.118 HD
ATOM     17  H   UNL     1      10.429   1.795  20.731  0.00  0.00    +0.118 HD
ENDBRANCH  14  15
ENDBRANCH  13  14
ENDBRANCH   1  13
TORSDOF 5
ENDMDL
MODEL 2
REMARK VINA RESULT:      -5.2      1.348      1.766
REMARK  Name = 
REMARK  5 active torsions:
REMARK  status: ('A' for Active; 'I' for Inactive)
REMARK    1  A    between atoms: N_1  and  C_2
REMARK    2  A    between atoms: C_2  and  C_3
REMARK    3  A    between atoms: C_3  and  C_4
REMARK    4  A    between atoms: C_7  and  S_10
REMARK    5  A    between atoms: S_10  and  N_11
REMARK                            x       y       z     vdW  Elec       q    Type
REMARK                         _______ _______ _______ _____ _____    ______ ____
ROOT
ATOM      1  C   UNL     1       9.709  -0.536  24.222  0.00  0.00    -0.046 A 
ATOM      2  C   UNL     1       8.976  -0.711  25.405  0.00  0.00    +0.005 A 
ATOM      3  C   UNL     1       8.631  -1.990  25.839  0.00  0.00    +0.029 A 
ATOM      4  C   UNL     1       9.029  -3.099  25.088  0.00  0.00    +0.105 A 
ATOM      5  C   UNL     1       9.746  -2.940  23.901  0.00  0.00    +0.029 A 
ATOM      6  C   UNL     1      10.088  -1.659  23.472  0.00  0.00    +0.005 A 
ENDROOT
BRANCH   4   7
ATOM      7  S   UNL     1       8.598  -4.723  25.631  0.00  0.00    +0.056 S 
ATOM      8  O   UNL     1       7.620  -5.286  24.728  0.00  0.00    -0.153 OA
ATOM      9  O   UNL     1       8.419  -4.720  27.063  0.00  0.00    -0.153 OA
BRANCH   7  10
ATOM     10  N   UNL     1      10.026  -5.556  25.343  0.00  0.00    -0.204 NA
ATOM     11  H   UNL     1      10.116  -5.767  24.350  0.00  0.00    +0.144 HD
ATOM     12  H   UNL     1      10.084  -6.372  25.952  0.00  0.00    +0.144 HD
ENDBRANCH   7  10
ENDBRANCH   4   7
BRANCH   1  13
ATOM     13  C   UNL     1      10.037   0.853  23.730  0.00  0.00    +0.050 C 
BRANCH  13  14
ATOM     14  C   UNL     1       9.940   0.931  22.202  0.00  0.00    +0.082 C 
BRANCH  14  15
ATOM     15  N   UNL     1      10.203   2.285  21.722  0.00  0.00    -0.330 NA
ATOM     16  H   UNL     1      11.146   2.336  21.338  0.00  0.00    +0.118 HD
ATOM     17  H   UNL     1       9.572   2.492  20.948  0.00  0.00    +0.118 HD
ENDBRANCH  14  15
ENDBRANCH  13  14
ENDBRANCH   1  13
TORSDOF 5
ENDMDL
MODEL 3
REMARK VINA RESULT:      -5.0      3.176      4.067
REMARK  Name = 
REMARK  5 active torsions:
REMARK  status: ('A' for Active; 'I' for Inactive)
REMARK    1  A    between atoms: N_1  and  C_2
REMARK    2  A    between atoms: C_2  and  C_3
REMARK    3  A    between atoms: C_3  and  C_4
REMARK    4  A    between atoms: C_7  and  S_10
REMARK    5  A    between atoms: S_10  and  N_11
REMARK                            x       y       z     vdW  Elec       q    Type
REMARK                         _______ _______ _______ _____ _____    ______ ____
ROOT
ATOM      1  C   UNL     1      10.543   2.107  23.300  0.00  0.00    -0.046 A 
ATOM      2  C   UNL     1      10.054   1.511  22.128  0.00  0.00    +0.005 A 
ATOM      3  C   UNL     1       9.624   0.185  22.137  0.00  0.00    +0.029 A 
ATOM      4  C   UNL     1       9.676  -0.545  23.327  0.00  0.00    +0.105 A 
ATOM      5  C   UNL     1      10.174   0.031  24.498  0.00  0.00    +0.029 A 
ATOM      6  C   UNL     1      10.603   1.357  24.483  0.00  0.00    +0.005 A 
ENDROOT
BRANCH   4   7
ATOM      7  S   UNL     1       9.131  -2.224  23.349  0.00  0.00    +0.056 S 
ATOM      8  O   UNL     1      10.204  -3.069  23.819  0.00  0.00    -0.153 OA
ATOM      9  O   UNL     1       8.396  -2.506  22.139  0.00  0.00    -0.153 OA
BRANCH   7  10
ATOM     10  N   UNL     1       7.996  -2.186  24.584  0.00  0.00    -0.204 NA
ATOM     11  H   UNL     1       8.225  -2.882  25.293  0.00  0.00    +0.144 HD
ATOM     12  H   UNL     1       7.057  -2.274  24.198  0.00  0.00    +0.144 HD
ENDBRANCH   7  10
ENDBRANCH   4   7
BRANCH   1  13
ATOM     13  C   UNL     1      11.055   3.527  23.274  0.00  0.00    +0.050 C 
BRANCH  13  14
ATOM     14  C   UNL     1       9.993   4.502  23.793  0.00  0.00    +0.082 C 
BRANCH  14  15
ATOM     15  N   UNL     1      10.151   5.826  23.196  0.00  0.00    -0.330 NA
ATOM     16  H   UNL     1      10.485   5.732  22.237  0.00  0.00    +0.118 HD
ATOM     17  H   UNL     1       9.237   6.274  23.133  0.00  0.00    +0.118 HD
ENDBRANCH  14  15
ENDBRANCH  13  14
ENDBRANCH   1  13
TORSDOF 5
ENDMDL
MODEL 4
REMARK VINA RESULT:      -4.8      2.048      2.539
REMARK  Name = 
REMARK  5 active torsions:
REMARK  status: ('A' for Active; 'I' for Inactive)
REMARK    1  A    between atoms: N_1  and  C_2
REMARK    2  A    between atoms: C_2  and  C_3
REMARK    3  A    between atoms: C_3  and  C_4
REMARK    4  A    between atoms: C_7  and  S_10
REMARK    5  A    between atoms: S_10  and  N_11
REMARK                            x       y       z     vdW  Elec       q    Type
REMARK                         _______ _______ _______ _____ _____    ______ ____
ROOT
ATOM      1  C   UNL     1       9.926   0.554  22.767  0.00  0.00    -0.046 A 
ATOM      2  C   UNL     1       9.814   0.340  24.150  0.00  0.00    +0.005 A 
ATOM      3  C   UNL     1       9.519  -0.930  24.645  0.00  0.00    +0.029 A 
ATOM      4  C   UNL     1       9.343  -1.990  23.753  0.00  0.00    +0.105 A 
ATOM      5  C   UNL     1       9.436  -1.788  22.374  0.00  0.00    +0.029 A 
ATOM      6  C   UNL     1       9.731  -0.518  21.885  0.00  0.00    +0.005 A 
ENDROOT
BRANCH   4   7
ATOM      7  S   UNL     1       8.971  -3.601  24.372  0.00  0.00    +0.056 S 
ATOM      8  O   UNL     1      10.200  -4.340  24.551  0.00  0.00    -0.153 OA
ATOM      9  O   UNL     1       7.839  -4.141  23.656  0.00  0.00    -0.153 OA
BRANCH   7  10
ATOM     10  N   UNL     1       8.417  -3.242  25.914  0.00  0.00    -0.204 NA
ATOM     11  H   UNL     1       9.158  -2.800  26.459  0.00  0.00    +0.144 HD
ATOM     12  H   UNL     1       8.018  -4.075  26.345  0.00  0.00    +0.144 HD
ENDBRANCH   7  10
ENDBRANCH   4   7
BRANCH   1  13
ATOM     13  C   UNL     1      10.195   1.941  22.233  0.00  0.00    +0.050 C 
BRANCH  13  14
ATOM     14  C   UNL     1      10.652   2.880  23.354  0.00  0.00    +0.082 C 
BRANCH  14  15
ATOM     15  N   UNL     1      10.045   4.202  23.217  0.00  0.00    -0.330 NA
ATOM     16  H   UNL     1      10.753   4.877  22.932  0.00  0.00    +0.118 HD
ATOM     17  H   UNL     1       9.359   4.177  22.463  0.00  0.00    +0.118 HD
ENDBRANCH  14  15
ENDBRANCH  13  14
ENDBRANCH   1  13
TORSDOF 5
ENDMDL
MODEL 5
REMARK VINA RESULT:      -4.8      3.777      5.809
REMARK  Name = 
REMARK  5 active torsions:
REMARK  status: ('A' for Active; 'I' for Inactive)
REMARK    1  A    between atoms: N_1  and  C_2
REMARK    2  A    between atoms: C_2  and  C_3
REMARK    3  A    between atoms: C_3  and  C_4
REMARK    4  A    between atoms: C_7  and  S_10
REMARK    5  A    between atoms: S_10  and  N_11
REMARK                            x       y       z     vdW  Elec       q    Type
REMARK                         _______ _______ _______ _____ _____    ______ ____
ROOT
ATOM      1  C   UNL     1       8.714  -2.616  23.811  0.00  0.00    -0.046 A 
ATOM      2  C   UNL     1       7.617  -1.759  23.635  0.00  0.00    +0.005 A 
ATOM      3  C   UNL     1       7.814  -0.392  23.440  0.00  0.00    +0.029 A 
ATOM      4  C   UNL     1       9.115   0.116  23.411  0.00  0.00    +0.105 A 
ATOM      5  C   UNL     1      10.215  -0.722  23.599  0.00  0.00    +0.029 A 
ATOM      6  C   UNL     1      10.013  -2.087  23.795  0.00  0.00    +0.005 A 
ENDROOT
BRANCH   4   7
ATOM      7  S   UNL     1       9.374   1.845  23.162  0.00  0.00    +0.056 S 
ATOM      8  O   UNL     1      10.595   2.246  23.821  0.00  0.00    -0.153 OA
ATOM      9  O   UNL     1       8.126   2.549  23.345  0.00  0.00    -0.153 OA
BRANCH   7  10
ATOM     10  N   UNL     1       9.698   1.895  21.516  0.00  0.00    -0.204 NA
ATOM     11  H   UNL     1      10.703   1.960  21.358  0.00  0.00    +0.144 HD
ATOM     12  H   UNL     1       9.155   2.636  21.075  0.00  0.00    +0.144 HD
ENDBRANCH   7  10
ENDBRANCH   4   7
BRANCH   1  13
ATOM     13  C   UNL     1       8.494  -4.086  24.073  0.00  0.00    +0.050 C 
BRANCH  13  14
ATOM     14  C   UNL     1       9.135  -4.508  25.400  0.00  0.00    +0.082 C 
BRANCH  14  15
ATOM     15  N   UNL     1      10.051  -5.631  25.213  0.00  0.00    -0.330 NA
ATOM     16  H   UNL     1      10.982  -5.281  24.992  0.00  0.00    +0.118 HD
ATOM     17  H   UNL     1      10.141  -6.136  26.094  0.00  0.00    +0.118 HD
ENDBRANCH  14  15
ENDBRANCH  13  14
ENDBRANCH   1  13
TORSDOF 5
ENDMDL
MODEL 6
REMARK VINA RESULT:      -4.8      1.717      2.124
REMARK  Name = 
REMARK  5 active torsions:
REMARK  status: ('A' for Active; 'I' for Inactive)
REMARK    1  A    between atoms: N_1  and  C_2
REMARK    2  A    between atoms: C_2  and  C_3
REMARK    3  A    between atoms: C_3  and  C_4
REMARK    4  A    between atoms: C_7  and  S_10
REMARK    5  A    between atoms: S_10  and  N_11
REMARK                            x       y       z     vdW  Elec       q    Type
REMARK                         _______ _______ _______ _____ _____    ______ ____
ROOT
ATOM      1  C   UNL     1       9.570  -0.253  24.116  0.00  0.00    -0.046 A 
ATOM      2  C   UNL     1      10.023  -1.342  23.356  0.00  0.00    +0.005 A 
ATOM      3  C   UNL     1       9.774  -2.648  23.777  0.00  0.00    +0.029 A 
ATOM      4  C   UNL     1       9.062  -2.863  24.959  0.00  0.00    +0.105 A 
ATOM      5  C   UNL     1       8.618  -1.789  25.733  0.00  0.00    +0.029 A 
ATOM      6  C   UNL     1       8.870  -0.486  25.308  0.00  0.00    +0.005 A 
ENDROOT
BRANCH   4   7
ATOM      7  S   UNL     1       8.740  -4.513  25.498  0.00  0.00    +0.056 S 
ATOM      8  O   UNL     1       8.717  -4.549  26.942  0.00  0.00    -0.153 OA
ATOM      9  O   UNL     1       9.524  -5.437  24.713  0.00  0.00    -0.153 OA
BRANCH   7  10
ATOM     10  N   UNL     1       7.149  -4.717  25.005  0.00  0.00    -0.204 NA
ATOM     11  H   UNL     1       6.974  -5.696  24.782  0.00  0.00    +0.144 HD
ATOM     12  H   UNL     1       6.932  -4.068  24.249  0.00  0.00    +0.144 HD
ENDBRANCH   7  10
ENDBRANCH   4   7
BRANCH   1  13
ATOM     13  C   UNL     1       9.886   1.159  23.683  0.00  0.00    +0.050 C 
BRANCH  13  14
ATOM     14  C   UNL     1      10.060   1.239  22.163  0.00  0.00    +0.082 C 
BRANCH  14  15
ATOM     15  N   UNL     1       9.186   2.256  21.582  0.00  0.00    -0.330 NA
ATOM     16  H   UNL     1       8.484   1.810  20.994  0.00  0.00    +0.118 HD
ATOM     17  H   UNL     1       8.673   2.721  22.331  0.00  0.00    +0.118 HD
ENDBRANCH  14  15
ENDBRANCH  13  14
ENDBRANCH   1  13
TORSDOF 5
ENDMDL
MODEL 7
REMARK VINA RESULT:      -4.7      5.198      6.402
REMARK  Name = 
REMARK  5 active torsions:
REMARK  status: ('A' for Active; 'I' for Inactive)
REMARK    1  A    between atoms: N_1  and  C_2
REMARK    2  A    between atoms: C_2  and  C_3
REMARK    3  A    between atoms: C_3  and  C_4
REMARK    4  A    between atoms: C_7  and  S_10
REMARK    5  A    between atoms: S_10  and  N_11
REMARK                            x       y       z     vdW  Elec       q    Type
REMARK                         _______ _______ _______ _____ _____    ______ ____
ROOT
ATOM      1  C   UNL     1      10.658   4.457  23.668  0.00  0.00    -0.046 A 
ATOM      2  C   UNL     1       9.322   4.740  23.988  0.00  0.00    +0.005 A 
ATOM      3  C   UNL     1       8.359   3.731  23.952  0.00  0.00    +0.029 A 
ATOM      4  C   UNL     1       8.739   2.433  23.603  0.00  0.00    +0.105 A 
ATOM      5  C   UNL     1      10.062   2.140  23.268  0.00  0.00    +0.029 A 
ATOM      6  C   UNL     1      11.020   3.151  23.305  0.00  0.00    +0.005 A 
ENDROOT
BRANCH   4   7
ATOM      7  S   UNL     1       7.527   1.150  23.557  0.00  0.00    +0.056 S 
ATOM      8  O   UNL     1       6.815   1.119  24.814  0.00  0.00    -0.153 OA
ATOM      9  O   UNL     1       8.102  -0.033  22.963  0.00  0.00    -0.153 OA
BRANCH   7  10
ATOM     10  N   UNL     1       6.446   1.758  22.427  0.00  0.00    -0.204 NA
ATOM     11  H   UNL     1       6.948   2.253  21.691  0.00  0.00    +0.144 HD
ATOM     12  H   UNL     1       5.729   2.314  22.893  0.00  0.00    +0.144 HD
ENDBRANCH   7  10
ENDBRANCH   4   7
BRANCH   1  13
ATOM     13  C   UNL     1      11.687   5.561  23.659  0.00  0.00    +0.050 C 
BRANCH  13  14
ATOM     14  C   UNL     1      12.738   5.322  22.570  0.00  0.00    +0.082 C 
BRANCH  14  15
ATOM     15  N   UNL     1      14.070   5.152  23.147  0.00  0.00    -0.330 NA
ATOM     16  H   UNL     1      14.772   5.206  22.410  0.00  0.00    +0.118 HD
ATOM     17  H   UNL     1      14.262   5.930  23.777  0.00  0.00    +0.118 HD
ENDBRANCH  14  15
ENDBRANCH  13  14
ENDBRANCH   1  13
TORSDOF 5
ENDMDL
MODEL 8
REMARK VINA RESULT:      -4.6      3.047      3.591
REMARK  Name = 
REMARK  5 active torsions:
REMARK  status: ('A' for Active; 'I' for Inactive)
REMARK    1  A    between atoms: N_1  and  C_2
REMARK    2  A    between atoms: C_2  and  C_3
REMARK    3  A    between atoms: C_3  and  C_4
REMARK    4  A    between atoms: C_7  and  S_10
REMARK    5  A    between atoms: S_10  and  N_11
REMARK                            x       y       z     vdW  Elec       q    Type
REMARK                         _______ _______ _______ _____ _____    ______ ____
ROOT
ATOM      1  C   UNL     1       7.979  -2.371  23.467  0.00  0.00    -0.046 A 
ATOM      2  C   UNL     1       8.263  -3.693  23.842  0.00  0.00    +0.005 A 
ATOM      3  C   UNL     1       7.297  -4.689  23.701  0.00  0.00    +0.029 A 
ATOM      4  C   UNL     1       6.045  -4.361  23.174  0.00  0.00    +0.105 A 
ATOM      5  C   UNL     1       5.744  -3.047  22.811  0.00  0.00    +0.029 A 
ATOM      6  C   UNL     1       6.713  -2.055  22.954  0.00  0.00    +0.005 A 
ENDROOT
BRANCH   4   7
ATOM      7  S   UNL     1       4.818  -5.616  22.989  0.00  0.00    +0.056 S 
ATOM      8  O   UNL     1       3.528  -4.997  22.782  0.00  0.00    -0.153 OA
ATOM      9  O   UNL     1       5.032  -6.647  23.976  0.00  0.00    -0.153 OA
BRANCH   7  10
ATOM     10  N   UNL     1       5.252  -6.287  21.514  0.00  0.00    -0.204 NA
ATOM     11  H   UNL     1       5.205  -7.304  21.563  0.00  0.00    +0.144 HD
ATOM     12  H   UNL     1       6.156  -5.922  21.217  0.00  0.00    +0.144 HD
ENDBRANCH   7  10
ENDBRANCH   4   7
BRANCH   1  13
ATOM     13  C   UNL     1       9.010  -1.287  23.669  0.00  0.00    +0.050 C 
BRANCH  13  14
ATOM     14  C   UNL     1      10.272  -1.571  22.849  0.00  0.00    +0.082 C 
BRANCH  14  15
ATOM     15  N   UNL     1      10.006  -1.475  21.416  0.00  0.00    -0.330 NA
ATOM     16  H   UNL     1       9.006  -1.569  21.246  0.00  0.00    +0.118 HD
ATOM     17  H   UNL     1      10.261  -0.542  21.092  0.00  0.00    +0.118 HD
ENDBRANCH  14  15
ENDBRANCH  13  14
ENDBRANCH   1  13
TORSDOF 5
ENDMDL
MODEL 9
REMARK VINA RESULT:      -4.6      4.550      5.709
REMARK  Name = 
REMARK  5 active torsions:
REMARK  status: ('A' for Active; 'I' for Inactive)
REMARK    1  A    between atoms: N_1  and  C_2
REMARK    2  A    between atoms: C_2  and  C_3
REMARK    3  A    between atoms: C_3  and  C_4
REMARK    4  A    between atoms: C_7  and  S_10
REMARK    5  A    between atoms: S_10  and  N_11
REMARK                            x       y       z     vdW  Elec       q    Type
REMARK                         _______ _______ _______ _____ _____    ______ ____
ROOT
ATOM      1  C   UNL     1      10.200   4.213  23.917  0.00  0.00    -0.046 A 
ATOM      2  C   UNL     1       9.001   3.990  24.611  0.00  0.00    +0.005 A 
ATOM      3  C   UNL     1       8.569   2.690  24.873  0.00  0.00    +0.029 A 
ATOM      4  C   UNL     1       9.346   1.610  24.445  0.00  0.00    +0.105 A 
ATOM      5  C   UNL     1      10.533   1.817  23.741  0.00  0.00    +0.029 A 
ATOM      6  C   UNL     1      10.960   3.118  23.481  0.00  0.00    +0.005 A 
ENDROOT
BRANCH   4   7
ATOM      7  S   UNL     1       8.808  -0.039  24.775  0.00  0.00    +0.056 S 
ATOM      8  O   UNL     1       9.749  -0.973  24.201  0.00  0.00    -0.153 OA
ATOM      9  O   UNL     1       7.385  -0.135  24.548  0.00  0.00    -0.153 OA
BRANCH   7  10
ATOM     10  N   UNL     1       9.020  -0.129  26.437  0.00  0.00    -0.204 NA
ATOM     11  H   UNL     1       9.948  -0.494  26.653  0.00  0.00    +0.144 HD
ATOM     12  H   UNL     1       8.254  -0.652  26.859  0.00  0.00    +0.144 HD
ENDBRANCH   7  10
ENDBRANCH   4   7
BRANCH   1  13
ATOM     13  C   UNL     1      10.638   5.621  23.591  0.00  0.00    +0.050 C 
BRANCH  13  14
ATOM     14  C   UNL     1      12.166   5.717  23.522  0.00  0.00    +0.082 C 
BRANCH  14  15
ATOM     15  N   UNL     1      12.706   6.416  24.686  0.00  0.00    -0.330 NA
ATOM     16  H   UNL     1      13.312   5.788  25.213  0.00  0.00    +0.118 HD
ATOM     17  H   UNL     1      13.301   7.181  24.368  0.00  0.00    +0.118 HD
ENDBRANCH  14  15
ENDBRANCH  13  14
ENDBRANCH   1  13
TORSDOF 5
ENDMDL
