MODEL 1
REMARK VINA RESULT:      -6.5      0.000      0.000
REMARK  Name = 
REMARK  15 active torsions:
REMARK  status: ('A' for Active; 'I' for Inactive)
REMARK    1  A    between atoms: C_2  and  C_3
REMARK    2  A    between atoms: C_2  and  C_7
REMARK    3  A    between atoms: C_2  and  C_12
REMARK    4  A    between atoms: C_3  and  C_4
REMARK    5  A    between atoms: C_4  and  C_5
REMARK    6  A    between atoms: C_4  and  C_6
REMARK    7  A    between atoms: C_7  and  C_8
REMARK    8  A    between atoms: N_10  and  O_11
REMARK    9  A    between atoms: N_14  and  C_15
REMARK   10  A    between atoms: C_15  and  C_17
REMARK   11  A    between atoms: C_15  and  C_26
REMARK   12  A    between atoms: C_17  and  C_18
REMARK   13  A    between atoms: C_21  and  O_22
REMARK   14  A    between atoms: O_22  and  C_23
REMARK   15  A    between atoms: N_28  and  C_29
REMARK                            x       y       z     vdW  Elec       q    Type
REMARK                         _______ _______ _______ _____ _____    ______ ____
ROOT
ATOM      1  C   UNL     1       8.649  -2.609  24.368  0.00  0.00    +0.217 C 
ATOM      2  N   UNL     1       7.388  -2.078  24.438  0.00  0.00    -0.303 N 
ATOM      3  H   UNL     1       6.565  -2.674  24.410  0.00  0.00    +0.149 HD
ATOM      4  O   UNL     1       9.657  -1.910  24.448  0.00  0.00    -0.275 OA
ENDROOT
BRANCH   1   5
ATOM      5  C   UNL     1       8.724  -4.121  24.181  0.00  0.00    +0.084 C 
BRANCH   5   6
ATOM      6  C   UNL     1       9.296  -4.744  25.467  0.00  0.00    +0.110 C 
BRANCH   6   7
ATOM      7  C   UNL     1       8.324  -4.736  26.621  0.00  0.00    +0.236 C 
ATOM      8  N   UNL     1       8.061  -5.985  27.128  0.00  0.00    -0.197 N 
ATOM      9  H   UNL     1       8.205  -6.838  26.591  0.00  0.00    +0.182 HD
ATOM     10  O   UNL     1       7.787  -3.726  27.069  0.00  0.00    -0.274 OA
BRANCH   8  11
ATOM     11  O   UNL     1       7.082  -6.043  28.145  0.00  0.00    -0.295 OA
ATOM     12  H   UNL     1       7.409  -6.779  28.707  0.00  0.00    +0.241 HD
ENDBRANCH   8  11
ENDBRANCH   6   7
ENDBRANCH   5   6
BRANCH   5  13
ATOM     13  C   UNL     1       7.376  -4.742  23.745  0.00  0.00    +0.016 C 
BRANCH  13  14
ATOM     14  C   UNL     1       7.141  -4.937  22.229  0.00  0.00    -0.016 C 
ATOM     15  C   UNL     1       6.093  -3.930  21.743  0.00  0.00    +0.007 C 
ATOM     16  C   UNL     1       6.674  -6.345  21.861  0.00  0.00    +0.007 C 
ENDBRANCH  13  14
ENDBRANCH   5  13
ENDBRANCH   1   5
BRANCH   2  17
ATOM     17  C   UNL     1       7.145  -0.669  24.761  0.00  0.00    +0.163 C 
BRANCH  17  18
ATOM     18  C   UNL     1       5.847  -0.578  25.598  0.00  0.00    +0.233 C 
ATOM     19  N   UNL     1       5.751  -1.479  26.639  0.00  0.00    -0.317 N 
ATOM     20  H   UNL     1       6.493  -2.148  26.798  0.00  0.00    +0.148 HD
ATOM     21  C   UNL     1       4.666  -1.449  27.590  0.00  0.00    +0.128 C 
ATOM     22  O   UNL     1       4.953   0.220  25.317  0.00  0.00    -0.274 OA
ENDBRANCH  17  18
BRANCH  17  23
ATOM     23  C   UNL     1       7.121   0.257  23.529  0.00  0.00    +0.067 C 
BRANCH  23  24
ATOM     24  C   UNL     1       8.289   1.208  23.419  0.00  0.00    -0.045 A 
ATOM     25  C   UNL     1       9.146   1.145  22.314  0.00  0.00    +0.007 A 
ATOM     26  C   UNL     1      10.240   2.007  22.210  0.00  0.00    +0.046 A 
ATOM     27  C   UNL     1      10.491   2.941  23.215  0.00  0.00    +0.120 A 
ATOM     28  C   UNL     1       9.621   3.030  24.302  0.00  0.00    +0.046 A 
ATOM     29  C   UNL     1       8.533   2.163  24.411  0.00  0.00    +0.007 A 
BRANCH  27  30
ATOM     30  O   UNL     1      11.518   3.844  23.204  0.00  0.00    -0.495 OA
ATOM     31  C   UNL     1      11.164   5.166  23.596  0.00  0.00    +0.277 C 
ENDBRANCH  27  30
ENDBRANCH  23  24
ENDBRANCH  17  23
ENDBRANCH   2  17
TORSDOF 11
ENDMDL
MODEL 2
REMARK VINA RESULT:      -6.4      1.894      4.255
REMARK  Name = 
REMARK  15 active torsions:
REMARK  status: ('A' for Active; 'I' for Inactive)
REMARK    1  A    between atoms: C_2  and  C_3
REMARK    2  A    between atoms: C_2  and  C_7
REMARK    3  A    between atoms: C_2  and  C_12
REMARK    4  A    between atoms: C_3  and  C_4
REMARK    5  A    between atoms: C_4  and  C_5
REMARK    6  A    between atoms: C_4  and  C_6
REMARK    7  A    between atoms: C_7  and  C_8
REMARK    8  A    between atoms: N_10  and  O_11
REMARK    9  A    between atoms: N_14  and  C_15
REMARK   10  A    between atoms: C_15  and  C_17
REMARK   11  A    between atoms: C_15  and  C_26
REMARK   12  A    between atoms: C_17  and  C_18
REMARK   13  A    between atoms: C_21  and  O_22
REMARK   14  A    between atoms: O_22  and  C_23
REMARK   15  A    between atoms: N_28  and  C_29
REMARK                            x       y       z     vdW  Elec       q    Type
REMARK                         _______ _______ _______ _____ _____    ______ ____
ROOT
ATOM      1  C   UNL     1       6.145  -2.133  24.344  0.00  0.00    +0.217 C 
ATOM      2  N   UNL     1       7.474  -2.015  24.036  0.00  0.00    -0.303 N 
ATOM      3  H   UNL     1       8.139  -1.641  24.708  0.00  0.00    +0.149 HD
ATOM      4  O   UNL     1       5.335  -2.627  23.564  0.00  0.00    -0.275 OA
ENDROOT
BRANCH   1   5
ATOM      5  C   UNL     1       5.732  -1.611  25.717  0.00  0.00    +0.084 C 
BRANCH   5   6
ATOM      6  C   UNL     1       6.717  -2.157  26.765  0.00  0.00    +0.110 C 
BRANCH   6   7
ATOM      7  C   UNL     1       6.697  -3.661  26.881  0.00  0.00    +0.236 C 
ATOM      8  N   UNL     1       7.938  -4.239  26.777  0.00  0.00    -0.197 N 
ATOM      9  H   UNL     1       8.723  -3.775  26.326  0.00  0.00    +0.182 HD
ATOM     10  O   UNL     1       5.678  -4.332  27.031  0.00  0.00    -0.274 OA
BRANCH   8  11
ATOM     11  O   UNL     1       7.963  -5.651  26.780  0.00  0.00    -0.295 OA
ATOM     12  H   UNL     1       7.019  -5.876  26.933  0.00  0.00    +0.241 HD
ENDBRANCH   8  11
ENDBRANCH   6   7
ENDBRANCH   5   6
BRANCH   5  13
ATOM     13  C   UNL     1       5.585  -0.071  25.757  0.00  0.00    +0.016 C 
BRANCH  13  14
ATOM     14  C   UNL     1       6.788   0.771  25.272  0.00  0.00    -0.016 C 
ATOM     15  C   UNL     1       7.189   1.765  26.368  0.00  0.00    +0.007 C 
ATOM     16  C   UNL     1       6.510   1.547  23.985  0.00  0.00    +0.007 C 
ENDBRANCH  13  14
ENDBRANCH   5  13
ENDBRANCH   1   5
BRANCH   2  17
ATOM     17  C   UNL     1       8.055  -2.600  22.823  0.00  0.00    +0.163 C 
BRANCH  17  18
ATOM     18  C   UNL     1       7.936  -4.139  22.920  0.00  0.00    +0.233 C 
ATOM     19  N   UNL     1       7.101  -4.728  21.992  0.00  0.00    -0.317 N 
ATOM     20  H   UNL     1       6.605  -4.152  21.323  0.00  0.00    +0.148 HD
ATOM     21  C   UNL     1       6.972  -6.160  21.864  0.00  0.00    +0.128 C 
ATOM     22  O   UNL     1       8.519  -4.778  23.797  0.00  0.00    -0.274 OA
ENDBRANCH  17  18
BRANCH  17  23
ATOM     23  C   UNL     1       9.496  -2.135  22.537  0.00  0.00    +0.067 C 
BRANCH  23  24
ATOM     24  C   UNL     1       9.755  -0.668  22.779  0.00  0.00    -0.045 A 
ATOM     25  C   UNL     1      10.181  -0.225  24.037  0.00  0.00    +0.007 A 
ATOM     26  C   UNL     1      10.407   1.132  24.277  0.00  0.00    +0.046 A 
ATOM     27  C   UNL     1      10.205   2.064  23.260  0.00  0.00    +0.120 A 
ATOM     28  C   UNL     1       9.814   1.626  21.995  0.00  0.00    +0.046 A 
ATOM     29  C   UNL     1       9.579   0.270  21.756  0.00  0.00    +0.007 A 
BRANCH  27  30
ATOM     30  O   UNL     1      10.416   3.410  23.380  0.00  0.00    -0.495 OA
ATOM     31  C   UNL     1       9.386   4.124  24.056  0.00  0.00    +0.277 C 
ENDBRANCH  27  30
ENDBRANCH  23  24
ENDBRANCH  17  23
ENDBRANCH   2  17
TORSDOF 11
ENDMDL
MODEL 3
REMARK VINA RESULT:      -6.3      4.021      6.341
REMARK  Name = 
REMARK  15 active torsions:
REMARK  status: ('A' for Active; 'I' for Inactive)
REMARK    1  A    between atoms: C_2  and  C_3
REMARK    2  A    between atoms: C_2  and  C_7
REMARK    3  A    between atoms: C_2  and  C_12
REMARK    4  A    between atoms: C_3  and  C_4
REMARK    5  A    between atoms: C_4  and  C_5
REMARK    6  A    between atoms: C_4  and  C_6
REMARK    7  A    between atoms: C_7  and  C_8
REMARK    8  A    between atoms: N_10  and  O_11
REMARK    9  A    between atoms: N_14  and  C_15
REMARK   10  A    between atoms: C_15  and  C_17
REMARK   11  A    between atoms: C_15  and  C_26
REMARK   12  A    between atoms: C_17  and  C_18
REMARK   13  A    between atoms: C_21  and  O_22
REMARK   14  A    between atoms: O_22  and  C_23
REMARK   15  A    between atoms: N_28  and  C_29
REMARK                            x       y       z     vdW  Elec       q    Type
REMARK                         _______ _______ _______ _____ _____    ______ ____
ROOT
ATOM      1  C   UNL     1       4.416  -6.391  24.696  0.00  0.00    +0.217 C 
ATOM      2  N   UNL     1       5.048  -5.618  25.634  0.00  0.00    -0.303 N 
ATOM      3  H   UNL     1       5.165  -4.617  25.499  0.00  0.00    +0.149 HD
ATOM      4  O   UNL     1       4.223  -7.592  24.862  0.00  0.00    -0.275 OA
ENDROOT
BRANCH   1   5
ATOM      5  C   UNL     1       3.970  -5.666  23.430  0.00  0.00    +0.084 C 
BRANCH   5   6
ATOM      6  C   UNL     1       2.458  -5.398  23.527  0.00  0.00    +0.110 C 
BRANCH   6   7
ATOM      7  C   UNL     1       1.628  -6.321  22.669  0.00  0.00    +0.236 C 
ATOM      8  N   UNL     1       2.197  -7.556  22.478  0.00  0.00    -0.197 N 
ATOM      9  H   UNL     1       3.195  -7.724  22.586  0.00  0.00    +0.182 HD
ATOM     10  O   UNL     1       0.554  -6.013  22.157  0.00  0.00    -0.274 OA
BRANCH   8  11
ATOM     11  O   UNL     1       1.508  -8.422  21.601  0.00  0.00    -0.295 OA
ATOM     12  H   UNL     1       1.992  -8.292  20.756  0.00  0.00    +0.241 HD
ENDBRANCH   8  11
ENDBRANCH   6   7
ENDBRANCH   5   6
BRANCH   5  13
ATOM     13  C   UNL     1       4.801  -4.394  23.139  0.00  0.00    +0.016 C 
BRANCH  13  14
ATOM     14  C   UNL     1       6.247  -4.591  22.629  0.00  0.00    -0.016 C 
ATOM     15  C   UNL     1       6.773  -3.266  22.066  0.00  0.00    +0.007 C 
ATOM     16  C   UNL     1       6.373  -5.666  21.549  0.00  0.00    +0.007 C 
ENDBRANCH  13  14
ENDBRANCH   5  13
ENDBRANCH   1   5
BRANCH   2  17
ATOM     17  C   UNL     1       5.405  -6.129  26.962  0.00  0.00    +0.163 C 
BRANCH  17  18
ATOM     18  C   UNL     1       4.164  -6.010  27.879  0.00  0.00    +0.233 C 
ATOM     19  N   UNL     1       3.490  -7.190  28.118  0.00  0.00    -0.317 N 
ATOM     20  H   UNL     1       3.808  -8.049  27.688  0.00  0.00    +0.148 HD
ATOM     21  C   UNL     1       2.388  -7.277  29.046  0.00  0.00    +0.128 C 
ATOM     22  O   UNL     1       3.793  -4.923  28.323  0.00  0.00    -0.274 OA
ENDBRANCH  17  18
BRANCH  17  23
ATOM     23  C   UNL     1       6.655  -5.463  27.569  0.00  0.00    +0.067 C 
BRANCH  23  24
ATOM     24  C   UNL     1       7.537  -4.738  26.581  0.00  0.00    -0.045 A 
ATOM     25  C   UNL     1       8.466  -5.448  25.811  0.00  0.00    +0.007 A 
ATOM     26  C   UNL     1       9.299  -4.785  24.907  0.00  0.00    +0.046 A 
ATOM     27  C   UNL     1       9.215  -3.401  24.766  0.00  0.00    +0.120 A 
ATOM     28  C   UNL     1       8.269  -2.692  25.506  0.00  0.00    +0.046 A 
ATOM     29  C   UNL     1       7.442  -3.352  26.416  0.00  0.00    +0.007 A 
BRANCH  27  30
ATOM     30  O   UNL     1       9.966  -2.656  23.899  0.00  0.00    -0.495 OA
ATOM     31  C   UNL     1       9.850  -1.246  24.058  0.00  0.00    +0.277 C 
ENDBRANCH  27  30
ENDBRANCH  23  24
ENDBRANCH  17  23
ENDBRANCH   2  17
TORSDOF 11
ENDMDL
MODEL 4
REMARK VINA RESULT:      -6.2      3.877      7.000
REMARK  Name = 
REMARK  15 active torsions:
REMARK  status: ('A' for Active; 'I' for Inactive)
REMARK    1  A    between atoms: C_2  and  C_3
REMARK    2  A    between atoms: C_2  and  C_7
REMARK    3  A    between atoms: C_2  and  C_12
REMARK    4  A    between atoms: C_3  and  C_4
REMARK    5  A    between atoms: C_4  and  C_5
REMARK    6  A    between atoms: C_4  and  C_6
REMARK    7  A    between atoms: C_7  and  C_8
REMARK    8  A    between atoms: N_10  and  O_11
REMARK    9  A    between atoms: N_14  and  C_15
REMARK   10  A    between atoms: C_15  and  C_17
REMARK   11  A    between atoms: C_15  and  C_26
REMARK   12  A    between atoms: C_17  and  C_18
REMARK   13  A    between atoms: C_21  and  O_22
REMARK   14  A    between atoms: O_22  and  C_23
REMARK   15  A    between atoms: N_28  and  C_29
REMARK                            x       y       z     vdW  Elec       q    Type
REMARK                         _______ _______ _______ _____ _____    ______ ____
ROOT
ATOM      1  C   UNL     1       7.264   3.228  25.240  0.00  0.00    +0.217 C 
ATOM      2  N   UNL     1       8.008   3.449  24.111  0.00  0.00    -0.303 N 
ATOM      3  H   UNL     1       7.694   3.120  23.201  0.00  0.00    +0.149 HD
ATOM      4  O   UNL     1       7.602   3.659  26.339  0.00  0.00    -0.275 OA
ENDROOT
BRANCH   1   5
ATOM      5  C   UNL     1       5.990   2.411  25.047  0.00  0.00    +0.084 C 
BRANCH   5   6
ATOM      6  C   UNL     1       5.700   2.305  23.539  0.00  0.00    +0.110 C 
BRANCH   6   7
ATOM      7  C   UNL     1       4.442   3.023  23.119  0.00  0.00    +0.236 C 
ATOM      8  N   UNL     1       4.636   3.925  22.101  0.00  0.00    -0.197 N 
ATOM      9  H   UNL     1       5.545   4.330  21.893  0.00  0.00    +0.182 HD
ATOM     10  O   UNL     1       3.341   2.853  23.636  0.00  0.00    -0.274 OA
BRANCH   8  11
ATOM     11  O   UNL     1       3.509   4.695  21.738  0.00  0.00    -0.295 OA
ATOM     12  H   UNL     1       3.622   4.784  20.767  0.00  0.00    +0.241 HD
ENDBRANCH   8  11
ENDBRANCH   6   7
ENDBRANCH   5   6
BRANCH   5  13
ATOM     13  C   UNL     1       6.041   1.038  25.760  0.00  0.00    +0.016 C 
BRANCH  13  14
ATOM     14  C   UNL     1       7.200   0.086  25.387  0.00  0.00    -0.016 C 
ATOM     15  C   UNL     1       6.654  -1.082  24.558  0.00  0.00    +0.007 C 
ATOM     16  C   UNL     1       7.939  -0.479  26.600  0.00  0.00    +0.007 C 
ENDBRANCH  13  14
ENDBRANCH   5  13
ENDBRANCH   1   5
BRANCH   2  17
ATOM     17  C   UNL     1       9.176   4.336  24.100  0.00  0.00    +0.163 C 
BRANCH  17  18
ATOM     18  C   UNL     1       8.793   5.634  23.350  0.00  0.00    +0.233 C 
ATOM     19  N   UNL     1       7.779   5.505  22.423  0.00  0.00    -0.317 N 
ATOM     20  H   UNL     1       7.355   4.601  22.262  0.00  0.00    +0.148 HD
ATOM     21  C   UNL     1       7.219   6.639  21.727  0.00  0.00    +0.128 C 
ATOM     22  O   UNL     1       9.390   6.693  23.549  0.00  0.00    -0.274 OA
ENDBRANCH  17  18
BRANCH  17  23
ATOM     23  C   UNL     1      10.450   3.680  23.534  0.00  0.00    +0.067 C 
BRANCH  23  24
ATOM     24  C   UNL     1      10.346   2.195  23.278  0.00  0.00    -0.045 A 
ATOM     25  C   UNL     1       9.891   1.724  22.041  0.00  0.00    +0.007 A 
ATOM     26  C   UNL     1       9.774   0.353  21.799  0.00  0.00    +0.046 A 
ATOM     27  C   UNL     1      10.108  -0.563  22.796  0.00  0.00    +0.120 A 
ATOM     28  C   UNL     1      10.593  -0.100  24.019  0.00  0.00    +0.046 A 
ATOM     29  C   UNL     1      10.702   1.270  24.265  0.00  0.00    +0.007 A 
BRANCH  27  30
ATOM     30  O   UNL     1      10.051  -1.922  22.660  0.00  0.00    -0.495 OA
ATOM     31  C   UNL     1       9.877  -2.644  23.874  0.00  0.00    +0.277 C 
ENDBRANCH  27  30
ENDBRANCH  23  24
ENDBRANCH  17  23
ENDBRANCH   2  17
TORSDOF 11
ENDMDL
MODEL 5
REMARK VINA RESULT:      -6.1      2.213      3.981
REMARK  Name = 
REMARK  15 active torsions:
REMARK  status: ('A' for Active; 'I' for Inactive)
REMARK    1  A    between atoms: C_2  and  C_3
REMARK    2  A    between atoms: C_2  and  C_7
REMARK    3  A    between atoms: C_2  and  C_12
REMARK    4  A    between atoms: C_3  and  C_4
REMARK    5  A    between atoms: C_4  and  C_5
REMARK    6  A    between atoms: C_4  and  C_6
REMARK    7  A    between atoms: C_7  and  C_8
REMARK    8  A    between atoms: N_10  and  O_11
REMARK    9  A    between atoms: N_14  and  C_15
REMARK   10  A    between atoms: C_15  and  C_17
REMARK   11  A    between atoms: C_15  and  C_26
REMARK   12  A    between atoms: C_17  and  C_18
REMARK   13  A    between atoms: C_21  and  O_22
REMARK   14  A    between atoms: O_22  and  C_23
REMARK   15  A    between atoms: N_28  and  C_29
REMARK                            x       y       z     vdW  Elec       q    Type
REMARK                         _______ _______ _______ _____ _____    ______ ____
ROOT
ATOM      1  C   UNL     1       6.193  -2.689  24.840  0.00  0.00    +0.217 C 
ATOM      2  N   UNL     1       7.342  -2.654  24.095  0.00  0.00    -0.303 N 
ATOM      3  H   UNL     1       8.228  -2.973  24.480  0.00  0.00    +0.149 HD
ATOM      4  O   UNL     1       5.105  -2.353  24.377  0.00  0.00    -0.275 OA
ENDROOT
BRANCH   1   5
ATOM      5  C   UNL     1       6.348  -3.169  26.280  0.00  0.00    +0.084 C 
BRANCH   5   6
ATOM      6  C   UNL     1       7.848  -3.251  26.609  0.00  0.00    +0.110 C 
BRANCH   6   7
ATOM      7  C   UNL     1       8.390  -4.659  26.599  0.00  0.00    +0.236 C 
ATOM      8  N   UNL     1       9.429  -4.842  25.719  0.00  0.00    -0.197 N 
ATOM      9  H   UNL     1       9.588  -4.231  24.922  0.00  0.00    +0.182 HD
ATOM     10  O   UNL     1       7.947  -5.577  27.283  0.00  0.00    -0.274 OA
BRANCH   8  11
ATOM     11  O   UNL     1       9.907  -6.166  25.598  0.00  0.00    -0.295 OA
ATOM     12  H   UNL     1      10.445  -6.269  26.413  0.00  0.00    +0.241 HD
ENDBRANCH   8  11
ENDBRANCH   6   7
ENDBRANCH   5   6
BRANCH   5  13
ATOM     13  C   UNL     1       5.543  -2.317  27.289  0.00  0.00    +0.016 C 
BRANCH  13  14
ATOM     14  C   UNL     1       4.395  -3.015  28.054  0.00  0.00    -0.016 C 
ATOM     15  C   UNL     1       4.885  -4.365  28.588  0.00  0.00    +0.007 C 
ATOM     16  C   UNL     1       3.148  -3.249  27.201  0.00  0.00    +0.007 C 
ENDBRANCH  13  14
ENDBRANCH   5  13
ENDBRANCH   1   5
BRANCH   2  17
ATOM     17  C   UNL     1       7.340  -2.359  22.659  0.00  0.00    +0.163 C 
BRANCH  17  18
ATOM     18  C   UNL     1       6.640  -3.527  21.924  0.00  0.00    +0.233 C 
ATOM     19  N   UNL     1       7.273  -4.749  22.019  0.00  0.00    -0.317 N 
ATOM     20  H   UNL     1       8.143  -4.829  22.529  0.00  0.00    +0.148 HD
ATOM     21  C   UNL     1       6.693  -5.964  21.497  0.00  0.00    +0.128 C 
ATOM     22  O   UNL     1       5.613  -3.353  21.268  0.00  0.00    -0.274 OA
ENDBRANCH  17  18
BRANCH  17  23
ATOM     23  C   UNL     1       8.737  -2.050  22.085  0.00  0.00    +0.067 C 
BRANCH  23  24
ATOM     24  C   UNL     1       9.297  -0.699  22.457  0.00  0.00    -0.045 A 
ATOM     25  C   UNL     1       9.071   0.409  21.631  0.00  0.00    +0.007 A 
ATOM     26  C   UNL     1       9.599   1.661  21.956  0.00  0.00    +0.046 A 
ATOM     27  C   UNL     1      10.364   1.817  23.110  0.00  0.00    +0.120 A 
ATOM     28  C   UNL     1      10.565   0.725  23.954  0.00  0.00    +0.046 A 
ATOM     29  C   UNL     1      10.045  -0.529  23.626  0.00  0.00    +0.007 A 
BRANCH  27  30
ATOM     30  O   UNL     1      10.910   2.998  23.532  0.00  0.00    -0.495 OA
ATOM     31  C   UNL     1       9.981   4.062  23.713  0.00  0.00    +0.277 C 
ENDBRANCH  27  30
ENDBRANCH  23  24
ENDBRANCH  17  23
ENDBRANCH   2  17
TORSDOF 11
ENDMDL
MODEL 6
REMARK VINA RESULT:      -6.1      2.336      2.913
REMARK  Name = 
REMARK  15 active torsions:
REMARK  status: ('A' for Active; 'I' for Inactive)
REMARK    1  A    between atoms: C_2  and  C_3
REMARK    2  A    between atoms: C_2  and  C_7
REMARK    3  A    between atoms: C_2  and  C_12
REMARK    4  A    between atoms: C_3  and  C_4
REMARK    5  A    between atoms: C_4  and  C_5
REMARK    6  A    between atoms: C_4  and  C_6
REMARK    7  A    between atoms: C_7  and  C_8
REMARK    8  A    between atoms: N_10  and  O_11
REMARK    9  A    between atoms: N_14  and  C_15
REMARK   10  A    between atoms: C_15  and  C_17
REMARK   11  A    between atoms: C_15  and  C_26
REMARK   12  A    between atoms: C_17  and  C_18
REMARK   13  A    between atoms: C_21  and  O_22
REMARK   14  A    between atoms: O_22  and  C_23
REMARK   15  A    between atoms: N_28  and  C_29
REMARK                            x       y       z     vdW  Elec       q    Type
REMARK                         _______ _______ _______ _____ _____    ______ ____
ROOT
ATOM      1  C   UNL     1       8.648  -3.644  23.943  0.00  0.00    +0.217 C 
ATOM      2  N   UNL     1       8.639  -2.424  23.320  0.00  0.00    -0.303 N 
ATOM      3  H   UNL     1       7.777  -2.023  22.961  0.00  0.00    +0.149 HD
ATOM      4  O   UNL     1       9.671  -4.123  24.426  0.00  0.00    -0.275 OA
ENDROOT
BRANCH   1   5
ATOM      5  C   UNL     1       7.308  -4.371  23.998  0.00  0.00    +0.084 C 
BRANCH   5   6
ATOM      6  C   UNL     1       6.663  -4.106  25.370  0.00  0.00    +0.110 C 
BRANCH   6   7
ATOM      7  C   UNL     1       6.605  -5.328  26.253  0.00  0.00    +0.236 C 
ATOM      8  N   UNL     1       7.391  -5.235  27.375  0.00  0.00    -0.197 N 
ATOM      9  H   UNL     1       8.183  -4.599  27.440  0.00  0.00    +0.182 HD
ATOM     10  O   UNL     1       5.945  -6.334  26.002  0.00  0.00    -0.274 OA
BRANCH   8  11
ATOM     11  O   UNL     1       7.449  -6.392  28.183  0.00  0.00    -0.295 OA
ATOM     12  H   UNL     1       7.332  -7.112  27.526  0.00  0.00    +0.241 HD
ENDBRANCH   8  11
ENDBRANCH   6   7
ENDBRANCH   5   6
BRANCH   5  13
ATOM     13  C   UNL     1       6.383  -4.022  22.808  0.00  0.00    +0.016 C 
BRANCH  13  14
ATOM     14  C   UNL     1       5.788  -5.198  22.000  0.00  0.00    -0.016 C 
ATOM     15  C   UNL     1       4.546  -5.734  22.720  0.00  0.00    +0.007 C 
ATOM     16  C   UNL     1       6.769  -6.352  21.791  0.00  0.00    +0.007 C 
ENDBRANCH  13  14
ENDBRANCH   5  13
ENDBRANCH   1   5
BRANCH   2  17
ATOM     17  C   UNL     1       9.807  -1.537  23.313  0.00  0.00    +0.163 C 
BRANCH  17  18
ATOM     18  C   UNL     1       9.870  -0.805  24.674  0.00  0.00    +0.233 C 
ATOM     19  N   UNL     1       8.861  -1.118  25.562  0.00  0.00    -0.317 N 
ATOM     20  H   UNL     1       8.138  -1.773  25.293  0.00  0.00    +0.148 HD
ATOM     21  C   UNL     1       8.839  -0.620  26.916  0.00  0.00    +0.128 C 
ATOM     22  O   UNL     1      10.743   0.028  24.919  0.00  0.00    -0.274 OA
ENDBRANCH  17  18
BRANCH  17  23
ATOM     23  C   UNL     1       9.842  -0.565  22.117  0.00  0.00    +0.067 C 
BRANCH  23  24
ATOM     24  C   UNL     1       8.938   0.637  22.242  0.00  0.00    -0.045 A 
ATOM     25  C   UNL     1       7.554   0.468  22.372  0.00  0.00    +0.007 A 
ATOM     26  C   UNL     1       6.706   1.573  22.471  0.00  0.00    +0.046 A 
ATOM     27  C   UNL     1       7.234   2.864  22.436  0.00  0.00    +0.120 A 
ATOM     28  C   UNL     1       8.615   3.038  22.340  0.00  0.00    +0.046 A 
ATOM     29  C   UNL     1       9.462   1.934  22.232  0.00  0.00    +0.007 A 
BRANCH  27  30
ATOM     30  O   UNL     1       6.500   4.012  22.545  0.00  0.00    -0.495 OA
ATOM     31  C   UNL     1       7.176   5.201  22.151  0.00  0.00    +0.277 C 
ENDBRANCH  27  30
ENDBRANCH  23  24
ENDBRANCH  17  23
ENDBRANCH   2  17
TORSDOF 11
ENDMDL
MODEL 7
REMARK VINA RESULT:      -6.0      2.632      7.105
REMARK  Name = 
REMARK  15 active torsions:
REMARK  status: ('A' for Active; 'I' for Inactive)
REMARK    1  A    between atoms: C_2  and  C_3
REMARK    2  A    between atoms: C_2  and  C_7
REMARK    3  A    between atoms: C_2  and  C_12
REMARK    4  A    between atoms: C_3  and  C_4
REMARK    5  A    between atoms: C_4  and  C_5
REMARK    6  A    between atoms: C_4  and  C_6
REMARK    7  A    between atoms: C_7  and  C_8
REMARK    8  A    between atoms: N_10  and  O_11
REMARK    9  A    between atoms: N_14  and  C_15
REMARK   10  A    between atoms: C_15  and  C_17
REMARK   11  A    between atoms: C_15  and  C_26
REMARK   12  A    between atoms: C_17  and  C_18
REMARK   13  A    between atoms: C_21  and  O_22
REMARK   14  A    between atoms: O_22  and  C_23
REMARK   15  A    between atoms: N_28  and  C_29
REMARK                            x       y       z     vdW  Elec       q    Type
REMARK                         _______ _______ _______ _____ _____    ______ ____
ROOT
ATOM      1  C   UNL     1       8.315   1.600  24.229  0.00  0.00    +0.217 C 
ATOM      2  N   UNL     1       8.670   1.003  25.409  0.00  0.00    -0.303 N 
ATOM      3  H   UNL     1       9.567   1.195  25.847  0.00  0.00    +0.149 HD
ATOM      4  O   UNL     1       7.217   1.418  23.709  0.00  0.00    -0.275 OA
ENDROOT
BRANCH   1   5
ATOM      5  C   UNL     1       9.370   2.505  23.598  0.00  0.00    +0.084 C 
BRANCH   5   6
ATOM      6  C   UNL     1       9.832   1.869  22.276  0.00  0.00    +0.110 C 
BRANCH   6   7
ATOM      7  C   UNL     1      10.157   0.401  22.396  0.00  0.00    +0.236 C 
ATOM      8  N   UNL     1       9.686  -0.355  21.351  0.00  0.00    -0.197 N 
ATOM      9  H   UNL     1       8.917  -0.052  20.757  0.00  0.00    +0.182 HD
ATOM     10  O   UNL     1      10.763  -0.100  23.340  0.00  0.00    -0.274 OA
BRANCH   8  11
ATOM     11  O   UNL     1       9.877  -1.750  21.465  0.00  0.00    -0.295 OA
ATOM     12  H   UNL     1       9.483  -1.944  22.343  0.00  0.00    +0.241 HD
ENDBRANCH   8  11
ENDBRANCH   6   7
ENDBRANCH   5   6
BRANCH   5  13
ATOM     13  C   UNL     1       8.893   3.968  23.443  0.00  0.00    +0.016 C 
BRANCH  13  14
ATOM     14  C   UNL     1       9.791   5.076  24.038  0.00  0.00    -0.016 C 
ATOM     15  C   UNL     1       9.226   6.449  23.659  0.00  0.00    +0.007 C 
ATOM     16  C   UNL     1      11.245   5.000  23.571  0.00  0.00    +0.007 C 
ENDBRANCH  13  14
ENDBRANCH   5  13
ENDBRANCH   1   5
BRANCH   2  17
ATOM     17  C   UNL     1       7.721   0.225  26.213  0.00  0.00    +0.163 C 
BRANCH  17  18
ATOM     18  C   UNL     1       7.178   1.136  27.340  0.00  0.00    +0.233 C 
ATOM     19  N   UNL     1       7.719   0.915  28.590  0.00  0.00    -0.317 N 
ATOM     20  H   UNL     1       8.407   0.185  28.721  0.00  0.00    +0.148 HD
ATOM     21  C   UNL     1       7.414   1.755  29.724  0.00  0.00    +0.128 C 
ATOM     22  O   UNL     1       6.294   1.967  27.129  0.00  0.00    -0.274 OA
ENDBRANCH  17  18
BRANCH  17  23
ATOM     23  C   UNL     1       8.298  -1.099  26.749  0.00  0.00    +0.067 C 
BRANCH  23  24
ATOM     24  C   UNL     1       8.159  -2.281  25.819  0.00  0.00    -0.045 A 
ATOM     25  C   UNL     1       8.675  -3.530  26.186  0.00  0.00    +0.007 A 
ATOM     26  C   UNL     1       8.567  -4.626  25.326  0.00  0.00    +0.046 A 
ATOM     27  C   UNL     1       7.945  -4.483  24.087  0.00  0.00    +0.120 A 
ATOM     28  C   UNL     1       7.401  -3.249  23.730  0.00  0.00    +0.046 A 
ATOM     29  C   UNL     1       7.515  -2.151  24.585  0.00  0.00    +0.007 A 
BRANCH  27  30
ATOM     30  O   UNL     1       7.768  -5.491  23.180  0.00  0.00    -0.495 OA
ATOM     31  C   UNL     1       7.154  -5.101  21.956  0.00  0.00    +0.277 C 
ENDBRANCH  27  30
ENDBRANCH  23  24
ENDBRANCH  17  23
ENDBRANCH   2  17
TORSDOF 11
ENDMDL
MODEL 8
REMARK VINA RESULT:      -6.0      2.430      6.572
REMARK  Name = 
REMARK  15 active torsions:
REMARK  status: ('A' for Active; 'I' for Inactive)
REMARK    1  A    between atoms: C_2  and  C_3
REMARK    2  A    between atoms: C_2  and  C_7
REMARK    3  A    between atoms: C_2  and  C_12
REMARK    4  A    between atoms: C_3  and  C_4
REMARK    5  A    between atoms: C_4  and  C_5
REMARK    6  A    between atoms: C_4  and  C_6
REMARK    7  A    between atoms: C_7  and  C_8
REMARK    8  A    between atoms: N_10  and  O_11
REMARK    9  A    between atoms: N_14  and  C_15
REMARK   10  A    between atoms: C_15  and  C_17
REMARK   11  A    between atoms: C_15  and  C_26
REMARK   12  A    between atoms: C_17  and  C_18
REMARK   13  A    between atoms: C_21  and  O_22
REMARK   14  A    between atoms: O_22  and  C_23
REMARK   15  A    between atoms: N_28  and  C_29
REMARK                            x       y       z     vdW  Elec       q    Type
REMARK                         _______ _______ _______ _____ _____    ______ ____
ROOT
ATOM      1  C   UNL     1       7.640  -1.375  23.160  0.00  0.00    +0.217 C 
ATOM      2  N   UNL     1       7.549  -0.937  24.455  0.00  0.00    -0.303 N 
ATOM      3  H   UNL     1       8.268  -1.163  25.138  0.00  0.00    +0.149 HD
ATOM      4  O   UNL     1       6.808  -1.073  22.309  0.00  0.00    -0.275 OA
ENDROOT
BRANCH   1   5
ATOM      5  C   UNL     1       8.840  -2.262  22.842  0.00  0.00    +0.084 C 
BRANCH   5   6
ATOM      6  C   UNL     1       9.839  -1.449  22.000  0.00  0.00    +0.110 C 
BRANCH   6   7
ATOM      7  C   UNL     1       9.859   0.019  22.344  0.00  0.00    +0.236 C 
ATOM      8  N   UNL     1       9.364   0.825  21.348  0.00  0.00    -0.197 N 
ATOM      9  H   UNL     1       9.323   0.532  20.374  0.00  0.00    +0.182 HD
ATOM     10  O   UNL     1      10.293   0.479  23.397  0.00  0.00    -0.274 OA
BRANCH   8  11
ATOM     11  O   UNL     1       9.452   2.215  21.580  0.00  0.00    -0.295 OA
ATOM     12  H   UNL     1      10.267   2.458  21.088  0.00  0.00    +0.241 HD
ENDBRANCH   8  11
ENDBRANCH   6   7
ENDBRANCH   5   6
BRANCH   5  13
ATOM     13  C   UNL     1       9.472  -2.896  24.103  0.00  0.00    +0.016 C 
BRANCH  13  14
ATOM     14  C   UNL     1       8.771  -4.136  24.704  0.00  0.00    -0.016 C 
ATOM     15  C   UNL     1       9.802  -4.996  25.443  0.00  0.00    +0.007 C 
ATOM     16  C   UNL     1       8.066  -5.003  23.662  0.00  0.00    +0.007 C 
ENDBRANCH  13  14
ENDBRANCH   5  13
ENDBRANCH   1   5
BRANCH   2  17
ATOM     17  C   UNL     1       6.542   0.038  24.886  0.00  0.00    +0.163 C 
BRANCH  17  18
ATOM     18  C   UNL     1       7.276   1.284  25.437  0.00  0.00    +0.233 C 
ATOM     19  N   UNL     1       7.928   2.051  24.494  0.00  0.00    -0.317 N 
ATOM     20  H   UNL     1       7.918   1.772  23.521  0.00  0.00    +0.148 HD
ATOM     21  C   UNL     1       8.557   3.309  24.819  0.00  0.00    +0.128 C 
ATOM     22  O   UNL     1       7.302   1.537  26.642  0.00  0.00    -0.274 OA
ENDBRANCH  17  18
BRANCH  17  23
ATOM     23  C   UNL     1       5.512  -0.530  25.882  0.00  0.00    +0.067 C 
BRANCH  23  24
ATOM     24  C   UNL     1       5.471  -2.037  25.971  0.00  0.00    -0.045 A 
ATOM     25  C   UNL     1       6.122  -2.699  27.019  0.00  0.00    +0.007 A 
ATOM     26  C   UNL     1       6.106  -4.093  27.102  0.00  0.00    +0.046 A 
ATOM     27  C   UNL     1       5.440  -4.842  26.133  0.00  0.00    +0.120 A 
ATOM     28  C   UNL     1       4.762  -4.187  25.105  0.00  0.00    +0.046 A 
ATOM     29  C   UNL     1       4.785  -2.794  25.016  0.00  0.00    +0.007 A 
BRANCH  27  30
ATOM     30  O   UNL     1       5.345  -6.206  26.129  0.00  0.00    -0.495 OA
ATOM     31  C   UNL     1       4.511  -6.750  25.111  0.00  0.00    +0.277 C 
ENDBRANCH  27  30
ENDBRANCH  23  24
ENDBRANCH  17  23
ENDBRANCH   2  17
TORSDOF 11
ENDMDL
MODEL 9
REMARK VINA RESULT:      -5.8      2.667      3.683
REMARK  Name = 
REMARK  15 active torsions:
REMARK  status: ('A' for Active; 'I' for Inactive)
REMARK    1  A    between atoms: C_2  and  C_3
REMARK    2  A    between atoms: C_2  and  C_7
REMARK    3  A    between atoms: C_2  and  C_12
REMARK    4  A    between atoms: C_3  and  C_4
REMARK    5  A    between atoms: C_4  and  C_5
REMARK    6  A    between atoms: C_4  and  C_6
REMARK    7  A    between atoms: C_7  and  C_8
REMARK    8  A    between atoms: N_10  and  O_11
REMARK    9  A    between atoms: N_14  and  C_15
REMARK   10  A    between atoms: C_15  and  C_17
REMARK   11  A    between atoms: C_15  and  C_26
REMARK   12  A    between atoms: C_17  and  C_18
REMARK   13  A    between atoms: C_21  and  O_22
REMARK   14  A    between atoms: O_22  and  C_23
REMARK   15  A    between atoms: N_28  and  C_29
REMARK                            x       y       z     vdW  Elec       q    Type
REMARK                         _______ _______ _______ _____ _____    ______ ____
ROOT
ATOM      1  C   UNL     1       7.556  -1.197  23.731  0.00  0.00    +0.217 C 
ATOM      2  N   UNL     1       6.600  -0.283  23.377  0.00  0.00    -0.303 N 
ATOM      3  H   UNL     1       5.683  -0.580  23.052  0.00  0.00    +0.149 HD
ATOM      4  O   UNL     1       8.652  -0.859  24.171  0.00  0.00    -0.275 OA
ENDROOT
BRANCH   1   5
ATOM      5  C   UNL     1       7.176  -2.663  23.544  0.00  0.00    +0.084 C 
BRANCH   5   6
ATOM      6  C   UNL     1       6.410  -2.804  22.217  0.00  0.00    +0.110 C 
BRANCH   6   7
ATOM      7  C   UNL     1       5.606  -4.077  22.120  0.00  0.00    +0.236 C 
ATOM      8  N   UNL     1       6.198  -5.045  21.347  0.00  0.00    -0.197 N 
ATOM      9  H   UNL     1       6.898  -4.831  20.640  0.00  0.00    +0.182 HD
ATOM     10  O   UNL     1       4.512  -4.248  22.652  0.00  0.00    -0.274 OA
BRANCH   8  11
ATOM     11  O   UNL     1       5.440  -6.219  21.143  0.00  0.00    -0.295 OA
ATOM     12  H   UNL     1       5.953  -6.889  21.645  0.00  0.00    +0.241 HD
ENDBRANCH   8  11
ENDBRANCH   6   7
ENDBRANCH   5   6
BRANCH   5  13
ATOM     13  C   UNL     1       8.388  -3.619  23.657  0.00  0.00    +0.016 C 
BRANCH  13  14
ATOM     14  C   UNL     1       8.242  -4.845  24.588  0.00  0.00    -0.016 C 
ATOM     15  C   UNL     1       7.072  -4.618  25.551  0.00  0.00    +0.007 C 
ATOM     16  C   UNL     1       9.499  -5.141  25.407  0.00  0.00    +0.007 C 
ENDBRANCH  13  14
ENDBRANCH   5  13
ENDBRANCH   1   5
BRANCH   2  17
ATOM     17  C   UNL     1       6.752   1.153  23.633  0.00  0.00    +0.163 C 
BRANCH  17  18
ATOM     18  C   UNL     1       5.364   1.732  23.997  0.00  0.00    +0.233 C 
ATOM     19  N   UNL     1       4.870   2.676  23.120  0.00  0.00    -0.317 N 
ATOM     20  H   UNL     1       5.418   2.956  22.318  0.00  0.00    +0.148 HD
ATOM     21  C   UNL     1       3.540   3.225  23.244  0.00  0.00    +0.128 C 
ATOM     22  O   UNL     1       4.772   1.393  25.022  0.00  0.00    -0.274 OA
ENDBRANCH  17  18
BRANCH  17  23
ATOM     23  C   UNL     1       7.431   1.922  22.483  0.00  0.00    +0.067 C 
BRANCH  23  24
ATOM     24  C   UNL     1       8.549   2.846  22.903  0.00  0.00    -0.045 A 
ATOM     25  C   UNL     1       8.264   4.151  23.322  0.00  0.00    +0.007 A 
ATOM     26  C   UNL     1       9.291   5.021  23.696  0.00  0.00    +0.046 A 
ATOM     27  C   UNL     1      10.618   4.594  23.651  0.00  0.00    +0.120 A 
ATOM     28  C   UNL     1      10.905   3.285  23.267  0.00  0.00    +0.046 A 
ATOM     29  C   UNL     1       9.880   2.418  22.884  0.00  0.00    +0.007 A 
BRANCH  27  30
ATOM     30  O   UNL     1      11.695   5.354  24.014  0.00  0.00    -0.495 OA
ATOM     31  C   UNL     1      12.871   5.141  23.240  0.00  0.00    +0.277 C 
ENDBRANCH  27  30
ENDBRANCH  23  24
ENDBRANCH  17  23
ENDBRANCH   2  17
TORSDOF 11
ENDMDL
