MODEL 1
REMARK VINA RESULT:      -6.1      0.000      0.000
REMARK  Name = 
REMARK  5 active torsions:
REMARK  status: ('A' for Active; 'I' for Inactive)
REMARK    1  A    between atoms: O5*_1  and  C5*_2
REMARK    2  A    between atoms: C5*_2  and  C4*_3
REMARK    3  A    between atoms: C1*_6  and  N_14
REMARK    4  A    between atoms: C2*_8  and  O2*_10
REMARK    5  A    between atoms: C3*_11  and  O3*_13
REMARK                            x       y       z     vdW  Elec       q    Type
REMARK                         _______ _______ _______ _____ _____    ______ ____
ROOT
ATOM      1  C4* UNL     1       6.895  -4.234  26.066  0.00  0.00    +0.177 C 
ATOM      2  C3* UNL     1       8.293  -4.647  26.519  0.00  0.00    +0.178 C 
ATOM      3  C2* UNL     1       9.219  -4.147  25.415  0.00  0.00    +0.195 C 
ATOM      4  C1* UNL     1       8.273  -3.499  24.386  0.00  0.00    +0.255 C 
ATOM      5  O4* UNL     1       7.064  -3.189  25.088  0.00  0.00    -0.346 OA
ENDROOT
BRANCH   4   6
ATOM      6  N   UNL     1       8.839  -2.314  23.733  0.00  0.00    -0.269 N 
ATOM      7  C   UNL     1       8.362  -2.005  22.463  0.00  0.00    +0.332 A 
ATOM      8  O   UNL     1       7.543  -2.698  21.862  0.00  0.00    -0.246 OA
ATOM      9  N   UNL     1       8.869  -0.869  21.887  0.00  0.00    -0.273 N 
ATOM     10  H   UNL     1       8.527  -0.628  20.970  0.00  0.00    +0.174 HD
ATOM     11  C   UNL     1       9.767  -0.003  22.457  0.00  0.00    +0.289 A 
ATOM     12  O   UNL     1      10.139   1.017  21.890  0.00  0.00    -0.265 OA
ATOM     13  C   UNL     1      10.238  -0.396  23.798  0.00  0.00    +0.204 A 
ATOM     14  F   UNL     1      11.131   0.407  24.405  0.00  0.00    -0.198 F 
ATOM     15  C   UNL     1       9.767  -1.506  24.369  0.00  0.00    +0.137 A 
ENDBRANCH   4   6
BRANCH   2  16
ATOM     16  O3* UNL     1       8.369  -6.066  26.684  0.00  0.00    -0.386 OA
ATOM     17  H3* UNL     1       8.052  -6.439  25.831  0.00  0.00    +0.210 HD
ENDBRANCH   2  16
BRANCH   3  18
ATOM     18  O2* UNL     1       9.994  -5.232  24.885  0.00  0.00    -0.385 OA
ATOM     19  H2* UNL     1       9.609  -6.057  25.261  0.00  0.00    +0.210 HD
ENDBRANCH   3  18
BRANCH   1  20
ATOM     20  C5* UNL     1       6.002  -3.760  27.212  0.00  0.00    +0.190 C 
BRANCH  20  21
ATOM     21  O5* UNL     1       6.157  -4.594  28.361  0.00  0.00    -0.392 OA
ATOM     22  H5* UNL     1       6.791  -4.145  28.947  0.00  0.00    +0.210 HD
ENDBRANCH  20  21
ENDBRANCH   1  20
TORSDOF 5
ENDMDL
MODEL 2
REMARK VINA RESULT:      -6.1      2.533      5.732
REMARK  Name = 
REMARK  5 active torsions:
REMARK  status: ('A' for Active; 'I' for Inactive)
REMARK    1  A    between atoms: O5*_1  and  C5*_2
REMARK    2  A    between atoms: C5*_2  and  C4*_3
REMARK    3  A    between atoms: C1*_6  and  N_14
REMARK    4  A    between atoms: C2*_8  and  O2*_10
REMARK    5  A    between atoms: C3*_11  and  O3*_13
REMARK                            x       y       z     vdW  Elec       q    Type
REMARK                         _______ _______ _______ _____ _____    ______ ____
ROOT
ATOM      1  C4* UNL     1      10.169  -0.891  23.488  0.00  0.00    +0.177 C 
ATOM      2  C3* UNL     1       8.832  -0.849  22.755  0.00  0.00    +0.178 C 
ATOM      3  C2* UNL     1       8.164  -2.178  23.095  0.00  0.00    +0.195 C 
ATOM      4  C1* UNL     1       9.188  -2.903  23.987  0.00  0.00    +0.255 C 
ATOM      5  O4* UNL     1      10.051  -1.891  24.519  0.00  0.00    -0.346 OA
ENDROOT
BRANCH   4   6
ATOM      6  N   UNL     1       8.576  -3.707  25.051  0.00  0.00    -0.269 N 
ATOM      7  C   UNL     1       9.243  -4.868  25.428  0.00  0.00    +0.332 A 
ATOM      8  O   UNL     1      10.273  -5.263  24.884  0.00  0.00    -0.246 OA
ATOM      9  N   UNL     1       8.680  -5.581  26.454  0.00  0.00    -0.273 N 
ATOM     10  H   UNL     1       9.156  -6.422  26.744  0.00  0.00    +0.174 HD
ATOM     11  C   UNL     1       7.552  -5.240  27.155  0.00  0.00    +0.289 A 
ATOM     12  O   UNL     1       7.137  -5.913  28.091  0.00  0.00    -0.265 OA
ATOM     13  C   UNL     1       6.890  -4.005  26.696  0.00  0.00    +0.204 A 
ATOM     14  F   UNL     1       5.770  -3.623  27.337  0.00  0.00    -0.198 F 
ATOM     15  C   UNL     1       7.415  -3.305  25.690  0.00  0.00    +0.137 A 
ENDBRANCH   4   6
BRANCH   2  16
ATOM     16  O3* UNL     1       9.035  -0.693  21.348  0.00  0.00    -0.386 OA
ATOM     17  H3* UNL     1       8.197  -0.997  20.934  0.00  0.00    +0.210 HD
ENDBRANCH   2  16
BRANCH   3  18
ATOM     18  O2* UNL     1       7.834  -2.891  21.895  0.00  0.00    -0.385 OA
ATOM     19  H2* UNL     1       8.455  -2.569  21.202  0.00  0.00    +0.210 HD
ENDBRANCH   3  18
BRANCH   1  20
ATOM     20  C5* UNL     1      10.575   0.455  24.088  0.00  0.00    +0.190 C 
BRANCH  20  21
ATOM     21  O5* UNL     1      10.403   0.458  25.505  0.00  0.00    -0.392 OA
ATOM     22  H5* UNL     1       9.504   0.791  25.675  0.00  0.00    +0.210 HD
ENDBRANCH  20  21
ENDBRANCH   1  20
TORSDOF 5
ENDMDL
MODEL 3
REMARK VINA RESULT:      -5.9      2.493      6.076
REMARK  Name = 
REMARK  5 active torsions:
REMARK  status: ('A' for Active; 'I' for Inactive)
REMARK    1  A    between atoms: O5*_1  and  C5*_2
REMARK    2  A    between atoms: C5*_2  and  C4*_3
REMARK    3  A    between atoms: C1*_6  and  N_14
REMARK    4  A    between atoms: C2*_8  and  O2*_10
REMARK    5  A    between atoms: C3*_11  and  O3*_13
REMARK                            x       y       z     vdW  Elec       q    Type
REMARK                         _______ _______ _______ _____ _____    ______ ____
ROOT
ATOM      1  C4* UNL     1       9.850   2.111  23.783  0.00  0.00    +0.177 C 
ATOM      2  C3* UNL     1       9.256   1.676  22.446  0.00  0.00    +0.178 C 
ATOM      3  C2* UNL     1       9.219   0.152  22.520  0.00  0.00    +0.195 C 
ATOM      4  C1* UNL     1       9.823  -0.179  23.897  0.00  0.00    +0.255 C 
ATOM      5  O4* UNL     1       9.692   1.004  24.692  0.00  0.00    -0.346 OA
ENDROOT
BRANCH   4   6
ATOM      6  N   UNL     1       9.203  -1.339  24.547  0.00  0.00    -0.269 N 
ATOM      7  C   UNL     1       9.662  -2.596  24.166  0.00  0.00    +0.332 A 
ATOM      8  O   UNL     1      10.509  -2.769  23.292  0.00  0.00    -0.246 OA
ATOM      9  N   UNL     1       9.103  -3.665  24.817  0.00  0.00    -0.273 N 
ATOM     10  H   UNL     1       9.431  -4.583  24.557  0.00  0.00    +0.174 HD
ATOM     11  C   UNL     1       8.169  -3.606  25.819  0.00  0.00    +0.289 A 
ATOM     12  O   UNL     1       7.751  -4.612  26.381  0.00  0.00    -0.265 OA
ATOM     13  C   UNL     1       7.720  -2.245  26.166  0.00  0.00    +0.204 A 
ATOM     14  F   UNL     1       6.794  -2.122  27.135  0.00  0.00    -0.198 F 
ATOM     15  C   UNL     1       8.242  -1.193  25.534  0.00  0.00    +0.137 A 
ENDBRANCH   4   6
BRANCH   2  16
ATOM     16  O3* UNL     1      10.064   2.142  21.362  0.00  0.00    -0.386 OA
ATOM     17  H3* UNL     1       9.657   1.753  20.556  0.00  0.00    +0.210 HD
ENDBRANCH   2  16
BRANCH   3  18
ATOM     18  O2* UNL     1       9.940  -0.418  21.419  0.00  0.00    -0.385 OA
ATOM     19  H2* UNL     1       9.527  -0.059  20.601  0.00  0.00    +0.210 HD
ENDBRANCH   3  18
BRANCH   1  20
ATOM     20  C5* UNL     1       9.202   3.373  24.352  0.00  0.00    +0.190 C 
BRANCH  20  21
ATOM     21  O5* UNL     1       9.093   4.388  23.353  0.00  0.00    -0.392 OA
ATOM     22  H5* UNL     1       9.293   3.962  22.501  0.00  0.00    +0.210 HD
ENDBRANCH  20  21
ENDBRANCH   1  20
TORSDOF 5
ENDMDL
MODEL 4
REMARK VINA RESULT:      -5.9      2.561      3.363
REMARK  Name = 
REMARK  5 active torsions:
REMARK  status: ('A' for Active; 'I' for Inactive)
REMARK    1  A    between atoms: O5*_1  and  C5*_2
REMARK    2  A    between atoms: C5*_2  and  C4*_3
REMARK    3  A    between atoms: C1*_6  and  N_14
REMARK    4  A    between atoms: C2*_8  and  O2*_10
REMARK    5  A    between atoms: C3*_11  and  O3*_13
REMARK                            x       y       z     vdW  Elec       q    Type
REMARK                         _______ _______ _______ _____ _____    ______ ____
ROOT
ATOM      1  C4* UNL     1       5.339  -6.467  25.148  0.00  0.00    +0.177 C 
ATOM      2  C3* UNL     1       5.568  -5.973  26.573  0.00  0.00    +0.178 C 
ATOM      3  C2* UNL     1       6.861  -5.166  26.498  0.00  0.00    +0.195 C 
ATOM      4  C1* UNL     1       7.296  -5.278  25.024  0.00  0.00    +0.255 C 
ATOM      5  O4* UNL     1       6.122  -5.624  24.280  0.00  0.00    -0.346 OA
ENDROOT
BRANCH   4   6
ATOM      6  N   UNL     1       7.928  -4.060  24.504  0.00  0.00    -0.269 N 
ATOM      7  C   UNL     1       9.315  -3.989  24.577  0.00  0.00    +0.332 A 
ATOM      8  O   UNL     1      10.010  -4.862  25.093  0.00  0.00    -0.246 OA
ATOM      9  N   UNL     1       9.890  -2.863  24.045  0.00  0.00    -0.273 N 
ATOM     10  H   UNL     1      10.896  -2.800  24.084  0.00  0.00    +0.174 HD
ATOM     11  C   UNL     1       9.231  -1.832  23.426  0.00  0.00    +0.289 A 
ATOM     12  O   UNL     1       9.826  -0.879  22.937  0.00  0.00    -0.265 OA
ATOM     13  C   UNL     1       7.764  -1.969  23.393  0.00  0.00    +0.204 A 
ATOM     14  F   UNL     1       7.060  -0.981  22.809  0.00  0.00    -0.198 F 
ATOM     15  C   UNL     1       7.185  -3.049  23.918  0.00  0.00    +0.137 A 
ENDBRANCH   4   6
BRANCH   2  16
ATOM     16  O3* UNL     1       5.675  -7.077  27.476  0.00  0.00    -0.386 OA
ATOM     17  H3* UNL     1       5.990  -6.686  28.321  0.00  0.00    +0.210 HD
ENDBRANCH   2  16
BRANCH   3  18
ATOM     18  O2* UNL     1       7.825  -5.682  27.426  0.00  0.00    -0.385 OA
ATOM     19  H2* UNL     1       8.366  -6.338  26.928  0.00  0.00    +0.210 HD
ENDBRANCH   3  18
BRANCH   1  20
ATOM     20  C5* UNL     1       3.868  -6.451  24.730  0.00  0.00    +0.190 C 
BRANCH  20  21
ATOM     21  O5* UNL     1       3.521  -7.648  24.033  0.00  0.00    -0.392 OA
ATOM     22  H5* UNL     1       3.335  -7.390  23.113  0.00  0.00    +0.210 HD
ENDBRANCH  20  21
ENDBRANCH   1  20
TORSDOF 5
ENDMDL
MODEL 5
REMARK VINA RESULT:      -5.9      3.209      6.173
REMARK  Name = 
REMARK  5 active torsions:
REMARK  status: ('A' for Active; 'I' for Inactive)
REMARK    1  A    between atoms: O5*_1  and  C5*_2
REMARK    2  A    between atoms: C5*_2  and  C4*_3
REMARK    3  A    between atoms: C1*_6  and  N_14
REMARK    4  A    between atoms: C2*_8  and  O2*_10
REMARK    5  A    between atoms: C3*_11  and  O3*_13
REMARK                            x       y       z     vdW  Elec       q    Type
REMARK                         _______ _______ _______ _____ _____    ______ ____
ROOT
ATOM      1  C4* UNL     1       8.076   1.575  22.801  0.00  0.00    +0.177 C 
ATOM      2  C3* UNL     1       8.852   1.164  21.553  0.00  0.00    +0.178 C 
ATOM      3  C2* UNL     1       9.091  -0.333  21.725  0.00  0.00    +0.195 C 
ATOM      4  C1* UNL     1       8.450  -0.670  23.084  0.00  0.00    +0.255 C 
ATOM      5  O4* UNL     1       7.507   0.373  23.357  0.00  0.00    -0.346 OA
ENDROOT
BRANCH   4   6
ATOM      6  N   UNL     1       7.820  -1.994  23.125  0.00  0.00    -0.269 N 
ATOM      7  C   UNL     1       8.626  -3.066  23.494  0.00  0.00    +0.332 A 
ATOM      8  O   UNL     1       9.827  -2.956  23.733  0.00  0.00    -0.246 OA
ATOM      9  N   UNL     1       8.009  -4.287  23.570  0.00  0.00    -0.273 N 
ATOM     10  H   UNL     1       8.579  -5.073  23.844  0.00  0.00    +0.174 HD
ATOM     11  C   UNL     1       6.679  -4.538  23.350  0.00  0.00    +0.289 A 
ATOM     12  O   UNL     1       6.196  -5.656  23.481  0.00  0.00    -0.265 OA
ATOM     13  C   UNL     1       5.886  -3.360  22.953  0.00  0.00    +0.204 A 
ATOM     14  F   UNL     1       4.574  -3.545  22.711  0.00  0.00    -0.198 F 
ATOM     15  C   UNL     1       6.471  -2.166  22.859  0.00  0.00    +0.137 A 
ENDBRANCH   4   6
BRANCH   2  16
ATOM     16  O3* UNL     1      10.077   1.897  21.459  0.00  0.00    -0.386 OA
ATOM     17  H3* UNL     1      10.460   1.642  20.590  0.00  0.00    +0.210 HD
ENDBRANCH   2  16
BRANCH   3  18
ATOM     18  O2* UNL     1      10.494  -0.625  21.659  0.00  0.00    -0.385 OA
ATOM     19  H2* UNL     1      10.569  -1.598  21.530  0.00  0.00    +0.210 HD
ENDBRANCH   3  18
BRANCH   1  20
ATOM     20  C5* UNL     1       6.985   2.609  22.524  0.00  0.00    +0.190 C 
BRANCH  20  21
ATOM     21  O5* UNL     1       7.527   3.769  21.891  0.00  0.00    -0.392 OA
ATOM     22  H5* UNL     1       6.786   4.216  21.448  0.00  0.00    +0.210 HD
ENDBRANCH  20  21
ENDBRANCH   1  20
TORSDOF 5
ENDMDL
MODEL 6
REMARK VINA RESULT:      -5.9      3.311      5.715
REMARK  Name = 
REMARK  5 active torsions:
REMARK  status: ('A' for Active; 'I' for Inactive)
REMARK    1  A    between atoms: O5*_1  and  C5*_2
REMARK    2  A    between atoms: C5*_2  and  C4*_3
REMARK    3  A    between atoms: C1*_6  and  N_14
REMARK    4  A    between atoms: C2*_8  and  O2*_10
REMARK    5  A    between atoms: C3*_11  and  O3*_13
REMARK                            x       y       z     vdW  Elec       q    Type
REMARK                         _______ _______ _______ _____ _____    ______ ____
ROOT
ATOM      1  C4* UNL     1       9.145   0.483  23.164  0.00  0.00    +0.177 C 
ATOM      2  C3* UNL     1       9.965  -0.348  24.147  0.00  0.00    +0.178 C 
ATOM      3  C2* UNL     1       9.014  -1.451  24.605  0.00  0.00    +0.195 C 
ATOM      4  C1* UNL     1       7.698  -1.154  23.863  0.00  0.00    +0.255 C 
ATOM      5  O4* UNL     1       8.043  -0.342  22.735  0.00  0.00    -0.346 OA
ENDROOT
BRANCH   4   6
ATOM      6  N   UNL     1       6.967  -2.360  23.458  0.00  0.00    -0.269 N 
ATOM      7  C   UNL     1       5.645  -2.467  23.879  0.00  0.00    +0.332 A 
ATOM      8  O   UNL     1       5.096  -1.637  24.600  0.00  0.00    -0.246 OA
ATOM      9  N   UNL     1       4.965  -3.579  23.453  0.00  0.00    -0.273 N 
ATOM     10  H   UNL     1       4.003  -3.668  23.743  0.00  0.00    +0.174 HD
ATOM     11  C   UNL     1       5.454  -4.564  22.633  0.00  0.00    +0.289 A 
ATOM     12  O   UNL     1       4.764  -5.506  22.263  0.00  0.00    -0.265 OA
ATOM     13  C   UNL     1       6.863  -4.392  22.234  0.00  0.00    +0.204 A 
ATOM     14  F   UNL     1       7.404  -5.333  21.439  0.00  0.00    -0.198 F 
ATOM     15  C   UNL     1       7.546  -3.324  22.650  0.00  0.00    +0.137 A 
ENDBRANCH   4   6
BRANCH   2  16
ATOM     16  O3* UNL     1      10.414   0.462  25.237  0.00  0.00    -0.386 OA
ATOM     17  H3* UNL     1       9.661   0.480  25.868  0.00  0.00    +0.210 HD
ENDBRANCH   2  16
BRANCH   3  18
ATOM     18  O2* UNL     1       8.888  -1.438  26.034  0.00  0.00    -0.385 OA
ATOM     19  H2* UNL     1       9.726  -1.815  26.389  0.00  0.00    +0.210 HD
ENDBRANCH   3  18
BRANCH   1  20
ATOM     20  C5* UNL     1       9.952   0.971  21.962  0.00  0.00    +0.190 C 
BRANCH  20  21
ATOM     21  O5* UNL     1       9.467   2.230  21.495  0.00  0.00    -0.392 OA
ATOM     22  H5* UNL     1      10.224   2.840  21.502  0.00  0.00    +0.210 HD
ENDBRANCH  20  21
ENDBRANCH   1  20
TORSDOF 5
ENDMDL
MODEL 7
REMARK VINA RESULT:      -5.8      1.900      2.777
REMARK  Name = 
REMARK  5 active torsions:
REMARK  status: ('A' for Active; 'I' for Inactive)
REMARK    1  A    between atoms: O5*_1  and  C5*_2
REMARK    2  A    between atoms: C5*_2  and  C4*_3
REMARK    3  A    between atoms: C1*_6  and  N_14
REMARK    4  A    between atoms: C2*_8  and  O2*_10
REMARK    5  A    between atoms: C3*_11  and  O3*_13
REMARK                            x       y       z     vdW  Elec       q    Type
REMARK                         _______ _______ _______ _____ _____    ______ ____
ROOT
ATOM      1  C4* UNL     1       8.360  -4.021  25.269  0.00  0.00    +0.177 C 
ATOM      2  C3* UNL     1       8.317  -4.306  23.771  0.00  0.00    +0.178 C 
ATOM      3  C2* UNL     1       8.179  -2.931  23.122  0.00  0.00    +0.195 C 
ATOM      4  C1* UNL     1       8.129  -1.951  24.310  0.00  0.00    +0.255 C 
ATOM      5  O4* UNL     1       8.717  -2.634  25.423  0.00  0.00    -0.346 OA
ENDROOT
BRANCH   4   6
ATOM      6  N   UNL     1       8.796  -0.672  24.045  0.00  0.00    -0.269 N 
ATOM      7  C   UNL     1       8.034   0.324  23.442  0.00  0.00    +0.332 A 
ATOM      8  O   UNL     1       6.869   0.161  23.087  0.00  0.00    -0.246 OA
ATOM      9  N   UNL     1       8.662   1.526  23.244  0.00  0.00    -0.273 N 
ATOM     10  H   UNL     1       8.120   2.261  22.815  0.00  0.00    +0.174 HD
ATOM     11  C   UNL     1       9.945   1.842  23.612  0.00  0.00    +0.289 A 
ATOM     12  O   UNL     1      10.418   2.958  23.436  0.00  0.00    -0.265 OA
ATOM     13  C   UNL     1      10.697   0.737  24.235  0.00  0.00    +0.204 A 
ATOM     14  F   UNL     1      11.968   0.981  24.607  0.00  0.00    -0.198 F 
ATOM     15  C   UNL     1      10.109  -0.444  24.423  0.00  0.00    +0.137 A 
ENDBRANCH   4   6
BRANCH   2  16
ATOM     16  O3* UNL     1       7.216  -5.162  23.453  0.00  0.00    -0.386 OA
ATOM     17  H3* UNL     1       7.120  -5.753  24.233  0.00  0.00    +0.210 HD
ENDBRANCH   2  16
BRANCH   3  18
ATOM     18  O2* UNL     1       7.014  -2.888  22.287  0.00  0.00    -0.385 OA
ATOM     19  H2* UNL     1       6.279  -3.273  22.817  0.00  0.00    +0.210 HD
ENDBRANCH   3  18
BRANCH   1  20
ATOM     20  C5* UNL     1       9.340  -4.917  26.028  0.00  0.00    +0.190 C 
BRANCH  20  21
ATOM     21  O5* UNL     1       9.812  -5.978  25.198  0.00  0.00    -0.392 OA
ATOM     22  H5* UNL     1      10.318  -6.577  25.774  0.00  0.00    +0.210 HD
ENDBRANCH  20  21
ENDBRANCH   1  20
TORSDOF 5
ENDMDL
MODEL 8
REMARK VINA RESULT:      -5.7      2.443      2.647
REMARK  Name = 
REMARK  5 active torsions:
REMARK  status: ('A' for Active; 'I' for Inactive)
REMARK    1  A    between atoms: O5*_1  and  C5*_2
REMARK    2  A    between atoms: C5*_2  and  C4*_3
REMARK    3  A    between atoms: C1*_6  and  N_14
REMARK    4  A    between atoms: C2*_8  and  O2*_10
REMARK    5  A    between atoms: C3*_11  and  O3*_13
REMARK                            x       y       z     vdW  Elec       q    Type
REMARK                         _______ _______ _______ _____ _____    ______ ____
ROOT
ATOM      1  C4* UNL     1       7.642  -5.002  25.287  0.00  0.00    +0.177 C 
ATOM      2  C3* UNL     1       9.055  -4.527  25.614  0.00  0.00    +0.178 C 
ATOM      3  C2* UNL     1       9.241  -3.266  24.775  0.00  0.00    +0.195 C 
ATOM      4  C1* UNL     1       7.916  -3.123  24.001  0.00  0.00    +0.255 C 
ATOM      5  O4* UNL     1       6.939  -3.875  24.729  0.00  0.00    -0.346 OA
ENDROOT
BRANCH   4   6
ATOM      6  N   UNL     1       7.495  -1.731  23.809  0.00  0.00    -0.269 N 
ATOM      7  C   UNL     1       8.042  -1.051  22.725  0.00  0.00    +0.332 A 
ATOM      8  O   UNL     1       8.880  -1.542  21.972  0.00  0.00    -0.246 OA
ATOM      9  N   UNL     1       7.602   0.234  22.536  0.00  0.00    -0.273 N 
ATOM     10  H   UNL     1       7.983   0.738  21.749  0.00  0.00    +0.174 HD
ATOM     11  C   UNL     1       6.660   0.888  23.288  0.00  0.00    +0.289 A 
ATOM     12  O   UNL     1       6.291   2.026  23.024  0.00  0.00    -0.265 OA
ATOM     13  C   UNL     1       6.132   0.113  24.425  0.00  0.00    +0.204 A 
ATOM     14  F   UNL     1       5.212   0.706  25.209  0.00  0.00    -0.198 F 
ATOM     15  C   UNL     1       6.557  -1.134  24.635  0.00  0.00    +0.137 A 
ENDBRANCH   4   6
BRANCH   2  16
ATOM     16  O3* UNL     1      10.013  -5.537  25.287  0.00  0.00    -0.386 OA
ATOM     17  H3* UNL     1      10.832  -5.045  25.054  0.00  0.00    +0.210 HD
ENDBRANCH   2  16
BRANCH   3  18
ATOM     18  O2* UNL     1      10.393  -3.394  23.930  0.00  0.00    -0.385 OA
ATOM     19  H2* UNL     1      10.134  -4.002  23.200  0.00  0.00    +0.210 HD
ENDBRANCH   3  18
BRANCH   1  20
ATOM     20  C5* UNL     1       6.894  -5.558  26.499  0.00  0.00    +0.190 C 
BRANCH  20  21
ATOM     21  O5* UNL     1       7.802  -5.917  27.541  0.00  0.00    -0.392 OA
ATOM     22  H5* UNL     1       8.649  -5.486  27.332  0.00  0.00    +0.210 HD
ENDBRANCH  20  21
ENDBRANCH   1  20
TORSDOF 5
ENDMDL
MODEL 9
REMARK VINA RESULT:      -5.7      2.508      4.020
REMARK  Name = 
REMARK  5 active torsions:
REMARK  status: ('A' for Active; 'I' for Inactive)
REMARK    1  A    between atoms: O5*_1  and  C5*_2
REMARK    2  A    between atoms: C5*_2  and  C4*_3
REMARK    3  A    between atoms: C1*_6  and  N_14
REMARK    4  A    between atoms: C2*_8  and  O2*_10
REMARK    5  A    between atoms: C3*_11  and  O3*_13
REMARK                            x       y       z     vdW  Elec       q    Type
REMARK                         _______ _______ _______ _____ _____    ______ ____
ROOT
ATOM      1  C4* UNL     1       6.585  -4.863  22.719  0.00  0.00    +0.177 C 
ATOM      2  C3* UNL     1       5.494  -3.839  22.423  0.00  0.00    +0.178 C 
ATOM      3  C2* UNL     1       5.945  -2.575  23.149  0.00  0.00    +0.195 C 
ATOM      4  C1* UNL     1       7.263  -2.978  23.836  0.00  0.00    +0.255 C 
ATOM      5  O4* UNL     1       7.752  -4.126  23.132  0.00  0.00    -0.346 OA
ENDROOT
BRANCH   4   6
ATOM      6  N   UNL     1       8.259  -1.902  23.875  0.00  0.00    -0.269 N 
ATOM      7  C   UNL     1       8.750  -1.542  25.126  0.00  0.00    +0.332 A 
ATOM      8  O   UNL     1       8.355  -2.043  26.177  0.00  0.00    -0.246 OA
ATOM      9  N   UNL     1       9.713  -0.566  25.138  0.00  0.00    -0.273 N 
ATOM     10  H   UNL     1      10.084  -0.299  26.037  0.00  0.00    +0.174 HD
ATOM     11  C   UNL     1      10.252   0.055  24.041  0.00  0.00    +0.289 A 
ATOM     12  O   UNL     1      11.143   0.890  24.136  0.00  0.00    -0.265 OA
ATOM     13  C   UNL     1       9.679  -0.368  22.749  0.00  0.00    +0.204 A 
ATOM     14  F   UNL     1      10.159   0.215  21.635  0.00  0.00    -0.198 F 
ATOM     15  C   UNL     1       8.731  -1.305  22.718  0.00  0.00    +0.137 A 
ENDBRANCH   4   6
BRANCH   2  16
ATOM     16  O3* UNL     1       4.226  -4.305  22.892  0.00  0.00    -0.386 OA
ATOM     17  H3* UNL     1       4.394  -5.217  23.215  0.00  0.00    +0.210 HD
ENDBRANCH   2  16
BRANCH   3  18
ATOM     18  O2* UNL     1       4.929  -2.134  24.060  0.00  0.00    -0.385 OA
ATOM     19  H2* UNL     1       4.961  -1.149  24.055  0.00  0.00    +0.210 HD
ENDBRANCH   3  18
BRANCH   1  20
ATOM     20  C5* UNL     1       6.910  -5.764  21.528  0.00  0.00    +0.190 C 
BRANCH  20  21
ATOM     21  O5* UNL     1       5.723  -6.133  20.825  0.00  0.00    -0.392 OA
ATOM     22  H5* UNL     1       6.010  -6.605  20.024  0.00  0.00    +0.210 HD
ENDBRANCH  20  21
ENDBRANCH   1  20
TORSDOF 5
ENDMDL
