MODEL 1
REMARK VINA RESULT:      -8.5      0.000      0.000
REMARK  Name = 
REMARK  9 active torsions:
REMARK  status: ('A' for Active; 'I' for Inactive)
REMARK    1  A    between atoms: O_1  and  C_2
REMARK    2  A    between atoms: C_4  and  C_12
REMARK    3  A    between atoms: C_6  and  N_9
REMARK    4  A    between atoms: C_7  and  O_8
REMARK    5  A    between atoms: C_12  and  C_14
REMARK    6  A    between atoms: C_14  and  C_15
REMARK    7  A    between atoms: C_15  and  N_16
REMARK    8  A    between atoms: N_19  and  C_22
REMARK    9  A    between atoms: C_24  and  C_28
REMARK                            x       y       z     vdW  Elec       q    Type
REMARK                         _______ _______ _______ _____ _____    ______ ____
ROOT
ATOM      1  C   UNL     1       8.405  -2.174  22.742  0.00  0.00    +0.092 C 
ENDROOT
BRANCH   1   2
ATOM      2  N   UNL     1       9.771  -1.625  22.840  0.00  0.00    -0.299 NA
ATOM      3  C   UNL     1      10.011  -1.075  24.203  0.00  0.00    +0.103 C 
ATOM      4  C   UNL     1       9.303   0.273  24.532  0.00  0.00    +0.120 C 
ATOM      5  N   UNL     1       9.542   1.254  23.457  0.00  0.00    -0.327 N 
ATOM      6  C   UNL     1       9.242   0.750  22.109  0.00  0.00    +0.120 C 
ATOM      7  C   UNL     1      10.052  -0.540  21.867  0.00  0.00    +0.103 C 
BRANCH   5   8
ATOM      8  C   UNL     1       9.741   2.601  23.692  0.00  0.00    +0.030 A 
ATOM      9  C   UNL     1       8.720   3.404  24.229  0.00  0.00    +0.023 A 
ATOM     10  C   UNL     1       8.883   4.773  24.450  0.00  0.00    +0.002 A 
ATOM     11  C   UNL     1      10.083   5.388  24.126  0.00  0.00    +0.012 A 
ATOM     12  C   UNL     1      11.126   4.634  23.580  0.00  0.00    +0.057 A 
ATOM     13  C   UNL     1      10.939   3.253  23.369  0.00  0.00    +0.035 A 
BRANCH  12  14
ATOM     14  C   UNL     1      12.428   5.306  23.226  0.00  0.00    +0.417 C 
ATOM     15  F   UNL     1      12.660   6.418  23.979  0.00  0.00    -0.166 F 
ATOM     16  F   UNL     1      12.465   5.720  21.929  0.00  0.00    -0.166 F 
ATOM     17  F   UNL     1      13.521   4.510  23.394  0.00  0.00    -0.166 F 
ENDBRANCH  12  14
ENDBRANCH   5   8
ENDBRANCH   1   2
BRANCH   1  18
ATOM     18  C   UNL     1       8.153  -3.306  23.740  0.00  0.00    +0.095 C 
BRANCH  18  19
ATOM     19  C   UNL     1       7.341  -4.436  23.142  0.00  0.00    +0.165 C 
ATOM     20  O   UNL     1       7.394  -4.734  21.952  0.00  0.00    -0.292 OA
BRANCH  19  25
ATOM     21  C   UNL     1       4.607  -6.758  24.330  0.00  0.00    +0.166 A 
ATOM     22  C   UNL     1       4.783  -6.769  25.719  0.00  0.00    +0.237 A 
ATOM     23  C   UNL     1       5.818  -6.004  26.273  0.00  0.00    +0.318 A 
ATOM     24  C   UNL     1       6.660  -5.239  25.447  0.00  0.00    +0.099 A 
ATOM     25  C   UNL     1       6.468  -5.234  24.059  0.00  0.00    +0.028 A 
ATOM     26  C   UNL     1       5.439  -6.002  23.503  0.00  0.00    +0.061 A 
BRANCH  23  27
ATOM     27  N   UNL     1       6.056  -5.981  27.719  0.00  0.00    +0.084 N 
ATOM     28  O   UNL     1       5.875  -7.034  28.349  0.00  0.00    +0.042 OA
ATOM     29  O   UNL     1       6.433  -4.915  28.226  0.00  0.00    -0.576 OA
ENDBRANCH  23  27
BRANCH  21  30
ATOM     30  O   UNL     1       3.602  -7.506  23.782  0.00  0.00    -0.503 OA
ATOM     31  H   UNL     1       2.987  -6.932  23.296  0.00  0.00    +0.292 HD
ENDBRANCH  21  30
BRANCH  22  32
ATOM     32  O   UNL     1       3.916  -7.540  26.448  0.00  0.00    -0.499 OA
ATOM     33  H   UNL     1       4.113  -7.478  27.404  0.00  0.00    +0.293 HD
ENDBRANCH  22  32
ENDBRANCH  19  25
ENDBRANCH  18  19
ENDBRANCH   1  18
TORSDOF 9
ENDMDL
MODEL 2
REMARK VINA RESULT:      -8.5      1.077      1.613
REMARK  Name = 
REMARK  9 active torsions:
REMARK  status: ('A' for Active; 'I' for Inactive)
REMARK    1  A    between atoms: O_1  and  C_2
REMARK    2  A    between atoms: C_4  and  C_12
REMARK    3  A    between atoms: C_6  and  N_9
REMARK    4  A    between atoms: C_7  and  O_8
REMARK    5  A    between atoms: C_12  and  C_14
REMARK    6  A    between atoms: C_14  and  C_15
REMARK    7  A    between atoms: C_15  and  N_16
REMARK    8  A    between atoms: N_19  and  C_22
REMARK    9  A    between atoms: C_24  and  C_28
REMARK                            x       y       z     vdW  Elec       q    Type
REMARK                         _______ _______ _______ _____ _____    ______ ____
ROOT
ATOM      1  C   UNL     1       8.185  -1.748  23.500  0.00  0.00    +0.092 C 
ENDROOT
BRANCH   1   2
ATOM      2  N   UNL     1       9.508  -1.226  23.105  0.00  0.00    -0.299 NA
ATOM      3  C   UNL     1      10.195  -0.616  24.276  0.00  0.00    +0.103 C 
ATOM      4  C   UNL     1       9.647   0.762  24.751  0.00  0.00    +0.120 C 
ATOM      5  N   UNL     1       9.517   1.684  23.607  0.00  0.00    -0.327 N 
ATOM      6  C   UNL     1       8.778   1.122  22.466  0.00  0.00    +0.120 C 
ATOM      7  C   UNL     1       9.452  -0.198  22.037  0.00  0.00    +0.103 C 
BRANCH   5   8
ATOM      8  C   UNL     1       9.791   3.035  23.688  0.00  0.00    +0.030 A 
ATOM      9  C   UNL     1       8.797   3.958  24.057  0.00  0.00    +0.023 A 
ATOM     10  C   UNL     1       9.038   5.332  24.120  0.00  0.00    +0.002 A 
ATOM     11  C   UNL     1      10.292   5.830  23.801  0.00  0.00    +0.012 A 
ATOM     12  C   UNL     1      11.312   4.953  23.419  0.00  0.00    +0.057 A 
ATOM     13  C   UNL     1      11.046   3.570  23.366  0.00  0.00    +0.035 A 
BRANCH  12  14
ATOM     14  C   UNL     1      12.673   5.497  23.071  0.00  0.00    +0.417 C 
ATOM     15  F   UNL     1      13.675   4.626  23.376  0.00  0.00    -0.166 F 
ATOM     16  F   UNL     1      12.963   6.646  23.743  0.00  0.00    -0.166 F 
ATOM     17  F   UNL     1      12.827   5.791  21.749  0.00  0.00    -0.166 F 
ENDBRANCH  12  14
ENDBRANCH   5   8
ENDBRANCH   1   2
BRANCH   1  18
ATOM     18  C   UNL     1       8.226  -2.515  24.822  0.00  0.00    +0.095 C 
BRANCH  18  19
ATOM     19  C   UNL     1       8.471  -3.997  24.625  0.00  0.00    +0.165 C 
ATOM     20  O   UNL     1       9.597  -4.488  24.610  0.00  0.00    -0.292 OA
BRANCH  19  25
ATOM     21  C   UNL     1       5.760  -6.078  23.014  0.00  0.00    +0.166 A 
ATOM     22  C   UNL     1       5.048  -6.575  24.113  0.00  0.00    +0.237 A 
ATOM     23  C   UNL     1       5.467  -6.223  25.402  0.00  0.00    +0.318 A 
ATOM     24  C   UNL     1       6.581  -5.384  25.585  0.00  0.00    +0.099 A 
ATOM     25  C   UNL     1       7.280  -4.891  24.476  0.00  0.00    +0.028 A 
ATOM     26  C   UNL     1       6.866  -5.246  23.188  0.00  0.00    +0.061 A 
BRANCH  23  27
ATOM     27  N   UNL     1       4.767  -6.718  26.591  0.00  0.00    +0.084 N 
ATOM     28  O   UNL     1       5.457  -7.118  27.540  0.00  0.00    +0.042 OA
ATOM     29  O   UNL     1       3.528  -6.700  26.581  0.00  0.00    -0.576 OA
ENDBRANCH  23  27
BRANCH  21  30
ATOM     30  O   UNL     1       5.359  -6.422  21.752  0.00  0.00    -0.503 OA
ATOM     31  H   UNL     1       4.394  -6.337  21.675  0.00  0.00    +0.292 HD
ENDBRANCH  21  30
BRANCH  22  32
ATOM     32  O   UNL     1       3.974  -7.383  23.842  0.00  0.00    -0.499 OA
ATOM     33  H   UNL     1       3.138  -6.877  23.882  0.00  0.00    +0.293 HD
ENDBRANCH  22  32
ENDBRANCH  19  25
ENDBRANCH  18  19
ENDBRANCH   1  18
TORSDOF 9
ENDMDL
MODEL 3
REMARK VINA RESULT:      -8.4      1.239      2.353
REMARK  Name = 
REMARK  9 active torsions:
REMARK  status: ('A' for Active; 'I' for Inactive)
REMARK    1  A    between atoms: O_1  and  C_2
REMARK    2  A    between atoms: C_4  and  C_12
REMARK    3  A    between atoms: C_6  and  N_9
REMARK    4  A    between atoms: C_7  and  O_8
REMARK    5  A    between atoms: C_12  and  C_14
REMARK    6  A    between atoms: C_14  and  C_15
REMARK    7  A    between atoms: C_15  and  N_16
REMARK    8  A    between atoms: N_19  and  C_22
REMARK    9  A    between atoms: C_24  and  C_28
REMARK                            x       y       z     vdW  Elec       q    Type
REMARK                         _______ _______ _______ _____ _____    ______ ____
ROOT
ATOM      1  C   UNL     1       8.319  -1.772  22.364  0.00  0.00    +0.092 C 
ENDROOT
BRANCH   1   2
ATOM      2  N   UNL     1       8.799  -1.338  23.691  0.00  0.00    -0.299 NA
ATOM      3  C   UNL     1       7.852  -0.357  24.290  0.00  0.00    +0.103 C 
ATOM      4  C   UNL     1       7.863   1.072  23.671  0.00  0.00    +0.120 C 
ATOM      5  N   UNL     1       9.245   1.579  23.578  0.00  0.00    -0.327 N 
ATOM      6  C   UNL     1      10.181   0.652  22.925  0.00  0.00    +0.120 C 
ATOM      7  C   UNL     1      10.139  -0.701  23.664  0.00  0.00    +0.103 C 
BRANCH   5   8
ATOM      8  C   UNL     1       9.584   2.899  23.804  0.00  0.00    +0.030 A 
ATOM      9  C   UNL     1       8.681   3.787  24.415  0.00  0.00    +0.023 A 
ATOM     10  C   UNL     1       8.984   5.133  24.631  0.00  0.00    +0.002 A 
ATOM     11  C   UNL     1      10.210   5.639  24.227  0.00  0.00    +0.012 A 
ATOM     12  C   UNL     1      11.139   4.798  23.606  0.00  0.00    +0.057 A 
ATOM     13  C   UNL     1      10.812   3.442  23.402  0.00  0.00    +0.035 A 
BRANCH  12  14
ATOM     14  C   UNL     1      12.470   5.351  23.166  0.00  0.00    +0.417 C 
ATOM     15  F   UNL     1      13.500   4.498  23.429  0.00  0.00    -0.166 F 
ATOM     16  F   UNL     1      12.784   6.517  23.795  0.00  0.00    -0.166 F 
ATOM     17  F   UNL     1      12.541   5.618  21.832  0.00  0.00    -0.166 F 
ENDBRANCH  12  14
ENDBRANCH   5   8
ENDBRANCH   1   2
BRANCH   1  18
ATOM     18  C   UNL     1       7.016  -2.569  22.442  0.00  0.00    +0.095 C 
BRANCH  18  19
ATOM     19  C   UNL     1       7.255  -4.053  22.626  0.00  0.00    +0.165 C 
ATOM     20  O   UNL     1       7.436  -4.818  21.682  0.00  0.00    -0.292 OA
BRANCH  19  25
ATOM     21  C   UNL     1       8.590  -5.016  26.026  0.00  0.00    +0.166 A 
ATOM     22  C   UNL     1       7.472  -5.573  26.658  0.00  0.00    +0.237 A 
ATOM     23  C   UNL     1       6.261  -5.630  25.958  0.00  0.00    +0.318 A 
ATOM     24  C   UNL     1       6.174  -5.140  24.643  0.00  0.00    +0.099 A 
ATOM     25  C   UNL     1       7.302  -4.589  24.022  0.00  0.00    +0.028 A 
ATOM     26  C   UNL     1       8.512  -4.526  24.722  0.00  0.00    +0.061 A 
BRANCH  23  27
ATOM     27  N   UNL     1       5.055  -6.196  26.570  0.00  0.00    +0.084 N 
ATOM     28  O   UNL     1       3.959  -5.743  26.206  0.00  0.00    +0.042 OA
ATOM     29  O   UNL     1       5.200  -7.097  27.407  0.00  0.00    -0.576 OA
ENDBRANCH  23  27
BRANCH  21  30
ATOM     30  O   UNL     1       9.776  -4.953  26.706  0.00  0.00    -0.503 OA
ATOM     31  H   UNL     1      10.324  -4.233  26.353  0.00  0.00    +0.292 HD
ENDBRANCH  21  30
BRANCH  22  32
ATOM     32  O   UNL     1       7.648  -6.030  27.939  0.00  0.00    -0.499 OA
ATOM     33  H   UNL     1       6.870  -6.543  28.236  0.00  0.00    +0.293 HD
ENDBRANCH  22  32
ENDBRANCH  19  25
ENDBRANCH  18  19
ENDBRANCH   1  18
TORSDOF 9
ENDMDL
MODEL 4
REMARK VINA RESULT:      -8.3      0.899      2.153
REMARK  Name = 
REMARK  9 active torsions:
REMARK  status: ('A' for Active; 'I' for Inactive)
REMARK    1  A    between atoms: O_1  and  C_2
REMARK    2  A    between atoms: C_4  and  C_12
REMARK    3  A    between atoms: C_6  and  N_9
REMARK    4  A    between atoms: C_7  and  O_8
REMARK    5  A    between atoms: C_12  and  C_14
REMARK    6  A    between atoms: C_14  and  C_15
REMARK    7  A    between atoms: C_15  and  N_16
REMARK    8  A    between atoms: N_19  and  C_22
REMARK    9  A    between atoms: C_24  and  C_28
REMARK                            x       y       z     vdW  Elec       q    Type
REMARK                         _______ _______ _______ _____ _____    ______ ____
ROOT
ATOM      1  C   UNL     1       8.188  -2.009  22.566  0.00  0.00    +0.092 C 
ENDROOT
BRANCH   1   2
ATOM      2  N   UNL     1       9.519  -1.419  22.318  0.00  0.00    -0.299 NA
ATOM      3  C   UNL     1      10.145  -0.998  23.602  0.00  0.00    +0.103 C 
ATOM      4  C   UNL     1       9.554   0.282  24.265  0.00  0.00    +0.120 C 
ATOM      5  N   UNL     1       9.459   1.374  23.277  0.00  0.00    -0.327 N 
ATOM      6  C   UNL     1       8.779   0.995  22.029  0.00  0.00    +0.120 C 
ATOM      7  C   UNL     1       9.492  -0.234  21.426  0.00  0.00    +0.103 C 
BRANCH   5   8
ATOM      8  C   UNL     1       9.708   2.697  23.584  0.00  0.00    +0.030 A 
ATOM      9  C   UNL     1       8.725   3.500  24.189  0.00  0.00    +0.023 A 
ATOM     10  C   UNL     1       8.939   4.848  24.486  0.00  0.00    +0.002 A 
ATOM     11  C   UNL     1      10.151   5.442  24.171  0.00  0.00    +0.012 A 
ATOM     12  C   UNL     1      11.157   4.687  23.559  0.00  0.00    +0.057 A 
ATOM     13  C   UNL     1      10.920   3.328  23.273  0.00  0.00    +0.035 A 
BRANCH  12  14
ATOM     14  C   UNL     1      12.474   5.336  23.216  0.00  0.00    +0.417 C 
ATOM     15  F   UNL     1      12.550   5.694  21.903  0.00  0.00    -0.166 F 
ATOM     16  F   UNL     1      13.535   4.512  23.439  0.00  0.00    -0.166 F 
ATOM     17  F   UNL     1      12.729   6.471  23.925  0.00  0.00    -0.166 F 
ENDBRANCH  12  14
ENDBRANCH   5   8
ENDBRANCH   1   2
BRANCH   1  18
ATOM     18  C   UNL     1       8.237  -3.184  23.542  0.00  0.00    +0.095 C 
BRANCH  18  19
ATOM     19  C   UNL     1       7.193  -4.237  23.236  0.00  0.00    +0.165 C 
ATOM     20  O   UNL     1       6.817  -4.487  22.093  0.00  0.00    -0.292 OA
BRANCH  19  25
ATOM     21  C   UNL     1       6.859  -5.797  26.661  0.00  0.00    +0.166 A 
ATOM     22  C   UNL     1       5.637  -6.474  26.581  0.00  0.00    +0.237 A 
ATOM     23  C   UNL     1       4.910  -6.415  25.386  0.00  0.00    +0.318 A 
ATOM     24  C   UNL     1       5.404  -5.691  24.286  0.00  0.00    +0.099 A 
ATOM     25  C   UNL     1       6.631  -5.021  24.379  0.00  0.00    +0.028 A 
ATOM     26  C   UNL     1       7.356  -5.074  25.575  0.00  0.00    +0.061 A 
BRANCH  23  27
ATOM     27  N   UNL     1       3.620  -7.098  25.245  0.00  0.00    +0.084 N 
ATOM     28  O   UNL     1       2.717  -6.791  26.037  0.00  0.00    +0.042 OA
ATOM     29  O   UNL     1       3.506  -7.935  24.339  0.00  0.00    -0.576 OA
ENDBRANCH  23  27
BRANCH  21  30
ATOM     30  O   UNL     1       7.571  -5.846  27.827  0.00  0.00    -0.503 OA
ATOM     31  H   UNL     1       6.975  -6.020  28.574  0.00  0.00    +0.292 HD
ENDBRANCH  21  30
BRANCH  22  32
ATOM     32  O   UNL     1       5.233  -7.158  27.699  0.00  0.00    -0.499 OA
ATOM     33  H   UNL     1       4.956  -8.068  27.470  0.00  0.00    +0.293 HD
ENDBRANCH  22  32
ENDBRANCH  19  25
ENDBRANCH  18  19
ENDBRANCH   1  18
TORSDOF 9
ENDMDL
MODEL 5
REMARK VINA RESULT:      -8.1      1.687      3.024
REMARK  Name = 
REMARK  9 active torsions:
REMARK  status: ('A' for Active; 'I' for Inactive)
REMARK    1  A    between atoms: O_1  and  C_2
REMARK    2  A    between atoms: C_4  and  C_12
REMARK    3  A    between atoms: C_6  and  N_9
REMARK    4  A    between atoms: C_7  and  O_8
REMARK    5  A    between atoms: C_12  and  C_14
REMARK    6  A    between atoms: C_14  and  C_15
REMARK    7  A    between atoms: C_15  and  N_16
REMARK    8  A    between atoms: N_19  and  C_22
REMARK    9  A    between atoms: C_24  and  C_28
REMARK                            x       y       z     vdW  Elec       q    Type
REMARK                         _______ _______ _______ _____ _____    ______ ____
ROOT
ATOM      1  C   UNL     1       8.505  -1.764  24.904  0.00  0.00    +0.092 C 
ENDROOT
BRANCH   1   2
ATOM      2  N   UNL     1       8.833  -1.146  23.605  0.00  0.00    -0.299 NA
ATOM      3  C   UNL     1      10.236  -0.648  23.608  0.00  0.00    +0.103 C 
ATOM      4  C   UNL     1      10.503   0.642  24.439  0.00  0.00    +0.120 C 
ATOM      5  N   UNL     1       9.516   1.684  24.100  0.00  0.00    -0.327 N 
ATOM      6  C   UNL     1       8.119   1.228  24.161  0.00  0.00    +0.120 C 
ATOM      7  C   UNL     1       7.956  -0.004  23.247  0.00  0.00    +0.103 C 
BRANCH   5   8
ATOM      8  C   UNL     1       9.829   3.027  24.022  0.00  0.00    +0.030 A 
ATOM      9  C   UNL     1       8.894   4.014  24.383  0.00  0.00    +0.023 A 
ATOM     10  C   UNL     1       9.172   5.379  24.287  0.00  0.00    +0.002 A 
ATOM     11  C   UNL     1      10.403   5.802  23.810  0.00  0.00    +0.012 A 
ATOM     12  C   UNL     1      11.363   4.859  23.428  0.00  0.00    +0.057 A 
ATOM     13  C   UNL     1      11.061   3.487  23.538  0.00  0.00    +0.035 A 
BRANCH  12  14
ATOM     14  C   UNL     1      12.700   5.322  22.908  0.00  0.00    +0.417 C 
ATOM     15  F   UNL     1      12.760   5.309  21.546  0.00  0.00    -0.166 F 
ATOM     16  F   UNL     1      13.726   4.534  23.332  0.00  0.00    -0.166 F 
ATOM     17  F   UNL     1      13.026   6.591  23.281  0.00  0.00    -0.166 F 
ENDBRANCH  12  14
ENDBRANCH   5   8
ENDBRANCH   1   2
BRANCH   1  18
ATOM     18  C   UNL     1       9.160  -3.134  25.086  0.00  0.00    +0.095 C 
BRANCH  18  19
ATOM     19  C   UNL     1       8.260  -4.117  25.806  0.00  0.00    +0.165 C 
ATOM     20  O   UNL     1       8.371  -4.364  27.004  0.00  0.00    -0.292 OA
BRANCH  19  25
ATOM     21  C   UNL     1       5.226  -6.217  24.994  0.00  0.00    +0.166 A 
ATOM     22  C   UNL     1       5.095  -6.061  23.609  0.00  0.00    +0.237 A 
ATOM     23  C   UNL     1       6.016  -5.251  22.932  0.00  0.00    +0.318 A 
ATOM     24  C   UNL     1       7.053  -4.611  23.634  0.00  0.00    +0.099 A 
ATOM     25  C   UNL     1       7.174  -4.780  25.019  0.00  0.00    +0.028 A 
ATOM     26  C   UNL     1       6.251  -5.584  25.698  0.00  0.00    +0.061 A 
BRANCH  23  27
ATOM     27  N   UNL     1       5.927  -5.044  21.484  0.00  0.00    +0.084 N 
ATOM     28  O   UNL     1       5.711  -3.892  21.079  0.00  0.00    +0.042 OA
ATOM     29  O   UNL     1       6.079  -6.030  20.749  0.00  0.00    -0.576 OA
ENDBRANCH  23  27
BRANCH  21  30
ATOM     30  O   UNL     1       4.327  -7.002  25.662  0.00  0.00    -0.503 OA
ATOM     31  H   UNL     1       4.323  -7.897  25.285  0.00  0.00    +0.292 HD
ENDBRANCH  21  30
BRANCH  22  32
ATOM     32  O   UNL     1       4.058  -6.723  23.005  0.00  0.00    -0.499 OA
ATOM     33  H   UNL     1       3.400  -6.092  22.652  0.00  0.00    +0.293 HD
ENDBRANCH  22  32
ENDBRANCH  19  25
ENDBRANCH  18  19
ENDBRANCH   1  18
TORSDOF 9
ENDMDL
MODEL 6
REMARK VINA RESULT:      -7.7      2.543      3.288
REMARK  Name = 
REMARK  9 active torsions:
REMARK  status: ('A' for Active; 'I' for Inactive)
REMARK    1  A    between atoms: O_1  and  C_2
REMARK    2  A    between atoms: C_4  and  C_12
REMARK    3  A    between atoms: C_6  and  N_9
REMARK    4  A    between atoms: C_7  and  O_8
REMARK    5  A    between atoms: C_12  and  C_14
REMARK    6  A    between atoms: C_14  and  C_15
REMARK    7  A    between atoms: C_15  and  N_16
REMARK    8  A    between atoms: N_19  and  C_22
REMARK    9  A    between atoms: C_24  and  C_28
REMARK                            x       y       z     vdW  Elec       q    Type
REMARK                         _______ _______ _______ _____ _____    ______ ____
ROOT
ATOM      1  C   UNL     1      10.037  -1.289  23.618  0.00  0.00    +0.092 C 
ENDROOT
BRANCH   1   2
ATOM      2  N   UNL     1       9.975  -0.376  24.777  0.00  0.00    -0.299 NA
ATOM      3  C   UNL     1       8.636   0.269  24.857  0.00  0.00    +0.103 C 
ATOM      4  C   UNL     1       8.344   1.375  23.800  0.00  0.00    +0.120 C 
ATOM      5  N   UNL     1       9.455   2.345  23.753  0.00  0.00    -0.327 N 
ATOM      6  C   UNL     1      10.781   1.728  23.602  0.00  0.00    +0.120 C 
ATOM      7  C   UNL     1      10.989   0.707  24.740  0.00  0.00    +0.103 C 
BRANCH   5   8
ATOM      8  C   UNL     1       9.270   3.701  23.568  0.00  0.00    +0.030 A 
ATOM      9  C   UNL     1      10.310   4.616  23.808  0.00  0.00    +0.023 A 
ATOM     10  C   UNL     1      10.143   5.994  23.658  0.00  0.00    +0.002 A 
ATOM     11  C   UNL     1       8.914   6.504  23.270  0.00  0.00    +0.012 A 
ATOM     12  C   UNL     1       7.845   5.636  23.029  0.00  0.00    +0.057 A 
ATOM     13  C   UNL     1       8.038   4.248  23.183  0.00  0.00    +0.035 A 
BRANCH  12  14
ATOM     14  C   UNL     1       6.509   6.193  22.609  0.00  0.00    +0.417 C 
ATOM     15  F   UNL     1       6.567   6.833  21.408  0.00  0.00    -0.166 F 
ATOM     16  F   UNL     1       6.025   7.108  23.495  0.00  0.00    -0.166 F 
ATOM     17  F   UNL     1       5.535   5.249  22.480  0.00  0.00    -0.166 F 
ENDBRANCH  12  14
ENDBRANCH   5   8
ENDBRANCH   1   2
BRANCH   1  18
ATOM     18  C   UNL     1       9.295  -2.603  23.864  0.00  0.00    +0.095 C 
BRANCH  18  19
ATOM     19  C   UNL     1       8.128  -2.797  22.917  0.00  0.00    +0.165 C 
ATOM     20  O   UNL     1       7.917  -2.052  21.963  0.00  0.00    -0.292 OA
BRANCH  19  25
ATOM     21  C   UNL     1       5.852  -5.730  22.216  0.00  0.00    +0.166 A 
ATOM     22  C   UNL     1       5.517  -6.183  23.497  0.00  0.00    +0.237 A 
ATOM     23  C   UNL     1       6.049  -5.517  24.608  0.00  0.00    +0.318 A 
ATOM     24  C   UNL     1       6.902  -4.411  24.436  0.00  0.00    +0.099 A 
ATOM     25  C   UNL     1       7.225  -3.967  23.148  0.00  0.00    +0.028 A 
ATOM     26  C   UNL     1       6.698  -4.634  22.036  0.00  0.00    +0.061 A 
BRANCH  23  27
ATOM     27  N   UNL     1       5.740  -5.949  25.974  0.00  0.00    +0.084 N 
ATOM     28  O   UNL     1       6.661  -5.934  26.805  0.00  0.00    +0.042 OA
ATOM     29  O   UNL     1       4.577  -6.296  26.222  0.00  0.00    -0.576 OA
ENDBRANCH  23  27
BRANCH  21  30
ATOM     30  O   UNL     1       5.340  -6.379  21.126  0.00  0.00    -0.503 OA
ATOM     31  H   UNL     1       5.181  -7.313  21.340  0.00  0.00    +0.292 HD
ENDBRANCH  21  30
BRANCH  22  32
ATOM     32  O   UNL     1       4.678  -7.264  23.573  0.00  0.00    -0.499 OA
ATOM     33  H   UNL     1       5.015  -7.923  24.213  0.00  0.00    +0.293 HD
ENDBRANCH  22  32
ENDBRANCH  19  25
ENDBRANCH  18  19
ENDBRANCH   1  18
TORSDOF 9
ENDMDL
MODEL 7
REMARK VINA RESULT:      -7.7      1.972      2.387
REMARK  Name = 
REMARK  9 active torsions:
REMARK  status: ('A' for Active; 'I' for Inactive)
REMARK    1  A    between atoms: O_1  and  C_2
REMARK    2  A    between atoms: C_4  and  C_12
REMARK    3  A    between atoms: C_6  and  N_9
REMARK    4  A    between atoms: C_7  and  O_8
REMARK    5  A    between atoms: C_12  and  C_14
REMARK    6  A    between atoms: C_14  and  C_15
REMARK    7  A    between atoms: C_15  and  N_16
REMARK    8  A    between atoms: N_19  and  C_22
REMARK    9  A    between atoms: C_24  and  C_28
REMARK                            x       y       z     vdW  Elec       q    Type
REMARK                         _______ _______ _______ _____ _____    ______ ____
ROOT
ATOM      1  C   UNL     1       7.879  -2.420  22.173  0.00  0.00    +0.092 C 
ENDROOT
BRANCH   1   2
ATOM      2  N   UNL     1       8.792  -1.997  23.253  0.00  0.00    -0.299 NA
ATOM      3  C   UNL     1       8.099  -1.063  24.181  0.00  0.00    +0.103 C 
ATOM      4  C   UNL     1       7.852   0.379  23.645  0.00  0.00    +0.120 C 
ATOM      5  N   UNL     1       9.096   0.935  23.080  0.00  0.00    -0.327 N 
ATOM      6  C   UNL     1       9.758   0.054  22.106  0.00  0.00    +0.120 C 
ATOM      7  C   UNL     1      10.018  -1.315  22.768  0.00  0.00    +0.103 C 
BRANCH   5   8
ATOM      8  C   UNL     1       9.461   2.261  23.212  0.00  0.00    +0.030 A 
ATOM      9  C   UNL     1      10.792   2.624  23.482  0.00  0.00    +0.023 A 
ATOM     10  C   UNL     1      11.186   3.954  23.648  0.00  0.00    +0.002 A 
ATOM     11  C   UNL     1      10.246   4.970  23.560  0.00  0.00    +0.012 A 
ATOM     12  C   UNL     1       8.907   4.658  23.302  0.00  0.00    +0.057 A 
ATOM     13  C   UNL     1       8.535   3.309  23.134  0.00  0.00    +0.035 A 
BRANCH  12  14
ATOM     14  C   UNL     1       7.887   5.764  23.209  0.00  0.00    +0.417 C 
ATOM     15  F   UNL     1       6.849   5.588  24.074  0.00  0.00    -0.166 F 
ATOM     16  F   UNL     1       7.327   5.854  21.970  0.00  0.00    -0.166 F 
ATOM     17  F   UNL     1       8.390   7.001  23.479  0.00  0.00    -0.166 F 
ENDBRANCH  12  14
ENDBRANCH   5   8
ENDBRANCH   1   2
BRANCH   1  18
ATOM     18  C   UNL     1       6.440  -2.601  22.656  0.00  0.00    +0.095 C 
BRANCH  18  19
ATOM     19  C   UNL     1       5.948  -4.025  22.494  0.00  0.00    +0.165 C 
ATOM     20  O   UNL     1       5.726  -4.529  21.396  0.00  0.00    -0.292 OA
BRANCH  19  25
ATOM     21  C   UNL     1       4.655  -6.698  24.830  0.00  0.00    +0.166 A 
ATOM     22  C   UNL     1       5.357  -6.449  26.014  0.00  0.00    +0.237 A 
ATOM     23  C   UNL     1       6.272  -5.389  26.045  0.00  0.00    +0.318 A 
ATOM     24  C   UNL     1       6.476  -4.590  24.907  0.00  0.00    +0.099 A 
ATOM     25  C   UNL     1       5.762  -4.848  23.729  0.00  0.00    +0.028 A 
ATOM     26  C   UNL     1       4.852  -5.910  23.695  0.00  0.00    +0.061 A 
BRANCH  23  27
ATOM     27  N   UNL     1       7.043  -5.085  27.255  0.00  0.00    +0.084 N 
ATOM     28  O   UNL     1       6.429  -5.034  28.331  0.00  0.00    +0.042 OA
ATOM     29  O   UNL     1       8.263  -4.905  27.132  0.00  0.00    -0.576 OA
ENDBRANCH  23  27
BRANCH  21  30
ATOM     30  O   UNL     1       3.763  -7.735  24.791  0.00  0.00    -0.503 OA
ATOM     31  H   UNL     1       3.386  -7.883  25.674  0.00  0.00    +0.292 HD
ENDBRANCH  21  30
BRANCH  22  32
ATOM     32  O   UNL     1       5.094  -7.275  27.076  0.00  0.00    -0.499 OA
ATOM     33  H   UNL     1       4.141  -7.488  27.125  0.00  0.00    +0.293 HD
ENDBRANCH  22  32
ENDBRANCH  19  25
ENDBRANCH  18  19
ENDBRANCH   1  18
TORSDOF 9
ENDMDL
MODEL 8
REMARK VINA RESULT:      -7.6      2.659      3.767
REMARK  Name = 
REMARK  9 active torsions:
REMARK  status: ('A' for Active; 'I' for Inactive)
REMARK    1  A    between atoms: O_1  and  C_2
REMARK    2  A    between atoms: C_4  and  C_12
REMARK    3  A    between atoms: C_6  and  N_9
REMARK    4  A    between atoms: C_7  and  O_8
REMARK    5  A    between atoms: C_12  and  C_14
REMARK    6  A    between atoms: C_14  and  C_15
REMARK    7  A    between atoms: C_15  and  N_16
REMARK    8  A    between atoms: N_19  and  C_22
REMARK    9  A    between atoms: C_24  and  C_28
REMARK                            x       y       z     vdW  Elec       q    Type
REMARK                         _______ _______ _______ _____ _____    ______ ____
ROOT
ATOM      1  C   UNL     1      10.096  -1.087  23.508  0.00  0.00    +0.092 C 
ENDROOT
BRANCH   1   2
ATOM      2  N   UNL     1      10.178  -0.175  24.666  0.00  0.00    -0.299 NA
ATOM      3  C   UNL     1       8.846   0.430  24.943  0.00  0.00    +0.103 C 
ATOM      4  C   UNL     1       8.371   1.527  23.945  0.00  0.00    +0.120 C 
ATOM      5  N   UNL     1       9.434   2.528  23.738  0.00  0.00    -0.327 N 
ATOM      6  C   UNL     1      10.742   1.951  23.393  0.00  0.00    +0.120 C 
ATOM      7  C   UNL     1      11.143   0.937  24.485  0.00  0.00    +0.103 C 
BRANCH   5   8
ATOM      8  C   UNL     1       9.184   3.878  23.588  0.00  0.00    +0.030 A 
ATOM      9  C   UNL     1      10.163   4.838  23.900  0.00  0.00    +0.023 A 
ATOM     10  C   UNL     1       9.929   6.210  23.785  0.00  0.00    +0.002 A 
ATOM     11  C   UNL     1       8.692   6.668  23.360  0.00  0.00    +0.012 A 
ATOM     12  C   UNL     1       7.682   5.753  23.046  0.00  0.00    +0.057 A 
ATOM     13  C   UNL     1       7.942   4.373  23.166  0.00  0.00    +0.035 A 
BRANCH  12  14
ATOM     14  C   UNL     1       6.337   6.253  22.585  0.00  0.00    +0.417 C 
ATOM     15  F   UNL     1       6.429   7.052  21.485  0.00  0.00    -0.166 F 
ATOM     16  F   UNL     1       5.706   6.999  23.534  0.00  0.00    -0.166 F 
ATOM     17  F   UNL     1       5.465   5.261  22.252  0.00  0.00    -0.166 F 
ENDBRANCH  12  14
ENDBRANCH   5   8
ENDBRANCH   1   2
BRANCH   1  18
ATOM     18  C   UNL     1       9.798  -2.530  23.915  0.00  0.00    +0.095 C 
BRANCH  18  19
ATOM     19  C   UNL     1       8.478  -3.028  23.362  0.00  0.00    +0.165 C 
ATOM     20  O   UNL     1       8.038  -2.673  22.272  0.00  0.00    -0.292 OA
BRANCH  19  25
ATOM     21  C   UNL     1       7.478  -5.267  26.237  0.00  0.00    +0.166 A 
ATOM     22  C   UNL     1       6.306  -5.874  25.771  0.00  0.00    +0.237 A 
ATOM     23  C   UNL     1       5.836  -5.542  24.495  0.00  0.00    +0.318 A 
ATOM     24  C   UNL     1       6.533  -4.616  23.697  0.00  0.00    +0.099 A 
ATOM     25  C   UNL     1       7.706  -4.019  24.175  0.00  0.00    +0.028 A 
ATOM     26  C   UNL     1       8.175  -4.346  25.453  0.00  0.00    +0.061 A 
BRANCH  23  27
ATOM     27  N   UNL     1       4.611  -6.139  23.956  0.00  0.00    +0.084 N 
ATOM     28  O   UNL     1       3.893  -5.430  23.236  0.00  0.00    +0.042 OA
ATOM     29  O   UNL     1       4.370  -7.320  24.243  0.00  0.00    -0.576 OA
ENDBRANCH  23  27
BRANCH  21  30
ATOM     30  O   UNL     1       7.940  -5.584  27.485  0.00  0.00    -0.503 OA
ATOM     31  H   UNL     1       7.199  -5.830  28.062  0.00  0.00    +0.292 HD
ENDBRANCH  21  30
BRANCH  22  32
ATOM     32  O   UNL     1       5.694  -6.767  26.613  0.00  0.00    -0.499 OA
ATOM     33  H   UNL     1       6.341  -7.405  26.975  0.00  0.00    +0.293 HD
ENDBRANCH  22  32
ENDBRANCH  19  25
ENDBRANCH  18  19
ENDBRANCH   1  18
TORSDOF 9
ENDMDL
MODEL 9
REMARK VINA RESULT:      -7.5      1.958      3.370
REMARK  Name = 
REMARK  9 active torsions:
REMARK  status: ('A' for Active; 'I' for Inactive)
REMARK    1  A    between atoms: O_1  and  C_2
REMARK    2  A    between atoms: C_4  and  C_12
REMARK    3  A    between atoms: C_6  and  N_9
REMARK    4  A    between atoms: C_7  and  O_8
REMARK    5  A    between atoms: C_12  and  C_14
REMARK    6  A    between atoms: C_14  and  C_15
REMARK    7  A    between atoms: C_15  and  N_16
REMARK    8  A    between atoms: N_19  and  C_22
REMARK    9  A    between atoms: C_24  and  C_28
REMARK                            x       y       z     vdW  Elec       q    Type
REMARK                         _______ _______ _______ _____ _____    ______ ____
ROOT
ATOM      1  C   UNL     1       8.305  -2.645  25.719  0.00  0.00    +0.092 C 
ENDROOT
BRANCH   1   2
ATOM      2  N   UNL     1       8.717  -2.239  24.361  0.00  0.00    -0.299 NA
ATOM      3  C   UNL     1       9.804  -1.224  24.432  0.00  0.00    +0.103 C 
ATOM      4  C   UNL     1       9.378   0.207  24.875  0.00  0.00    +0.120 C 
ATOM      5  N   UNL     1       8.210   0.659  24.095  0.00  0.00    -0.327 N 
ATOM      6  C   UNL     1       7.097  -0.302  24.073  0.00  0.00    +0.120 C 
ATOM      7  C   UNL     1       7.618  -1.657  23.551  0.00  0.00    +0.103 C 
BRANCH   5   8
ATOM      8  C   UNL     1       8.040   1.962  23.671  0.00  0.00    +0.030 A 
ATOM      9  C   UNL     1       6.975   2.318  22.825  0.00  0.00    +0.023 A 
ATOM     10  C   UNL     1       6.795   3.622  22.358  0.00  0.00    +0.002 A 
ATOM     11  C   UNL     1       7.691   4.616  22.718  0.00  0.00    +0.012 A 
ATOM     12  C   UNL     1       8.772   4.310  23.550  0.00  0.00    +0.057 A 
ATOM     13  C   UNL     1       8.932   2.988  24.013  0.00  0.00    +0.035 A 
BRANCH  12  14
ATOM     14  C   UNL     1       9.746   5.392  23.938  0.00  0.00    +0.417 C 
ATOM     15  F   UNL     1       9.655   5.725  25.257  0.00  0.00    -0.166 F 
ATOM     16  F   UNL     1       9.543   6.549  23.249  0.00  0.00    -0.166 F 
ATOM     17  F   UNL     1      11.051   5.060  23.729  0.00  0.00    -0.166 F 
ENDBRANCH  12  14
ENDBRANCH   5   8
ENDBRANCH   1   2
BRANCH   1  18
ATOM     18  C   UNL     1       8.847  -4.020  26.112  0.00  0.00    +0.095 C 
BRANCH  18  19
ATOM     19  C   UNL     1       7.745  -5.007  26.437  0.00  0.00    +0.165 C 
ATOM     20  O   UNL     1       7.642  -5.548  27.535  0.00  0.00    -0.292 OA
BRANCH  19  25
ATOM     21  C   UNL     1       4.485  -6.003  24.809  0.00  0.00    +0.166 A 
ATOM     22  C   UNL     1       4.759  -5.865  23.443  0.00  0.00    +0.237 A 
ATOM     23  C   UNL     1       6.033  -5.436  23.051  0.00  0.00    +0.318 A 
ATOM     24  C   UNL     1       7.017  -5.153  24.015  0.00  0.00    +0.099 A 
ATOM     25  C   UNL     1       6.730  -5.299  25.378  0.00  0.00    +0.028 A 
ATOM     26  C   UNL     1       5.455  -5.722  25.772  0.00  0.00    +0.061 A 
BRANCH  23  27
ATOM     27  N   UNL     1       6.377  -5.267  21.636  0.00  0.00    +0.084 N 
ATOM     28  O   UNL     1       7.319  -5.938  21.189  0.00  0.00    +0.042 OA
ATOM     29  O   UNL     1       5.702  -4.471  20.969  0.00  0.00    -0.576 OA
ENDBRANCH  23  27
BRANCH  21  30
ATOM     30  O   UNL     1       3.240  -6.417  25.199  0.00  0.00    -0.503 OA
ATOM     31  H   UNL     1       2.595  -5.704  25.062  0.00  0.00    +0.292 HD
ENDBRANCH  21  30
BRANCH  22  32
ATOM     32  O   UNL     1       3.742  -6.166  22.574  0.00  0.00    -0.499 OA
ATOM     33  H   UNL     1       4.088  -6.613  21.775  0.00  0.00    +0.293 HD
ENDBRANCH  22  32
ENDBRANCH  19  25
ENDBRANCH  18  19
ENDBRANCH   1  18
TORSDOF 9
ENDMDL
