MODEL 1
REMARK VINA RESULT:      -3.5      0.000      0.000
REMARK  Name = 
REMARK  4 active torsions:
REMARK  status: ('A' for Active; 'I' for Inactive)
REMARK    1  A    between atoms: N_1  and  CA_2
REMARK    2  A    between atoms: CA_2  and  C_4
REMARK    3  A    between atoms: CA_2  and  C_6
REMARK    4  A    between atoms: C_6  and  O_7
REMARK                            x       y       z     vdW  Elec       q    Type
REMARK                         _______ _______ _______ _____ _____    ______ ____
ROOT
ATOM      1  CA  UNL     1      10.054   0.875  22.122  0.00  0.00    +0.184 C 
ENDROOT
BRANCH   1   2
ATOM      2  N   UNL     1       9.274   1.887  21.353  0.00  0.00    -0.315 NA
ATOM      3  H1  UNL     1       9.936   2.489  20.854  0.00  0.00    +0.119 HD
ATOM      4  H2  UNL     1       8.793   1.380  20.605  0.00  0.00    +0.119 HD
ENDBRANCH   1   2
BRANCH   1   5
ATOM      5  C   UNL     1       9.340  -0.499  21.998  0.00  0.00    +0.326 C 
ATOM      6  OXT UNL     1       8.206  -0.755  22.370  0.00  0.00    -0.249 OA
BRANCH   5   7
ATOM      7  O   UNL     1      10.160  -1.423  21.425  0.00  0.00    -0.479 OA
ATOM      8  H   UNL     1       9.641  -1.815  20.679  0.00  0.00    +0.295 HD
ENDBRANCH   5   7
ENDBRANCH   1   5
BRANCH   1   9
ATOM      9  C   UNL     1      10.152   1.301  23.556  0.00  0.00    -0.005 C 
ATOM     10  C   UNL     1      10.857   0.659  24.496  0.00  0.00    +0.006 C 
ENDBRANCH   1   9
TORSDOF 4
ENDMDL
MODEL 2
REMARK VINA RESULT:      -3.4      2.149      2.247
REMARK  Name = 
REMARK  4 active torsions:
REMARK  status: ('A' for Active; 'I' for Inactive)
REMARK    1  A    between atoms: N_1  and  CA_2
REMARK    2  A    between atoms: CA_2  and  C_4
REMARK    3  A    between atoms: CA_2  and  C_6
REMARK    4  A    between atoms: C_6  and  O_7
REMARK                            x       y       z     vdW  Elec       q    Type
REMARK                         _______ _______ _______ _____ _____    ______ ____
ROOT
ATOM      1  CA  UNL     1       9.449   0.087  22.445  0.00  0.00    +0.184 C 
ENDROOT
BRANCH   1   2
ATOM      2  N   UNL     1       9.871  -0.900  21.410  0.00  0.00    -0.315 NA
ATOM      3  H1  UNL     1      10.213  -0.383  20.594  0.00  0.00    +0.119 HD
ATOM      4  H2  UNL     1      10.709  -1.365  21.772  0.00  0.00    +0.119 HD
ENDBRANCH   1   2
BRANCH   1   5
ATOM      5  C   UNL     1       9.107   1.428  21.740  0.00  0.00    +0.326 C 
ATOM      6  OXT UNL     1       8.004   1.771  21.346  0.00  0.00    -0.249 OA
BRANCH   5   7
ATOM      7  O   UNL     1      10.221   2.197  21.590  0.00  0.00    -0.479 OA
ATOM      8  H   UNL     1      10.764   2.041  22.403  0.00  0.00    +0.295 HD
ENDBRANCH   5   7
ENDBRANCH   1   5
BRANCH   1   9
ATOM      9  C   UNL     1      10.552   0.270  23.442  0.00  0.00    -0.005 C 
ATOM     10  C   UNL     1      10.386   0.273  24.771  0.00  0.00    +0.006 C 
ENDBRANCH   1   9
TORSDOF 4
ENDMDL
MODEL 3
REMARK VINA RESULT:      -3.3      6.176      6.749
REMARK  Name = 
REMARK  4 active torsions:
REMARK  status: ('A' for Active; 'I' for Inactive)
REMARK    1  A    between atoms: N_1  and  CA_2
REMARK    2  A    between atoms: CA_2  and  C_4
REMARK    3  A    between atoms: CA_2  and  C_6
REMARK    4  A    between atoms: C_6  and  O_7
REMARK                            x       y       z     vdW  Elec       q    Type
REMARK                         _______ _______ _______ _____ _____    ______ ____
ROOT
ATOM      1  CA  UNL     1       9.193  -4.445  25.446  0.00  0.00    +0.184 C 
ENDROOT
BRANCH   1   2
ATOM      2  N   UNL     1      10.105  -5.623  25.377  0.00  0.00    -0.315 NA
ATOM      3  H1  UNL     1      11.039  -5.290  25.119  0.00  0.00    +0.119 HD
ATOM      4  H2  UNL     1      10.222  -5.959  26.338  0.00  0.00    +0.119 HD
ENDBRANCH   1   2
BRANCH   1   5
ATOM      5  C   UNL     1       8.139  -4.698  26.559  0.00  0.00    +0.326 C 
ATOM      6  OXT UNL     1       7.333  -3.884  26.982  0.00  0.00    -0.249 OA
BRANCH   5   7
ATOM      7  O   UNL     1       8.233  -5.969  27.038  0.00  0.00    -0.479 OA
ATOM      8  H   UNL     1       7.925  -5.923  27.978  0.00  0.00    +0.295 HD
ENDBRANCH   5   7
ENDBRANCH   1   5
BRANCH   1   9
ATOM      9  C   UNL     1       8.531  -4.246  24.116  0.00  0.00    -0.005 C 
ATOM     10  C   UNL     1       7.649  -5.092  23.569  0.00  0.00    +0.006 C 
ENDBRANCH   1   9
TORSDOF 4
ENDMDL
MODEL 4
REMARK VINA RESULT:      -3.3      1.901      2.431
REMARK  Name = 
REMARK  4 active torsions:
REMARK  status: ('A' for Active; 'I' for Inactive)
REMARK    1  A    between atoms: N_1  and  CA_2
REMARK    2  A    between atoms: CA_2  and  C_4
REMARK    3  A    between atoms: CA_2  and  C_6
REMARK    4  A    between atoms: C_6  and  O_7
REMARK                            x       y       z     vdW  Elec       q    Type
REMARK                         _______ _______ _______ _____ _____    ______ ____
ROOT
ATOM      1  CA  UNL     1       9.836   0.010  23.191  0.00  0.00    +0.184 C 
ENDROOT
BRANCH   1   2
ATOM      2  N   UNL     1      10.907   0.466  24.123  0.00  0.00    -0.315 NA
ATOM      3  H1  UNL     1      11.694  -0.185  24.048  0.00  0.00    +0.119 HD
ATOM      4  H2  UNL     1      11.277   1.341  23.739  0.00  0.00    +0.119 HD
ENDBRANCH   1   2
BRANCH   1   5
ATOM      5  C   UNL     1      10.114  -1.467  22.800  0.00  0.00    +0.326 C 
ATOM      6  OXT UNL     1      10.197  -2.410  23.571  0.00  0.00    -0.249 OA
BRANCH   5   7
ATOM      7  O   UNL     1      10.278  -1.591  21.454  0.00  0.00    -0.479 OA
ATOM      8  H   UNL     1       9.552  -1.057  21.045  0.00  0.00    +0.295 HD
ENDBRANCH   5   7
ENDBRANCH   1   5
BRANCH   1   9
ATOM      9  C   UNL     1       9.817   0.892  21.979  0.00  0.00    -0.005 C 
ATOM     10  C   UNL     1       8.750   1.578  21.551  0.00  0.00    +0.006 C 
ENDBRANCH   1   9
TORSDOF 4
ENDMDL
MODEL 5
REMARK VINA RESULT:      -3.3      6.220      6.537
REMARK  Name = 
REMARK  4 active torsions:
REMARK  status: ('A' for Active; 'I' for Inactive)
REMARK    1  A    between atoms: N_1  and  CA_2
REMARK    2  A    between atoms: CA_2  and  C_4
REMARK    3  A    between atoms: CA_2  and  C_6
REMARK    4  A    between atoms: C_6  and  O_7
REMARK                            x       y       z     vdW  Elec       q    Type
REMARK                         _______ _______ _______ _____ _____    ______ ____
ROOT
ATOM      1  CA  UNL     1       8.040  -5.192  25.705  0.00  0.00    +0.184 C 
ENDROOT
BRANCH   1   2
ATOM      2  N   UNL     1       8.245  -5.643  27.111  0.00  0.00    -0.315 NA
ATOM      3  H1  UNL     1       8.666  -6.577  27.090  0.00  0.00    +0.119 HD
ATOM      4  H2  UNL     1       8.984  -5.051  27.504  0.00  0.00    +0.119 HD
ENDBRANCH   1   2
BRANCH   1   5
ATOM      5  C   UNL     1       9.416  -4.791  25.106  0.00  0.00    +0.326 C 
ATOM      6  OXT UNL     1       9.627  -3.848  24.361  0.00  0.00    -0.249 OA
BRANCH   5   7
ATOM      7  O   UNL     1      10.391  -5.653  25.507  0.00  0.00    -0.479 OA
ATOM      8  H   UNL     1      11.100  -5.089  25.905  0.00  0.00    +0.295 HD
ENDBRANCH   5   7
ENDBRANCH   1   5
BRANCH   1   9
ATOM      9  C   UNL     1       7.088  -4.034  25.684  0.00  0.00    -0.005 C 
ATOM     10  C   UNL     1       6.986  -3.113  26.651  0.00  0.00    +0.006 C 
ENDBRANCH   1   9
TORSDOF 4
ENDMDL
MODEL 6
REMARK VINA RESULT:      -3.2      2.303      2.589
REMARK  Name = 
REMARK  4 active torsions:
REMARK  status: ('A' for Active; 'I' for Inactive)
REMARK    1  A    between atoms: N_1  and  CA_2
REMARK    2  A    between atoms: CA_2  and  C_4
REMARK    3  A    between atoms: CA_2  and  C_6
REMARK    4  A    between atoms: C_6  and  O_7
REMARK                            x       y       z     vdW  Elec       q    Type
REMARK                         _______ _______ _______ _____ _____    ______ ____
ROOT
ATOM      1  CA  UNL     1      10.331  -0.872  22.838  0.00  0.00    +0.184 C 
ENDROOT
BRANCH   1   2
ATOM      2  N   UNL     1      10.041  -1.534  21.533  0.00  0.00    -0.315 NA
ATOM      3  H1  UNL     1       9.196  -1.109  21.140  0.00  0.00    +0.119 HD
ATOM      4  H2  UNL     1      10.782  -1.246  20.888  0.00  0.00    +0.119 HD
ENDBRANCH   1   2
BRANCH   1   5
ATOM      5  C   UNL     1       9.774  -1.765  23.981  0.00  0.00    +0.326 C 
ATOM      6  OXT UNL     1       9.060  -1.393  24.898  0.00  0.00    -0.249 OA
BRANCH   5   7
ATOM      7  O   UNL     1      10.204  -3.050  23.848  0.00  0.00    -0.479 OA
ATOM      8  H   UNL     1       9.566  -3.482  23.227  0.00  0.00    +0.295 HD
ENDBRANCH   5   7
ENDBRANCH   1   5
BRANCH   1   9
ATOM      9  C   UNL     1       9.699   0.487  22.862  0.00  0.00    -0.005 C 
ATOM     10  C   UNL     1       9.940   1.456  21.970  0.00  0.00    +0.006 C 
ENDBRANCH   1   9
TORSDOF 4
ENDMDL
MODEL 7
REMARK VINA RESULT:      -3.2      2.341      2.555
REMARK  Name = 
REMARK  4 active torsions:
REMARK  status: ('A' for Active; 'I' for Inactive)
REMARK    1  A    between atoms: N_1  and  CA_2
REMARK    2  A    between atoms: CA_2  and  C_4
REMARK    3  A    between atoms: CA_2  and  C_6
REMARK    4  A    between atoms: C_6  and  O_7
REMARK                            x       y       z     vdW  Elec       q    Type
REMARK                         _______ _______ _______ _____ _____    ______ ____
ROOT
ATOM      1  CA  UNL     1       9.211  -0.750  23.757  0.00  0.00    +0.184 C 
ENDROOT
BRANCH   1   2
ATOM      2  N   UNL     1       7.977  -1.271  24.412  0.00  0.00    -0.315 NA
ATOM      3  H1  UNL     1       7.448  -0.474  24.780  0.00  0.00    +0.119 HD
ATOM      4  H2  UNL     1       7.380  -1.636  23.665  0.00  0.00    +0.119 HD
ENDBRANCH   1   2
BRANCH   1   5
ATOM      5  C   UNL     1      10.005  -1.949  23.170  0.00  0.00    +0.326 C 
ATOM      6  OXT UNL     1      10.270  -2.988  23.753  0.00  0.00    -0.249 OA
BRANCH   5   7
ATOM      7  O   UNL     1      10.400  -1.693  21.893  0.00  0.00    -0.479 OA
ATOM      8  H   UNL     1      10.363  -0.708  21.794  0.00  0.00    +0.295 HD
ENDBRANCH   5   7
ENDBRANCH   1   5
BRANCH   1   9
ATOM      9  C   UNL     1      10.034  -0.002  24.761  0.00  0.00    -0.005 C 
ATOM     10  C   UNL     1      11.037   0.832  24.456  0.00  0.00    +0.006 C 
ENDBRANCH   1   9
TORSDOF 4
ENDMDL
MODEL 8
REMARK VINA RESULT:      -3.1      2.276      2.536
REMARK  Name = 
REMARK  4 active torsions:
REMARK  status: ('A' for Active; 'I' for Inactive)
REMARK    1  A    between atoms: N_1  and  CA_2
REMARK    2  A    between atoms: CA_2  and  C_4
REMARK    3  A    between atoms: CA_2  and  C_6
REMARK    4  A    between atoms: C_6  and  O_7
REMARK                            x       y       z     vdW  Elec       q    Type
REMARK                         _______ _______ _______ _____ _____    ______ ____
ROOT
ATOM      1  CA  UNL     1      10.406   0.449  23.213  0.00  0.00    +0.184 C 
ENDROOT
BRANCH   1   2
ATOM      2  N   UNL     1      10.346   1.500  24.270  0.00  0.00    -0.315 NA
ATOM      3  H1  UNL     1       9.414   1.472  24.695  0.00  0.00    +0.119 HD
ATOM      4  H2  UNL     1      10.967   1.193  25.024  0.00  0.00    +0.119 HD
ENDBRANCH   1   2
BRANCH   1   5
ATOM      5  C   UNL     1       9.822   1.035  21.898  0.00  0.00    +0.326 C 
ATOM      6  OXT UNL     1       9.057   0.465  21.137  0.00  0.00    -0.249 OA
BRANCH   5   7
ATOM      7  O   UNL     1      10.291   2.294  21.675  0.00  0.00    -0.479 OA
ATOM      8  H   UNL     1       9.496   2.884  21.701  0.00  0.00    +0.295 HD
ENDBRANCH   5   7
ENDBRANCH   1   5
BRANCH   1   9
ATOM      9  C   UNL     1       9.630  -0.753  23.656  0.00  0.00    -0.005 C 
ATOM     10  C   UNL     1      10.008  -2.022  23.456  0.00  0.00    +0.006 C 
ENDBRANCH   1   9
TORSDOF 4
ENDMDL
MODEL 9
REMARK VINA RESULT:      -3.1      2.078      2.183
REMARK  Name = 
REMARK  4 active torsions:
REMARK  status: ('A' for Active; 'I' for Inactive)
REMARK    1  A    between atoms: N_1  and  CA_2
REMARK    2  A    between atoms: CA_2  and  C_4
REMARK    3  A    between atoms: CA_2  and  C_6
REMARK    4  A    between atoms: C_6  and  O_7
REMARK                            x       y       z     vdW  Elec       q    Type
REMARK                         _______ _______ _______ _____ _____    ______ ____
ROOT
ATOM      1  CA  UNL     1       9.233  -0.760  23.491  0.00  0.00    +0.184 C 
ENDROOT
BRANCH   1   2
ATOM      2  N   UNL     1       9.812  -2.074  23.894  0.00  0.00    -0.315 NA
ATOM      3  H1  UNL     1       9.139  -2.808  23.653  0.00  0.00    +0.119 HD
ATOM      4  H2  UNL     1      10.602  -2.251  23.267  0.00  0.00    +0.119 HD
ENDBRANCH   1   2
BRANCH   1   5
ATOM      5  C   UNL     1       9.600  -0.492  22.006  0.00  0.00    +0.326 C 
ATOM      6  OXT UNL     1       9.289   0.494  21.357  0.00  0.00    -0.249 OA
BRANCH   5   7
ATOM      7  O   UNL     1      10.317  -1.526  21.487  0.00  0.00    -0.479 OA
ATOM      8  H   UNL     1       9.819  -1.821  20.684  0.00  0.00    +0.295 HD
ENDBRANCH   5   7
ENDBRANCH   1   5
BRANCH   1   9
ATOM      9  C   UNL     1       9.773   0.319  24.381  0.00  0.00    -0.005 C 
ATOM     10  C   UNL     1      11.054   0.707  24.417  0.00  0.00    +0.006 C 
ENDBRANCH   1   9
TORSDOF 4
ENDMDL
