MODEL 1
REMARK VINA RESULT:      -7.0      0.000      0.000
REMARK  Name = 
REMARK  7 active torsions:
REMARK  status: ('A' for Active; 'I' for Inactive)
REMARK    1  A    between atoms: C_1  and  O_2
REMARK    2  A    between atoms: O_2  and  C_3
REMARK    3  A    between atoms: C_5  and  C_6
REMARK    4  A    between atoms: C_6  and  C_7
REMARK    5  A    between atoms: C_14  and  N_15
REMARK    6  A    between atoms: C_18  and  O_19
REMARK    7  A    between atoms: O_19  and  C_20
REMARK                            x       y       z     vdW  Elec       q    Type
REMARK                         _______ _______ _______ _____ _____    ______ ____
ROOT
ATOM      1  C   UNL     1       9.531  -2.895  24.260  0.00  0.00    +0.114 A 
ATOM      2  N   UNL     1       8.957  -1.863  24.968  0.00  0.00    -0.338 N 
ATOM      3  H   UNL     1       8.464  -1.947  25.845  0.00  0.00    +0.167 HD
ATOM      4  C   UNL     1       9.268  -0.698  24.325  0.00  0.00    +0.125 A 
ATOM      5  C   UNL     1       9.881  -1.094  23.153  0.00  0.00    +0.186 A 
ATOM      6  N   UNL     1      10.301  -0.237  22.214  0.00  0.00    -0.181 NA
ATOM      7  C   UNL     1      10.067   1.040  22.543  0.00  0.00    +0.313 A 
ATOM      8  N   UNL     1       9.509   1.516  23.680  0.00  0.00    -0.185 NA
ATOM      9  F   UNL     1      10.456   1.965  21.650  0.00  0.00    -0.161 F 
ATOM     10  C   UNL     1       9.101   0.640  24.605  0.00  0.00    +0.148 A 
ATOM     11  N   UNL     1      10.041  -2.453  23.125  0.00  0.00    -0.213 NA
ENDROOT
BRANCH  10  12
ATOM     12  N   UNL     1       8.581   1.119  25.798  0.00  0.00    -0.341 N 
ATOM     13  H   UNL     1       8.237   2.069  25.757  0.00  0.00    +0.144 HD
ATOM     14  H   UNL     1       7.905   0.452  26.162  0.00  0.00    +0.144 HD
ENDBRANCH  10  12
BRANCH   1  15
ATOM     15  C   UNL     1       9.586  -4.296  24.796  0.00  0.00    +0.113 C 
BRANCH  15  20
ATOM     16  C   UNL     1       6.782  -5.385  27.208  0.00  0.00    +0.121 A 
ATOM     17  C   UNL     1       5.777  -5.725  26.311  0.00  0.00    +0.049 A 
ATOM     18  C   UNL     1       6.012  -5.645  24.933  0.00  0.00    +0.049 A 
ATOM     19  C   UNL     1       7.246  -5.202  24.440  0.00  0.00    +0.124 A 
ATOM     20  C   UNL     1       8.271  -4.845  25.338  0.00  0.00    +0.005 A 
ATOM     21  C   UNL     1       8.027  -4.987  26.718  0.00  0.00    +0.053 A 
BRANCH  16  23
ATOM     22  C   UNL     1       6.126  -6.537  29.183  0.00  0.00    +0.277 C 
ATOM     23  O   UNL     1       6.682  -5.381  28.570  0.00  0.00    -0.495 OA
ENDBRANCH  16  23
BRANCH  19  24
ATOM     24  O   UNL     1       7.544  -5.073  23.107  0.00  0.00    -0.495 OA
ATOM     25  C   UNL     1       6.887  -5.955  22.203  0.00  0.00    +0.277 C 
ENDBRANCH  19  24
ENDBRANCH  15  20
ENDBRANCH   1  15
TORSDOF 5
ENDMDL
MODEL 2
REMARK VINA RESULT:      -6.9      3.901      7.529
REMARK  Name = 
REMARK  7 active torsions:
REMARK  status: ('A' for Active; 'I' for Inactive)
REMARK    1  A    between atoms: C_1  and  O_2
REMARK    2  A    between atoms: O_2  and  C_3
REMARK    3  A    between atoms: C_5  and  C_6
REMARK    4  A    between atoms: C_6  and  C_7
REMARK    5  A    between atoms: C_14  and  N_15
REMARK    6  A    between atoms: C_18  and  O_19
REMARK    7  A    between atoms: O_19  and  C_20
REMARK                            x       y       z     vdW  Elec       q    Type
REMARK                         _______ _______ _______ _____ _____    ______ ____
ROOT
ATOM      1  C   UNL     1       9.172  -1.030  22.415  0.00  0.00    +0.114 A 
ATOM      2  N   UNL     1       8.006  -1.747  22.256  0.00  0.00    -0.338 N 
ATOM      3  H   UNL     1       7.224  -1.483  21.674  0.00  0.00    +0.167 HD
ATOM      4  C   UNL     1       8.147  -2.921  22.938  0.00  0.00    +0.125 A 
ATOM      5  C   UNL     1       9.337  -2.790  23.626  0.00  0.00    +0.186 A 
ATOM      6  N   UNL     1       9.815  -3.725  24.458  0.00  0.00    -0.181 NA
ATOM      7  C   UNL     1       9.016  -4.796  24.540  0.00  0.00    +0.313 A 
ATOM      8  N   UNL     1       7.858  -5.022  23.876  0.00  0.00    -0.185 NA
ATOM      9  F   UNL     1       9.422  -5.780  25.359  0.00  0.00    -0.161 F 
ATOM     10  C   UNL     1       7.403  -4.075  23.048  0.00  0.00    +0.148 A 
ATOM     11  N   UNL     1       9.963  -1.620  23.293  0.00  0.00    -0.213 NA
ENDROOT
BRANCH  10  12
ATOM     12  N   UNL     1       6.249  -4.320  22.320  0.00  0.00    -0.341 N 
ATOM     13  H   UNL     1       6.275  -5.160  21.757  0.00  0.00    +0.144 HD
ATOM     14  H   UNL     1       5.443  -4.266  22.938  0.00  0.00    +0.144 HD
ENDBRANCH  10  12
BRANCH   1  15
ATOM     15  C   UNL     1       9.461   0.210  21.620  0.00  0.00    +0.113 C 
BRANCH  15  20
ATOM     16  C   UNL     1      10.712   3.445  23.305  0.00  0.00    +0.121 A 
ATOM     17  C   UNL     1       9.518   3.982  23.769  0.00  0.00    +0.049 A 
ATOM     18  C   UNL     1       8.317   3.287  23.578  0.00  0.00    +0.049 A 
ATOM     19  C   UNL     1       8.296   2.061  22.902  0.00  0.00    +0.124 A 
ATOM     20  C   UNL     1       9.499   1.508  22.418  0.00  0.00    +0.005 A 
ATOM     21  C   UNL     1      10.699   2.200  22.671  0.00  0.00    +0.053 A 
BRANCH  16  23
ATOM     22  C   UNL     1      11.988   5.435  23.568  0.00  0.00    +0.277 C 
ATOM     23  O   UNL     1      11.946   4.025  23.389  0.00  0.00    -0.495 OA
ENDBRANCH  16  23
BRANCH  19  24
ATOM     24  O   UNL     1       7.159   1.334  22.654  0.00  0.00    -0.495 OA
ATOM     25  C   UNL     1       6.303   1.066  23.760  0.00  0.00    +0.277 C 
ENDBRANCH  19  24
ENDBRANCH  15  20
ENDBRANCH   1  15
TORSDOF 5
ENDMDL
MODEL 3
REMARK VINA RESULT:      -6.7      1.063      3.090
REMARK  Name = 
REMARK  7 active torsions:
REMARK  status: ('A' for Active; 'I' for Inactive)
REMARK    1  A    between atoms: C_1  and  O_2
REMARK    2  A    between atoms: O_2  and  C_3
REMARK    3  A    between atoms: C_5  and  C_6
REMARK    4  A    between atoms: C_6  and  C_7
REMARK    5  A    between atoms: C_14  and  N_15
REMARK    6  A    between atoms: C_18  and  O_19
REMARK    7  A    between atoms: O_19  and  C_20
REMARK                            x       y       z     vdW  Elec       q    Type
REMARK                         _______ _______ _______ _____ _____    ______ ____
ROOT
ATOM      1  C   UNL     1       8.861  -2.904  24.439  0.00  0.00    +0.114 A 
ATOM      2  N   UNL     1       8.380  -1.804  25.114  0.00  0.00    -0.338 N 
ATOM      3  H   UNL     1       7.828  -1.821  25.959  0.00  0.00    +0.167 HD
ATOM      4  C   UNL     1       8.874  -0.691  24.494  0.00  0.00    +0.125 A 
ATOM      5  C   UNL     1       9.502  -1.167  23.360  0.00  0.00    +0.186 A 
ATOM      6  N   UNL     1      10.082  -0.375  22.450  0.00  0.00    -0.181 NA
ATOM      7  C   UNL     1       9.992   0.923  22.768  0.00  0.00    +0.313 A 
ATOM      8  N   UNL     1       9.432   1.472  23.871  0.00  0.00    -0.185 NA
ATOM      9  F   UNL     1      10.548   1.787  21.903  0.00  0.00    -0.161 F 
ATOM     10  C   UNL     1       8.861   0.659  24.767  0.00  0.00    +0.148 A 
ATOM     11  N   UNL     1       9.490  -2.536  23.338  0.00  0.00    -0.213 NA
ENDROOT
BRANCH  10  12
ATOM     12  N   UNL     1       8.334   1.205  25.927  0.00  0.00    -0.341 N 
ATOM     13  H   UNL     1       8.787   2.055  26.236  0.00  0.00    +0.144 HD
ATOM     14  H   UNL     1       7.325   1.288  25.833  0.00  0.00    +0.144 HD
ENDBRANCH  10  12
BRANCH   1  15
ATOM     15  C   UNL     1       8.706  -4.298  24.975  0.00  0.00    +0.113 C 
BRANCH  15  20
ATOM     16  C   UNL     1       5.562  -5.652  23.200  0.00  0.00    +0.121 A 
ATOM     17  C   UNL     1       4.923  -6.301  24.249  0.00  0.00    +0.049 A 
ATOM     18  C   UNL     1       5.479  -6.269  25.534  0.00  0.00    +0.049 A 
ATOM     19  C   UNL     1       6.690  -5.608  25.777  0.00  0.00    +0.124 A 
ATOM     20  C   UNL     1       7.354  -4.954  24.720  0.00  0.00    +0.005 A 
ATOM     21  C   UNL     1       6.746  -4.954  23.450  0.00  0.00    +0.053 A 
BRANCH  16  23
ATOM     22  C   UNL     1       6.170  -5.694  20.901  0.00  0.00    +0.277 C 
ATOM     23  O   UNL     1       5.156  -5.630  21.896  0.00  0.00    -0.495 OA
ENDBRANCH  16  23
BRANCH  19  24
ATOM     24  O   UNL     1       7.309  -5.554  27.000  0.00  0.00    -0.495 OA
ATOM     25  C   UNL     1       6.478  -5.598  28.155  0.00  0.00    +0.277 C 
ENDBRANCH  19  24
ENDBRANCH  15  20
ENDBRANCH   1  15
TORSDOF 5
ENDMDL
MODEL 4
REMARK VINA RESULT:      -6.7      1.384      3.595
REMARK  Name = 
REMARK  7 active torsions:
REMARK  status: ('A' for Active; 'I' for Inactive)
REMARK    1  A    between atoms: C_1  and  O_2
REMARK    2  A    between atoms: O_2  and  C_3
REMARK    3  A    between atoms: C_5  and  C_6
REMARK    4  A    between atoms: C_6  and  C_7
REMARK    5  A    between atoms: C_14  and  N_15
REMARK    6  A    between atoms: C_18  and  O_19
REMARK    7  A    between atoms: O_19  and  C_20
REMARK                            x       y       z     vdW  Elec       q    Type
REMARK                         _______ _______ _______ _____ _____    ______ ____
ROOT
ATOM      1  C   UNL     1       8.981  -3.267  25.077  0.00  0.00    +0.114 A 
ATOM      2  N   UNL     1       9.539  -2.844  23.891  0.00  0.00    -0.338 N 
ATOM      3  H   UNL     1       9.862  -3.440  23.142  0.00  0.00    +0.167 HD
ATOM      4  C   UNL     1       9.476  -1.480  23.868  0.00  0.00    +0.125 A 
ATOM      5  C   UNL     1       9.031  -1.125  25.125  0.00  0.00    +0.186 A 
ATOM      6  N   UNL     1       8.877   0.145  25.522  0.00  0.00    -0.181 NA
ATOM      7  C   UNL     1       9.194   1.024  24.564  0.00  0.00    +0.313 A 
ATOM      8  N   UNL     1       9.600   0.765  23.299  0.00  0.00    -0.185 NA
ATOM      9  F   UNL     1       9.070   2.323  24.884  0.00  0.00    -0.161 F 
ATOM     10  C   UNL     1       9.743  -0.512  22.925  0.00  0.00    +0.148 A 
ATOM     11  N   UNL     1       8.725  -2.237  25.863  0.00  0.00    -0.213 NA
ENDROOT
BRANCH  10  12
ATOM     12  N   UNL     1      10.102  -0.790  21.615  0.00  0.00    -0.341 N 
ATOM     13  H   UNL     1      10.935  -1.356  21.517  0.00  0.00    +0.144 HD
ATOM     14  H   UNL     1       9.296  -1.155  21.115  0.00  0.00    +0.144 HD
ENDBRANCH  10  12
BRANCH   1  15
ATOM     15  C   UNL     1       8.677  -4.712  25.345  0.00  0.00    +0.113 C 
BRANCH  15  20
ATOM     16  C   UNL     1       5.462  -5.546  23.386  0.00  0.00    +0.121 A 
ATOM     17  C   UNL     1       4.689  -6.131  24.381  0.00  0.00    +0.049 A 
ATOM     18  C   UNL     1       5.182  -6.220  25.689  0.00  0.00    +0.049 A 
ATOM     19  C   UNL     1       6.461  -5.747  26.009  0.00  0.00    +0.124 A 
ATOM     20  C   UNL     1       7.260  -5.160  25.008  0.00  0.00    +0.005 A 
ATOM     21  C   UNL     1       6.719  -5.033  23.713  0.00  0.00    +0.053 A 
BRANCH  16  23
ATOM     22  C   UNL     1       6.113  -5.789  21.111  0.00  0.00    +0.277 C 
ATOM     23  O   UNL     1       5.126  -5.425  22.068  0.00  0.00    -0.495 OA
ENDBRANCH  16  23
BRANCH  19  24
ATOM     24  O   UNL     1       7.022  -5.821  27.258  0.00  0.00    -0.495 OA
ATOM     25  C   UNL     1       6.138  -5.789  28.374  0.00  0.00    +0.277 C 
ENDBRANCH  19  24
ENDBRANCH  15  20
ENDBRANCH   1  15
TORSDOF 5
ENDMDL
MODEL 5
REMARK VINA RESULT:      -6.5      3.909      5.906
REMARK  Name = 
REMARK  7 active torsions:
REMARK  status: ('A' for Active; 'I' for Inactive)
REMARK    1  A    between atoms: C_1  and  O_2
REMARK    2  A    between atoms: O_2  and  C_3
REMARK    3  A    between atoms: C_5  and  C_6
REMARK    4  A    between atoms: C_6  and  C_7
REMARK    5  A    between atoms: C_14  and  N_15
REMARK    6  A    between atoms: C_18  and  O_19
REMARK    7  A    between atoms: O_19  and  C_20
REMARK                            x       y       z     vdW  Elec       q    Type
REMARK                         _______ _______ _______ _____ _____    ______ ____
ROOT
ATOM      1  C   UNL     1       8.130   1.631  21.945  0.00  0.00    +0.114 A 
ATOM      2  N   UNL     1       8.568   2.928  22.101  0.00  0.00    -0.338 N 
ATOM      3  H   UNL     1       9.521   3.247  22.010  0.00  0.00    +0.167 HD
ATOM      4  C   UNL     1       7.468   3.714  22.293  0.00  0.00    +0.125 A 
ATOM      5  C   UNL     1       6.416   2.828  22.414  0.00  0.00    +0.186 A 
ATOM      6  N   UNL     1       5.155   3.209  22.659  0.00  0.00    -0.181 NA
ATOM      7  C   UNL     1       5.032   4.537  22.765  0.00  0.00    +0.313 A 
ATOM      8  N   UNL     1       5.996   5.476  22.624  0.00  0.00    -0.185 NA
ATOM      9  F   UNL     1       3.796   5.001  23.014  0.00  0.00    -0.161 F 
ATOM     10  C   UNL     1       7.247   5.072  22.376  0.00  0.00    +0.148 A 
ATOM     11  N   UNL     1       6.836   1.544  22.194  0.00  0.00    -0.213 NA
ENDROOT
BRANCH  10  12
ATOM     12  N   UNL     1       8.232   6.026  22.173  0.00  0.00    -0.341 N 
ATOM     13  H   UNL     1       8.587   6.072  21.227  0.00  0.00    +0.144 HD
ATOM     14  H   UNL     1       7.913   6.921  22.535  0.00  0.00    +0.144 HD
ENDBRANCH  10  12
BRANCH   1  15
ATOM     15  C   UNL     1       9.044   0.531  21.492  0.00  0.00    +0.113 C 
BRANCH  15  20
ATOM     16  C   UNL     1       7.979  -2.968  22.716  0.00  0.00    +0.121 A 
ATOM     17  C   UNL     1       8.933  -3.208  23.697  0.00  0.00    +0.049 A 
ATOM     18  C   UNL     1       9.892  -2.232  23.994  0.00  0.00    +0.049 A 
ATOM     19  C   UNL     1       9.920  -1.017  23.299  0.00  0.00    +0.124 A 
ATOM     20  C   UNL     1       8.965  -0.763  22.295  0.00  0.00    +0.005 A 
ATOM     21  C   UNL     1       7.978  -1.738  22.053  0.00  0.00    +0.053 A 
BRANCH  16  23
ATOM     22  C   UNL     1       5.683  -3.338  22.215  0.00  0.00    +0.277 C 
ATOM     23  O   UNL     1       7.012  -3.837  22.298  0.00  0.00    -0.495 OA
ENDBRANCH  16  23
BRANCH  19  24
ATOM     24  O   UNL     1      10.841  -0.024  23.515  0.00  0.00    -0.495 OA
ATOM     25  C   UNL     1      10.755   0.690  24.744  0.00  0.00    +0.277 C 
ENDBRANCH  19  24
ENDBRANCH  15  20
ENDBRANCH   1  15
TORSDOF 5
ENDMDL
MODEL 6
REMARK VINA RESULT:      -6.5      1.804      2.739
REMARK  Name = 
REMARK  7 active torsions:
REMARK  status: ('A' for Active; 'I' for Inactive)
REMARK    1  A    between atoms: C_1  and  O_2
REMARK    2  A    between atoms: O_2  and  C_3
REMARK    3  A    between atoms: C_5  and  C_6
REMARK    4  A    between atoms: C_6  and  C_7
REMARK    5  A    between atoms: C_14  and  N_15
REMARK    6  A    between atoms: C_18  and  O_19
REMARK    7  A    between atoms: O_19  and  C_20
REMARK                            x       y       z     vdW  Elec       q    Type
REMARK                         _______ _______ _______ _____ _____    ______ ____
ROOT
ATOM      1  C   UNL     1       8.081  -2.940  23.004  0.00  0.00    +0.114 A 
ATOM      2  N   UNL     1       8.316  -2.209  24.147  0.00  0.00    -0.338 N 
ATOM      3  H   UNL     1       8.125  -2.510  25.092  0.00  0.00    +0.167 HD
ATOM      4  C   UNL     1       8.950  -1.057  23.779  0.00  0.00    +0.125 A 
ATOM      5  C   UNL     1       8.921  -1.064  22.398  0.00  0.00    +0.186 A 
ATOM      6  N   UNL     1       9.409  -0.069  21.645  0.00  0.00    -0.181 NA
ATOM      7  C   UNL     1       9.932   0.921  22.379  0.00  0.00    +0.313 A 
ATOM      8  N   UNL     1      10.035   0.991  23.727  0.00  0.00    -0.185 NA
ATOM      9  F   UNL     1      10.441   1.961  21.698  0.00  0.00    -0.161 F 
ATOM     10  C   UNL     1       9.543  -0.015  24.457  0.00  0.00    +0.148 A 
ATOM     11  N   UNL     1       8.385  -2.233  21.930  0.00  0.00    -0.213 NA
ENDROOT
BRANCH  10  12
ATOM     12  N   UNL     1       9.695   0.020  25.835  0.00  0.00    -0.341 N 
ATOM     13  H   UNL     1       8.992   0.559  26.323  0.00  0.00    +0.144 HD
ATOM     14  H   UNL     1       9.803  -0.928  26.186  0.00  0.00    +0.144 HD
ENDBRANCH  10  12
BRANCH   1  15
ATOM     15  C   UNL     1       7.604  -4.362  23.050  0.00  0.00    +0.113 C 
BRANCH  15  20
ATOM     16  C   UNL     1       4.375  -5.002  25.059  0.00  0.00    +0.121 A 
ATOM     17  C   UNL     1       4.898  -5.464  26.261  0.00  0.00    +0.049 A 
ATOM     18  C   UNL     1       6.284  -5.531  26.442  0.00  0.00    +0.049 A 
ATOM     19  C   UNL     1       7.162  -5.159  25.416  0.00  0.00    +0.124 A 
ATOM     20  C   UNL     1       6.646  -4.697  24.188  0.00  0.00    +0.005 A 
ATOM     21  C   UNL     1       5.249  -4.588  24.051  0.00  0.00    +0.053 A 
BRANCH  16  23
ATOM     22  C   UNL     1       2.694  -5.233  23.392  0.00  0.00    +0.277 C 
ATOM     23  O   UNL     1       3.052  -4.918  24.732  0.00  0.00    -0.495 OA
ENDBRANCH  16  23
BRANCH  19  24
ATOM     24  O   UNL     1       8.529  -5.220  25.507  0.00  0.00    -0.495 OA
ATOM     25  C   UNL     1       9.137  -4.576  26.622  0.00  0.00    +0.277 C 
ENDBRANCH  19  24
ENDBRANCH  15  20
ENDBRANCH   1  15
TORSDOF 5
ENDMDL
MODEL 7
REMARK VINA RESULT:      -6.5      4.257      7.952
REMARK  Name = 
REMARK  7 active torsions:
REMARK  status: ('A' for Active; 'I' for Inactive)
REMARK    1  A    between atoms: C_1  and  O_2
REMARK    2  A    between atoms: O_2  and  C_3
REMARK    3  A    between atoms: C_5  and  C_6
REMARK    4  A    between atoms: C_6  and  C_7
REMARK    5  A    between atoms: C_14  and  N_15
REMARK    6  A    between atoms: C_18  and  O_19
REMARK    7  A    between atoms: O_19  and  C_20
REMARK                            x       y       z     vdW  Elec       q    Type
REMARK                         _______ _______ _______ _____ _____    ______ ____
ROOT
ATOM      1  C   UNL     1       9.942   0.336  23.213  0.00  0.00    +0.114 A 
ATOM      2  N   UNL     1       9.694   0.491  24.560  0.00  0.00    -0.338 N 
ATOM      3  H   UNL     1       9.722   1.361  25.071  0.00  0.00    +0.167 HD
ATOM      4  C   UNL     1       9.301  -0.722  25.049  0.00  0.00    +0.125 A 
ATOM      5  C   UNL     1       9.490  -1.604  24.004  0.00  0.00    +0.186 A 
ATOM      6  N   UNL     1       9.259  -2.920  24.098  0.00  0.00    -0.181 NA
ATOM      7  C   UNL     1       8.818  -3.278  25.310  0.00  0.00    +0.313 A 
ATOM      8  N   UNL     1       8.570  -2.479  26.374  0.00  0.00    -0.185 NA
ATOM      9  F   UNL     1       8.566  -4.585  25.489  0.00  0.00    -0.161 F 
ATOM     10  C   UNL     1       8.805  -1.168  26.255  0.00  0.00    +0.148 A 
ATOM     11  N   UNL     1       9.884  -0.939  22.874  0.00  0.00    -0.213 NA
ENDROOT
BRANCH  10  12
ATOM     12  N   UNL     1       8.499  -0.333  27.319  0.00  0.00    -0.341 N 
ATOM     13  H   UNL     1       7.511  -0.163  27.451  0.00  0.00    +0.144 HD
ATOM     14  H   UNL     1       8.975  -0.664  28.154  0.00  0.00    +0.144 HD
ENDBRANCH  10  12
BRANCH   1  15
ATOM     15  C   UNL     1      10.178   1.508  22.306  0.00  0.00    +0.113 C 
BRANCH  15  20
ATOM     16  C   UNL     1      11.185   4.943  23.740  0.00  0.00    +0.121 A 
ATOM     17  C   UNL     1       9.942   5.470  24.066  0.00  0.00    +0.049 A 
ATOM     18  C   UNL     1       8.784   4.708  23.866  0.00  0.00    +0.049 A 
ATOM     19  C   UNL     1       8.857   3.422  23.315  0.00  0.00    +0.124 A 
ATOM     20  C   UNL     1      10.110   2.878  22.971  0.00  0.00    +0.005 A 
ATOM     21  C   UNL     1      11.263   3.644  23.234  0.00  0.00    +0.053 A 
BRANCH  16  23
ATOM     22  C   UNL     1      13.376   5.271  22.874  0.00  0.00    +0.277 C 
ATOM     23  O   UNL     1      12.387   5.582  23.848  0.00  0.00    -0.495 OA
ENDBRANCH  16  23
BRANCH  19  24
ATOM     24  O   UNL     1       7.768   2.625  23.066  0.00  0.00    -0.495 OA
ATOM     25  C   UNL     1       6.855   3.063  22.065  0.00  0.00    +0.277 C 
ENDBRANCH  19  24
ENDBRANCH  15  20
ENDBRANCH   1  15
TORSDOF 5
ENDMDL
MODEL 8
REMARK VINA RESULT:      -6.4      2.536      2.986
REMARK  Name = 
REMARK  7 active torsions:
REMARK  status: ('A' for Active; 'I' for Inactive)
REMARK    1  A    between atoms: C_1  and  O_2
REMARK    2  A    between atoms: O_2  and  C_3
REMARK    3  A    between atoms: C_5  and  C_6
REMARK    4  A    between atoms: C_6  and  C_7
REMARK    5  A    between atoms: C_14  and  N_15
REMARK    6  A    between atoms: C_18  and  O_19
REMARK    7  A    between atoms: O_19  and  C_20
REMARK                            x       y       z     vdW  Elec       q    Type
REMARK                         _______ _______ _______ _____ _____    ______ ____
ROOT
ATOM      1  C   UNL     1       9.391  -1.943  23.795  0.00  0.00    +0.114 A 
ATOM      2  N   UNL     1       9.095  -1.315  22.605  0.00  0.00    -0.338 N 
ATOM      3  H   UNL     1       8.569  -1.713  21.841  0.00  0.00    +0.167 HD
ATOM      4  C   UNL     1       9.548  -0.030  22.692  0.00  0.00    +0.125 A 
ATOM      5  C   UNL     1      10.254   0.017  23.878  0.00  0.00    +0.186 A 
ATOM      6  N   UNL     1      10.900   1.109  24.309  0.00  0.00    -0.181 NA
ATOM      7  C   UNL     1      10.776   2.143  23.469  0.00  0.00    +0.313 A 
ATOM      8  N   UNL     1      10.076   2.196  22.312  0.00  0.00    -0.185 NA
ATOM      9  F   UNL     1      11.399   3.278  23.828  0.00  0.00    -0.161 F 
ATOM     10  C   UNL     1       9.437   1.094  21.904  0.00  0.00    +0.148 A 
ATOM     11  N   UNL     1      10.148  -1.169  24.552  0.00  0.00    -0.213 NA
ENDROOT
BRANCH  10  12
ATOM     12  N   UNL     1       8.670   1.154  20.750  0.00  0.00    -0.341 N 
ATOM     13  H   UNL     1       7.740   1.531  20.880  0.00  0.00    +0.144 HD
ATOM     14  H   UNL     1       9.201   1.615  20.016  0.00  0.00    +0.144 HD
ENDBRANCH  10  12
BRANCH   1  15
ATOM     15  C   UNL     1       8.843  -3.296  24.141  0.00  0.00    +0.113 C 
BRANCH  15  20
ATOM     16  C   UNL     1       5.117  -2.568  24.816  0.00  0.00    +0.121 A 
ATOM     17  C   UNL     1       4.510  -3.545  24.037  0.00  0.00    +0.049 A 
ATOM     18  C   UNL     1       5.295  -4.463  23.328  0.00  0.00    +0.049 A 
ATOM     19  C   UNL     1       6.693  -4.398  23.373  0.00  0.00    +0.124 A 
ATOM     20  C   UNL     1       7.323  -3.407  24.152  0.00  0.00    +0.005 A 
ATOM     21  C   UNL     1       6.511  -2.531  24.899  0.00  0.00    +0.053 A 
BRANCH  16  23
ATOM     22  C   UNL     1       5.285  -0.535  26.039  0.00  0.00    +0.277 C 
ATOM     23  O   UNL     1       4.482  -1.591  25.528  0.00  0.00    -0.495 OA
ENDBRANCH  16  23
BRANCH  19  24
ATOM     24  O   UNL     1       7.529  -5.244  22.688  0.00  0.00    -0.495 OA
ATOM     25  C   UNL     1       6.923  -6.223  21.851  0.00  0.00    +0.277 C 
ENDBRANCH  19  24
ENDBRANCH  15  20
ENDBRANCH   1  15
TORSDOF 5
ENDMDL
MODEL 9
REMARK VINA RESULT:      -6.4      4.201      7.599
REMARK  Name = 
REMARK  7 active torsions:
REMARK  status: ('A' for Active; 'I' for Inactive)
REMARK    1  A    between atoms: C_1  and  O_2
REMARK    2  A    between atoms: O_2  and  C_3
REMARK    3  A    between atoms: C_5  and  C_6
REMARK    4  A    between atoms: C_6  and  C_7
REMARK    5  A    between atoms: C_14  and  N_15
REMARK    6  A    between atoms: C_18  and  O_19
REMARK    7  A    between atoms: O_19  and  C_20
REMARK                            x       y       z     vdW  Elec       q    Type
REMARK                         _______ _______ _______ _____ _____    ______ ____
ROOT
ATOM      1  C   UNL     1       9.447  -0.514  22.631  0.00  0.00    +0.114 A 
ATOM      2  N   UNL     1       8.268  -1.135  22.280  0.00  0.00    -0.338 N 
ATOM      3  H   UNL     1       7.559  -0.757  21.667  0.00  0.00    +0.167 HD
ATOM      4  C   UNL     1       8.283  -2.388  22.821  0.00  0.00    +0.125 A 
ATOM      5  C   UNL     1       9.406  -2.413  23.624  0.00  0.00    +0.186 A 
ATOM      6  N   UNL     1       9.754  -3.467  24.374  0.00  0.00    -0.181 NA
ATOM      7  C   UNL     1       8.899  -4.490  24.249  0.00  0.00    +0.313 A 
ATOM      8  N   UNL     1       7.801  -4.565  23.461  0.00  0.00    -0.185 NA
ATOM      9  F   UNL     1       9.176  -5.587  24.973  0.00  0.00    -0.161 F 
ATOM     10  C   UNL     1       7.476  -3.500  22.719  0.00  0.00    +0.148 A 
ATOM     11  N   UNL     1      10.119  -1.251  23.497  0.00  0.00    -0.213 NA
ENDROOT
BRANCH  10  12
ATOM     12  N   UNL     1       6.387  -3.586  21.865  0.00  0.00    -0.341 N 
ATOM     13  H   UNL     1       5.497  -3.711  22.329  0.00  0.00    +0.144 HD
ATOM     14  H   UNL     1       6.405  -2.804  21.216  0.00  0.00    +0.144 HD
ENDBRANCH  10  12
BRANCH   1  15
ATOM     15  C   UNL     1       9.872   0.791  22.026  0.00  0.00    +0.113 C 
BRANCH  15  20
ATOM     16  C   UNL     1       6.875   3.172  22.495  0.00  0.00    +0.121 A 
ATOM     17  C   UNL     1       7.452   4.178  23.259  0.00  0.00    +0.049 A 
ATOM     18  C   UNL     1       8.812   4.114  23.589  0.00  0.00    +0.049 A 
ATOM     19  C   UNL     1       9.601   3.033  23.178  0.00  0.00    +0.124 A 
ATOM     20  C   UNL     1       9.027   2.000  22.410  0.00  0.00    +0.005 A 
ATOM     21  C   UNL     1       7.671   2.116  22.045  0.00  0.00    +0.053 A 
BRANCH  16  23
ATOM     22  C   UNL     1       4.673   4.055  22.674  0.00  0.00    +0.277 C 
ATOM     23  O   UNL     1       5.562   3.086  22.131  0.00  0.00    -0.495 OA
ENDBRANCH  16  23
BRANCH  19  24
ATOM     24  O   UNL     1      10.930   2.887  23.481  0.00  0.00    -0.495 OA
ATOM     25  C   UNL     1      11.766   4.027  23.317  0.00  0.00    +0.277 C 
ENDBRANCH  19  24
ENDBRANCH  15  20
ENDBRANCH   1  15
TORSDOF 5
ENDMDL
