MODEL 1
REMARK VINA RESULT:      -6.9      0.000      0.000
REMARK  Name = 
REMARK  4 active torsions:
REMARK  status: ('A' for Active; 'I' for Inactive)
REMARK    1  A    between atoms: C_1  and  S_2
REMARK    2  A    between atoms: S_2  and  C_5
REMARK    3  A    between atoms: C_8  and  C_11
REMARK    4  A    between atoms: C_12  and  C_17
REMARK                            x       y       z     vdW  Elec       q    Type
REMARK                         _______ _______ _______ _____ _____    ______ ____
ROOT
ATOM      1  C   UNL     1      10.492   3.591  23.489  0.00  0.00    +0.011 C 
ATOM      2  C   UNL     1      11.853   4.142  23.321  0.00  0.00    +0.269 C 
ATOM      3  O   UNL     1      11.698   5.535  23.556  0.00  0.00    -0.456 OA
ATOM      4  C   UNL     1      10.378   5.814  23.768  0.00  0.00    +0.340 C 
ATOM      5  O   UNL     1       9.946   6.930  23.992  0.00  0.00    -0.245 OA
ATOM      6  C   UNL     1       9.590   4.559  23.711  0.00  0.00    +0.073 C 
ENDROOT
BRANCH   1  10
ATOM      7  C   UNL     1       9.688  -0.581  23.333  0.00  0.00    +0.088 A 
ATOM      8  C   UNL     1      10.046   0.020  24.542  0.00  0.00    +0.027 A 
ATOM      9  C   UNL     1      10.361   1.378  24.565  0.00  0.00    +0.010 A 
ATOM     10  C   UNL     1      10.284   2.149  23.394  0.00  0.00    -0.018 A 
ATOM     11  C   UNL     1       9.937   1.533  22.185  0.00  0.00    +0.010 A 
ATOM     12  C   UNL     1       9.639   0.166  22.152  0.00  0.00    +0.027 A 
BRANCH   7  14
ATOM     13  C   UNL     1       7.976  -2.362  24.628  0.00  0.00    +0.200 C 
ATOM     14  S   UNL     1       9.184  -2.287  23.336  0.00  0.00    -0.006 S 
ATOM     15  O   UNL     1       8.518  -2.540  22.075  0.00  0.00    -0.170 OA
ATOM     16  O   UNL     1      10.330  -3.077  23.747  0.00  0.00    -0.170 OA
ENDBRANCH   7  14
ENDBRANCH   1  10
BRANCH   6  17
ATOM     17  C   UNL     1       8.122   4.473  23.793  0.00  0.00    -0.011 A 
ATOM     18  C   UNL     1       7.355   4.440  22.618  0.00  0.00    +0.009 A 
ATOM     19  C   UNL     1       5.976   4.208  22.660  0.00  0.00    +0.001 A 
ATOM     20  C   UNL     1       5.338   4.013  23.882  0.00  0.00    +0.000 A 
ATOM     21  C   UNL     1       6.069   4.105  25.061  0.00  0.00    +0.001 A 
ATOM     22  C   UNL     1       7.443   4.352  25.015  0.00  0.00    +0.009 A 
ENDBRANCH   6  17
TORSDOF 3
ENDMDL
MODEL 2
REMARK VINA RESULT:      -6.6      3.119      8.142
REMARK  Name = 
REMARK  4 active torsions:
REMARK  status: ('A' for Active; 'I' for Inactive)
REMARK    1  A    between atoms: C_1  and  S_2
REMARK    2  A    between atoms: S_2  and  C_5
REMARK    3  A    between atoms: C_8  and  C_11
REMARK    4  A    between atoms: C_12  and  C_17
REMARK                            x       y       z     vdW  Elec       q    Type
REMARK                         _______ _______ _______ _____ _____    ______ ____
ROOT
ATOM      1  C   UNL     1       6.829  -3.304  22.425  0.00  0.00    +0.011 C 
ATOM      2  C   UNL     1       5.992  -3.475  21.219  0.00  0.00    +0.269 C 
ATOM      3  O   UNL     1       5.318  -4.707  21.433  0.00  0.00    -0.456 OA
ATOM      4  C   UNL     1       5.751  -5.263  22.603  0.00  0.00    +0.340 C 
ATOM      5  O   UNL     1       5.349  -6.325  23.041  0.00  0.00    -0.245 OA
ATOM      6  C   UNL     1       6.742  -4.364  23.243  0.00  0.00    +0.073 C 
ENDROOT
BRANCH   1  10
ATOM      7  C   UNL     1       9.155   0.186  23.119  0.00  0.00    +0.088 A 
ATOM      8  C   UNL     1       7.890   0.060  23.697  0.00  0.00    +0.027 A 
ATOM      9  C   UNL     1       7.117  -1.065  23.414  0.00  0.00    +0.010 A 
ATOM     10  C   UNL     1       7.615  -2.084  22.587  0.00  0.00    -0.018 A 
ATOM     11  C   UNL     1       8.880  -1.940  22.002  0.00  0.00    +0.010 A 
ATOM     12  C   UNL     1       9.653  -0.803  22.266  0.00  0.00    +0.027 A 
BRANCH   7  14
ATOM     13  C   UNL     1       9.073   2.620  24.480  0.00  0.00    +0.200 C 
ATOM     14  S   UNL     1      10.175   1.573  23.572  0.00  0.00    -0.006 S 
ATOM     15  O   UNL     1      11.188   1.080  24.484  0.00  0.00    -0.170 OA
ATOM     16  O   UNL     1      10.542   2.259  22.349  0.00  0.00    -0.170 OA
ENDBRANCH   7  14
ENDBRANCH   1  10
BRANCH   6  17
ATOM     17  C   UNL     1       7.503  -4.672  24.465  0.00  0.00    -0.011 A 
ATOM     18  C   UNL     1       8.872  -4.969  24.382  0.00  0.00    +0.009 A 
ATOM     19  C   UNL     1       9.651  -5.116  25.534  0.00  0.00    +0.001 A 
ATOM     20  C   UNL     1       9.072  -4.977  26.792  0.00  0.00    +0.000 A 
ATOM     21  C   UNL     1       7.705  -4.746  26.897  0.00  0.00    +0.001 A 
ATOM     22  C   UNL     1       6.927  -4.615  25.744  0.00  0.00    +0.009 A 
ENDBRANCH   6  17
TORSDOF 3
ENDMDL
MODEL 3
REMARK VINA RESULT:      -6.3      5.360      7.933
REMARK  Name = 
REMARK  4 active torsions:
REMARK  status: ('A' for Active; 'I' for Inactive)
REMARK    1  A    between atoms: C_1  and  S_2
REMARK    2  A    between atoms: S_2  and  C_5
REMARK    3  A    between atoms: C_8  and  C_11
REMARK    4  A    between atoms: C_12  and  C_17
REMARK                            x       y       z     vdW  Elec       q    Type
REMARK                         _______ _______ _______ _____ _____    ______ ____
ROOT
ATOM      1  C   UNL     1       8.335  -2.611  24.763  0.00  0.00    +0.011 C 
ATOM      2  C   UNL     1       9.244  -1.495  25.095  0.00  0.00    +0.269 C 
ATOM      3  O   UNL     1       9.547  -0.903  23.839  0.00  0.00    -0.456 OA
ATOM      4  C   UNL     1       8.949  -1.623  22.845  0.00  0.00    +0.340 C 
ATOM      5  O   UNL     1       9.036  -1.351  21.662  0.00  0.00    -0.245 OA
ATOM      6  C   UNL     1       8.175  -2.741  23.437  0.00  0.00    +0.073 C 
ENDROOT
BRANCH   1  10
ATOM      7  C   UNL     1       6.467  -4.994  27.747  0.00  0.00    +0.088 A 
ATOM      8  C   UNL     1       5.864  -3.810  27.315  0.00  0.00    +0.027 A 
ATOM      9  C   UNL     1       6.517  -3.012  26.377  0.00  0.00    +0.010 A 
ATOM     10  C   UNL     1       7.752  -3.408  25.838  0.00  0.00    -0.018 A 
ATOM     11  C   UNL     1       8.353  -4.590  26.288  0.00  0.00    +0.010 A 
ATOM     12  C   UNL     1       7.711  -5.386  27.245  0.00  0.00    +0.027 A 
BRANCH   7  14
ATOM     13  C   UNL     1       3.900  -5.505  28.712  0.00  0.00    +0.200 C 
ATOM     14  S   UNL     1       5.575  -6.057  28.861  0.00  0.00    -0.006 S 
ATOM     15  O   UNL     1       5.660  -7.403  28.331  0.00  0.00    -0.170 OA
ATOM     16  O   UNL     1       6.030  -5.754  30.205  0.00  0.00    -0.170 OA
ENDBRANCH   7  14
ENDBRANCH   1  10
BRANCH   6  17
ATOM     17  C   UNL     1       7.479  -3.790  22.673  0.00  0.00    -0.011 A 
ATOM     18  C   UNL     1       7.872  -5.130  22.806  0.00  0.00    +0.009 A 
ATOM     19  C   UNL     1       7.136  -6.162  22.213  0.00  0.00    +0.001 A 
ATOM     20  C   UNL     1       5.997  -5.869  21.469  0.00  0.00    +0.000 A 
ATOM     21  C   UNL     1       5.626  -4.543  21.273  0.00  0.00    +0.001 A 
ATOM     22  C   UNL     1       6.373  -3.515  21.854  0.00  0.00    +0.009 A 
ENDBRANCH   6  17
TORSDOF 3
ENDMDL
MODEL 4
REMARK VINA RESULT:      -6.2      3.575      8.335
REMARK  Name = 
REMARK  4 active torsions:
REMARK  status: ('A' for Active; 'I' for Inactive)
REMARK    1  A    between atoms: C_1  and  S_2
REMARK    2  A    between atoms: S_2  and  C_5
REMARK    3  A    between atoms: C_8  and  C_11
REMARK    4  A    between atoms: C_12  and  C_17
REMARK                            x       y       z     vdW  Elec       q    Type
REMARK                         _______ _______ _______ _____ _____    ______ ____
ROOT
ATOM      1  C   UNL     1       7.032  -4.278  23.081  0.00  0.00    +0.011 C 
ATOM      2  C   UNL     1       7.064  -5.002  21.793  0.00  0.00    +0.269 C 
ATOM      3  O   UNL     1       6.148  -6.073  21.971  0.00  0.00    -0.456 OA
ATOM      4  C   UNL     1       5.668  -6.049  23.249  0.00  0.00    +0.340 C 
ATOM      5  O   UNL     1       4.865  -6.852  23.689  0.00  0.00    -0.245 OA
ATOM      6  C   UNL     1       6.249  -4.897  23.978  0.00  0.00    +0.073 C 
ENDROOT
BRANCH   1  10
ATOM      7  C   UNL     1       9.141  -0.637  23.691  0.00  0.00    +0.088 A 
ATOM      8  C   UNL     1       7.896  -0.629  23.058  0.00  0.00    +0.027 A 
ATOM      9  C   UNL     1       7.244  -1.837  22.815  0.00  0.00    +0.010 A 
ATOM     10  C   UNL     1       7.810  -3.051  23.236  0.00  0.00    -0.018 A 
ATOM     11  C   UNL     1       9.065  -3.048  23.858  0.00  0.00    +0.010 A 
ATOM     12  C   UNL     1       9.734  -1.840  24.086  0.00  0.00    +0.027 A 
BRANCH   7  14
ATOM     13  C   UNL     1      10.067   1.721  22.524  0.00  0.00    +0.200 C 
ATOM     14  S   UNL     1       9.913   0.915  24.092  0.00  0.00    -0.006 S 
ATOM     15  O   UNL     1       8.973   1.667  24.899  0.00  0.00    -0.170 OA
ATOM     16  O   UNL     1      11.248   0.623  24.580  0.00  0.00    -0.170 OA
ENDBRANCH   7  14
ENDBRANCH   1  10
BRANCH   6  17
ATOM     17  C   UNL     1       6.045  -4.603  25.406  0.00  0.00    -0.011 A 
ATOM     18  C   UNL     1       5.127  -3.617  25.795  0.00  0.00    +0.009 A 
ATOM     19  C   UNL     1       4.801  -3.421  27.141  0.00  0.00    +0.001 A 
ATOM     20  C   UNL     1       5.396  -4.205  28.124  0.00  0.00    +0.000 A 
ATOM     21  C   UNL     1       6.356  -5.146  27.766  0.00  0.00    +0.001 A 
ATOM     22  C   UNL     1       6.690  -5.327  26.422  0.00  0.00    +0.009 A 
ENDBRANCH   6  17
TORSDOF 3
ENDMDL
MODEL 5
REMARK VINA RESULT:      -6.2      3.135      4.698
REMARK  Name = 
REMARK  4 active torsions:
REMARK  status: ('A' for Active; 'I' for Inactive)
REMARK    1  A    between atoms: C_1  and  S_2
REMARK    2  A    between atoms: S_2  and  C_5
REMARK    3  A    between atoms: C_8  and  C_11
REMARK    4  A    between atoms: C_12  and  C_17
REMARK                            x       y       z     vdW  Elec       q    Type
REMARK                         _______ _______ _______ _____ _____    ______ ____
ROOT
ATOM      1  C   UNL     1       8.807  -0.067  22.750  0.00  0.00    +0.011 C 
ATOM      2  C   UNL     1       9.413   0.443  21.502  0.00  0.00    +0.269 C 
ATOM      3  O   UNL     1      10.159   1.580  21.914  0.00  0.00    -0.456 OA
ATOM      4  C   UNL     1       9.969   1.786  23.250  0.00  0.00    +0.340 C 
ATOM      5  O   UNL     1      10.483   2.693  23.879  0.00  0.00    -0.245 OA
ATOM      6  C   UNL     1       9.081   0.730  23.794  0.00  0.00    +0.073 C 
ENDROOT
BRANCH   1  10
ATOM      7  C   UNL     1       6.579  -3.685  22.876  0.00  0.00    +0.088 A 
ATOM      8  C   UNL     1       7.975  -3.720  22.886  0.00  0.00    +0.027 A 
ATOM      9  C   UNL     1       8.691  -2.528  22.788  0.00  0.00    +0.010 A 
ATOM     10  C   UNL     1       8.021  -1.296  22.717  0.00  0.00    -0.018 A 
ATOM     11  C   UNL     1       6.620  -1.275  22.694  0.00  0.00    +0.010 A 
ATOM     12  C   UNL     1       5.896  -2.470  22.772  0.00  0.00    +0.027 A 
BRANCH   7  14
ATOM     13  C   UNL     1       6.469  -6.332  22.002  0.00  0.00    +0.200 C 
ATOM     14  S   UNL     1       5.678  -5.202  23.111  0.00  0.00    -0.006 S 
ATOM     15  O   UNL     1       5.931  -5.645  24.467  0.00  0.00    -0.170 OA
ATOM     16  O   UNL     1       4.325  -4.980  22.638  0.00  0.00    -0.170 OA
ENDBRANCH   7  14
ENDBRANCH   1  10
BRANCH   6  17
ATOM     17  C   UNL     1       8.570   0.678  25.174  0.00  0.00    -0.011 A 
ATOM     18  C   UNL     1       7.665   1.651  25.623  0.00  0.00    +0.009 A 
ATOM     19  C   UNL     1       7.048   1.543  26.874  0.00  0.00    +0.001 A 
ATOM     20  C   UNL     1       7.332   0.461  27.702  0.00  0.00    +0.000 A 
ATOM     21  C   UNL     1       8.274  -0.481  27.303  0.00  0.00    +0.001 A 
ATOM     22  C   UNL     1       8.899  -0.361  26.059  0.00  0.00    +0.009 A 
ENDBRANCH   6  17
TORSDOF 3
ENDMDL
MODEL 6
REMARK VINA RESULT:      -6.0      1.221      1.727
REMARK  Name = 
REMARK  4 active torsions:
REMARK  status: ('A' for Active; 'I' for Inactive)
REMARK    1  A    between atoms: C_1  and  S_2
REMARK    2  A    between atoms: S_2  and  C_5
REMARK    3  A    between atoms: C_8  and  C_11
REMARK    4  A    between atoms: C_12  and  C_17
REMARK                            x       y       z     vdW  Elec       q    Type
REMARK                         _______ _______ _______ _____ _____    ______ ____
ROOT
ATOM      1  C   UNL     1       9.916   2.472  23.746  0.00  0.00    +0.011 C 
ATOM      2  C   UNL     1      11.250   3.088  23.596  0.00  0.00    +0.269 C 
ATOM      3  O   UNL     1      10.992   4.486  23.591  0.00  0.00    -0.456 OA
ATOM      4  C   UNL     1       9.644   4.697  23.656  0.00  0.00    +0.340 C 
ATOM      5  O   UNL     1       9.128   5.799  23.666  0.00  0.00    -0.245 OA
ATOM      6  C   UNL     1       8.941   3.394  23.741  0.00  0.00    +0.073 C 
ENDROOT
BRANCH   1  10
ATOM      7  C   UNL     1       9.360  -1.725  24.137  0.00  0.00    +0.088 A 
ATOM      8  C   UNL     1       9.237  -0.894  25.253  0.00  0.00    +0.027 A 
ATOM      9  C   UNL     1       9.478   0.473  25.119  0.00  0.00    +0.010 A 
ATOM     10  C   UNL     1       9.804   1.021  23.868  0.00  0.00    -0.018 A 
ATOM     11  C   UNL     1       9.937   0.176  22.759  0.00  0.00    +0.010 A 
ATOM     12  C   UNL     1       9.717  -1.200  22.891  0.00  0.00    +0.027 A 
BRANCH   7  14
ATOM     13  C   UNL     1       8.034  -3.517  25.812  0.00  0.00    +0.200 C 
ATOM     14  S   UNL     1       8.946  -3.448  24.297  0.00  0.00    -0.006 S 
ATOM     15  O   UNL     1       8.047  -3.776  23.210  0.00  0.00    -0.170 OA
ATOM     16  O   UNL     1      10.186  -4.176  24.486  0.00  0.00    -0.170 OA
ENDBRANCH   7  14
ENDBRANCH   1  10
BRANCH   6  17
ATOM     17  C   UNL     1       7.480   3.215  23.725  0.00  0.00    -0.011 A 
ATOM     18  C   UNL     1       6.756   3.250  24.926  0.00  0.00    +0.009 A 
ATOM     19  C   UNL     1       5.357   3.235  24.929  0.00  0.00    +0.001 A 
ATOM     20  C   UNL     1       4.657   3.175  23.727  0.00  0.00    +0.000 A 
ATOM     21  C   UNL     1       5.356   3.075  22.529  0.00  0.00    +0.001 A 
ATOM     22  C   UNL     1       6.753   3.076  22.532  0.00  0.00    +0.009 A 
ENDBRANCH   6  17
TORSDOF 3
ENDMDL
MODEL 7
REMARK VINA RESULT:      -6.0      2.578      6.379
REMARK  Name = 
REMARK  4 active torsions:
REMARK  status: ('A' for Active; 'I' for Inactive)
REMARK    1  A    between atoms: C_1  and  S_2
REMARK    2  A    between atoms: S_2  and  C_5
REMARK    3  A    between atoms: C_8  and  C_11
REMARK    4  A    between atoms: C_12  and  C_17
REMARK                            x       y       z     vdW  Elec       q    Type
REMARK                         _______ _______ _______ _____ _____    ______ ____
ROOT
ATOM      1  C   UNL     1       9.574  -0.293  23.235  0.00  0.00    +0.011 C 
ATOM      2  C   UNL     1      10.586  -0.897  22.343  0.00  0.00    +0.269 C 
ATOM      3  O   UNL     1      10.539  -2.284  22.649  0.00  0.00    -0.456 OA
ATOM      4  C   UNL     1       9.651  -2.492  23.666  0.00  0.00    +0.340 C 
ATOM      5  O   UNL     1       9.406  -3.586  24.141  0.00  0.00    -0.245 OA
ATOM      6  C   UNL     1       9.034  -1.203  24.060  0.00  0.00    +0.073 C 
ENDROOT
BRANCH   1  10
ATOM      7  C   UNL     1       8.539   3.826  23.036  0.00  0.00    +0.088 A 
ATOM      8  C   UNL     1       7.938   2.909  22.172  0.00  0.00    +0.027 A 
ATOM      9  C   UNL     1       8.329   1.572  22.211  0.00  0.00    +0.010 A 
ATOM     10  C   UNL     1       9.291   1.136  23.137  0.00  0.00    -0.018 A 
ATOM     11  C   UNL     1       9.897   2.067  23.990  0.00  0.00    +0.010 A 
ATOM     12  C   UNL     1       9.523   3.415  23.941  0.00  0.00    +0.027 A 
BRANCH   7  14
ATOM     13  C   UNL     1       6.797   5.533  24.390  0.00  0.00    +0.200 C 
ATOM     14  S   UNL     1       7.955   5.507  23.051  0.00  0.00    -0.006 S 
ATOM     15  O   UNL     1       9.079   6.349  23.406  0.00  0.00    -0.170 OA
ATOM     16  O   UNL     1       7.221   5.721  21.818  0.00  0.00    -0.170 OA
ENDBRANCH   7  14
ENDBRANCH   1  10
BRANCH   6  17
ATOM     17  C   UNL     1       8.105  -1.014  25.187  0.00  0.00    -0.011 A 
ATOM     18  C   UNL     1       8.587  -0.557  26.422  0.00  0.00    +0.009 A 
ATOM     19  C   UNL     1       7.711  -0.225  27.462  0.00  0.00    +0.001 A 
ATOM     20  C   UNL     1       6.337  -0.354  27.286  0.00  0.00    +0.000 A 
ATOM     21  C   UNL     1       5.842  -0.866  26.091  0.00  0.00    +0.001 A 
ATOM     22  C   UNL     1       6.721  -1.210  25.061  0.00  0.00    +0.009 A 
ENDBRANCH   6  17
TORSDOF 3
ENDMDL
MODEL 8
REMARK VINA RESULT:      -5.9      2.857      4.682
REMARK  Name = 
REMARK  4 active torsions:
REMARK  status: ('A' for Active; 'I' for Inactive)
REMARK    1  A    between atoms: C_1  and  S_2
REMARK    2  A    between atoms: S_2  and  C_5
REMARK    3  A    between atoms: C_8  and  C_11
REMARK    4  A    between atoms: C_12  and  C_17
REMARK                            x       y       z     vdW  Elec       q    Type
REMARK                         _______ _______ _______ _____ _____    ______ ____
ROOT
ATOM      1  C   UNL     1       7.354   0.947  26.446  0.00  0.00    +0.011 C 
ATOM      2  C   UNL     1       6.841   1.474  27.728  0.00  0.00    +0.269 C 
ATOM      3  O   UNL     1       6.850   2.885  27.555  0.00  0.00    -0.456 OA
ATOM      4  C   UNL     1       7.379   3.187  26.333  0.00  0.00    +0.340 C 
ATOM      5  O   UNL     1       7.514   4.322  25.912  0.00  0.00    -0.245 OA
ATOM      6  C   UNL     1       7.722   1.935  25.616  0.00  0.00    +0.073 C 
ENDROOT
BRANCH   1  10
ATOM      7  C   UNL     1       7.551  -3.214  25.600  0.00  0.00    +0.088 A 
ATOM      8  C   UNL     1       6.449  -2.465  25.183  0.00  0.00    +0.027 A 
ATOM      9  C   UNL     1       6.373  -1.114  25.518  0.00  0.00    +0.010 A 
ATOM     10  C   UNL     1       7.411  -0.496  26.234  0.00  0.00    -0.018 A 
ATOM     11  C   UNL     1       8.505  -1.261  26.658  0.00  0.00    +0.010 A 
ATOM     12  C   UNL     1       8.577  -2.623  26.343  0.00  0.00    +0.027 A 
BRANCH   7  14
ATOM     13  C   UNL     1       6.173  -5.199  24.206  0.00  0.00    +0.200 C 
ATOM     14  S   UNL     1       7.688  -4.909  25.075  0.00  0.00    -0.006 S 
ATOM     15  O   UNL     1       8.778  -4.977  24.124  0.00  0.00    -0.170 OA
ATOM     16  O   UNL     1       7.686  -5.734  26.269  0.00  0.00    -0.170 OA
ENDBRANCH   7  14
ENDBRANCH   1  10
BRANCH   6  17
ATOM     17  C   UNL     1       8.406   1.862  24.314  0.00  0.00    -0.011 A 
ATOM     18  C   UNL     1       9.803   1.751  24.262  0.00  0.00    +0.009 A 
ATOM     19  C   UNL     1      10.467   1.528  23.050  0.00  0.00    +0.001 A 
ATOM     20  C   UNL     1       9.742   1.421  21.867  0.00  0.00    +0.000 A 
ATOM     21  C   UNL     1       8.362   1.591  21.888  0.00  0.00    +0.001 A 
ATOM     22  C   UNL     1       7.705   1.829  23.098  0.00  0.00    +0.009 A 
ENDBRANCH   6  17
TORSDOF 3
ENDMDL
MODEL 9
REMARK VINA RESULT:      -5.9      3.346      4.988
REMARK  Name = 
REMARK  4 active torsions:
REMARK  status: ('A' for Active; 'I' for Inactive)
REMARK    1  A    between atoms: C_1  and  S_2
REMARK    2  A    between atoms: S_2  and  C_5
REMARK    3  A    between atoms: C_8  and  C_11
REMARK    4  A    between atoms: C_12  and  C_17
REMARK                            x       y       z     vdW  Elec       q    Type
REMARK                         _______ _______ _______ _____ _____    ______ ____
ROOT
ATOM      1  C   UNL     1       8.722  -1.313  23.168  0.00  0.00    +0.011 C 
ATOM      2  C   UNL     1       9.526  -1.635  21.970  0.00  0.00    +0.269 C 
ATOM      3  O   UNL     1       9.845  -0.368  21.412  0.00  0.00    -0.456 OA
ATOM      4  C   UNL     1       9.241   0.614  22.143  0.00  0.00    +0.340 C 
ATOM      5  O   UNL     1       9.335   1.802  21.895  0.00  0.00    -0.245 OA
ATOM      6  C   UNL     1       8.499   0.006  23.274  0.00  0.00    +0.073 C 
ENDROOT
BRANCH   1  10
ATOM      7  C   UNL     1       7.267  -4.306  25.813  0.00  0.00    +0.088 A 
ATOM      8  C   UNL     1       7.962  -3.204  26.315  0.00  0.00    +0.027 A 
ATOM      9  C   UNL     1       8.481  -2.260  25.429  0.00  0.00    +0.010 A 
ATOM     10  C   UNL     1       8.278  -2.390  24.046  0.00  0.00    -0.018 A 
ATOM     11  C   UNL     1       7.590  -3.507  23.554  0.00  0.00    +0.010 A 
ATOM     12  C   UNL     1       7.084  -4.468  24.436  0.00  0.00    +0.027 A 
BRANCH   7  14
ATOM     13  C   UNL     1       5.407  -4.428  27.888  0.00  0.00    +0.200 C 
ATOM     14  S   UNL     1       6.517  -5.445  26.956  0.00  0.00    -0.006 S 
ATOM     15  O   UNL     1       5.731  -6.380  26.177  0.00  0.00    -0.170 OA
ATOM     16  O   UNL     1       7.559  -5.910  27.851  0.00  0.00    -0.170 OA
ENDBRANCH   7  14
ENDBRANCH   1  10
BRANCH   6  17
ATOM     17  C   UNL     1       7.642   0.740  24.220  0.00  0.00    -0.011 A 
ATOM     18  C   UNL     1       8.222   1.535  25.219  0.00  0.00    +0.009 A 
ATOM     19  C   UNL     1       7.439   2.360  26.034  0.00  0.00    +0.001 A 
ATOM     20  C   UNL     1       6.058   2.396  25.867  0.00  0.00    +0.000 A 
ATOM     21  C   UNL     1       5.456   1.569  24.926  0.00  0.00    +0.001 A 
ATOM     22  C   UNL     1       6.241   0.735  24.125  0.00  0.00    +0.009 A 
ENDBRANCH   6  17
TORSDOF 3
ENDMDL
