MODEL 1
REMARK VINA RESULT:      -6.7      0.000      0.000
REMARK  Name = 
REMARK  5 active torsions:
REMARK  status: ('A' for Active; 'I' for Inactive)
REMARK    1  A    between atoms: O_1  and  C_2
REMARK    2  A    between atoms: C_2  and  C_3
REMARK    3  A    between atoms: C_3  and  O_4
REMARK    4  A    between atoms: O_4  and  C_5
REMARK    5  A    between atoms: C_6  and  C_11
REMARK                            x       y       z     vdW  Elec       q    Type
REMARK                         _______ _______ _______ _____ _____    ______ ____
ROOT
ATOM      1  C   UNL     1       9.970   4.634  24.110  0.00  0.00    +0.128 A 
ATOM      2  C   UNL     1       9.519   5.848  24.659  0.00  0.00    +0.046 A 
ATOM      3  C   UNL     1       8.305   5.928  25.337  0.00  0.00    +0.004 A 
ATOM      4  C   UNL     1       7.530   4.791  25.490  0.00  0.00    +0.001 A 
ATOM      5  C   UNL     1       7.976   3.575  24.972  0.00  0.00    +0.012 A 
ATOM      6  C   UNL     1       9.191   3.454  24.259  0.00  0.00    +0.027 A 
ENDROOT
BRANCH   6   7
ATOM      7  C   UNL     1       9.586   2.117  23.718  0.00  0.00    +0.024 A 
ATOM      8  C   UNL     1      10.282   1.169  24.504  0.00  0.00    +0.014 A 
ATOM      9  C   UNL     1      10.641  -0.090  24.003  0.00  0.00    +0.042 A 
ATOM     10  C   UNL     1      10.281  -0.442  22.712  0.00  0.00    +0.161 A 
ATOM     11  F   UNL     1      10.611  -1.653  22.241  0.00  0.00    -0.202 F 
ATOM     12  C   UNL     1       9.581   0.448  21.916  0.00  0.00    +0.194 A 
ATOM     13  F   UNL     1       9.211   0.096  20.675  0.00  0.00    -0.199 F 
ATOM     14  C   UNL     1       9.251   1.711  22.407  0.00  0.00    +0.169 A 
ATOM     15  F   UNL     1       8.590   2.544  21.585  0.00  0.00    -0.202 F 
ENDBRANCH   6   7
BRANCH   1  16
ATOM     16  O   UNL     1      11.143   4.538  23.394  0.00  0.00    -0.489 OA
BRANCH  16  17
ATOM     17  C   UNL     1      12.110   5.573  23.583  0.00  0.00    +0.257 C 
BRANCH  17  18
ATOM     18  C   UNL     1      13.195   5.461  22.519  0.00  0.00    +0.196 C 
BRANCH  18  19
ATOM     19  O   UNL     1      14.420   5.065  23.124  0.00  0.00    -0.392 OA
ATOM     20  H   UNL     1      14.947   5.871  23.258  0.00  0.00    +0.210 HD
ENDBRANCH  18  19
ENDBRANCH  17  18
ENDBRANCH  16  17
ENDBRANCH   1  16
TORSDOF 5
ENDMDL
MODEL 2
REMARK VINA RESULT:      -6.7      2.255      3.607
REMARK  Name = 
REMARK  5 active torsions:
REMARK  status: ('A' for Active; 'I' for Inactive)
REMARK    1  A    between atoms: O_1  and  C_2
REMARK    2  A    between atoms: C_2  and  C_3
REMARK    3  A    between atoms: C_3  and  O_4
REMARK    4  A    between atoms: O_4  and  C_5
REMARK    5  A    between atoms: C_6  and  C_11
REMARK                            x       y       z     vdW  Elec       q    Type
REMARK                         _______ _______ _______ _____ _____    ______ ____
ROOT
ATOM      1  C   UNL     1       9.470   4.234  24.008  0.00  0.00    +0.128 A 
ATOM      2  C   UNL     1       9.851   5.543  24.357  0.00  0.00    +0.046 A 
ATOM      3  C   UNL     1      11.153   5.996  24.153  0.00  0.00    +0.004 A 
ATOM      4  C   UNL     1      12.089   5.152  23.581  0.00  0.00    +0.001 A 
ATOM      5  C   UNL     1      11.719   3.859  23.208  0.00  0.00    +0.012 A 
ATOM      6  C   UNL     1      10.416   3.352  23.418  0.00  0.00    +0.027 A 
ENDROOT
BRANCH   6   7
ATOM      7  C   UNL     1      10.108   1.948  23.008  0.00  0.00    +0.024 A 
ATOM      8  C   UNL     1       9.609   1.638  21.721  0.00  0.00    +0.014 A 
ATOM      9  C   UNL     1       9.332   0.320  21.331  0.00  0.00    +0.042 A 
ATOM     10  C   UNL     1       9.581  -0.722  22.210  0.00  0.00    +0.161 A 
ATOM     11  F   UNL     1       9.331  -1.983  21.827  0.00  0.00    -0.202 F 
ATOM     12  C   UNL     1      10.089  -0.464  23.471  0.00  0.00    +0.194 A 
ATOM     13  F   UNL     1      10.354  -1.477  24.311  0.00  0.00    -0.199 F 
ATOM     14  C   UNL     1      10.335   0.850  23.867  0.00  0.00    +0.169 A 
ATOM     15  F   UNL     1      10.809   1.046  25.110  0.00  0.00    -0.202 F 
ENDBRANCH   6   7
BRANCH   1  16
ATOM     16  O   UNL     1       8.203   3.747  24.244  0.00  0.00    -0.489 OA
BRANCH  16  17
ATOM     17  C   UNL     1       7.106   4.505  23.732  0.00  0.00    +0.257 C 
BRANCH  17  18
ATOM     18  C   UNL     1       7.024   4.331  22.221  0.00  0.00    +0.196 C 
BRANCH  18  19
ATOM     19  O   UNL     1       7.379   5.551  21.579  0.00  0.00    -0.392 OA
ATOM     20  H   UNL     1       7.655   5.328  20.674  0.00  0.00    +0.210 HD
ENDBRANCH  18  19
ENDBRANCH  17  18
ENDBRANCH  16  17
ENDBRANCH   1  16
TORSDOF 5
ENDMDL
MODEL 3
REMARK VINA RESULT:      -6.5      1.959      3.164
REMARK  Name = 
REMARK  5 active torsions:
REMARK  status: ('A' for Active; 'I' for Inactive)
REMARK    1  A    between atoms: O_1  and  C_2
REMARK    2  A    between atoms: C_2  and  C_3
REMARK    3  A    between atoms: C_3  and  O_4
REMARK    4  A    between atoms: O_4  and  C_5
REMARK    5  A    between atoms: C_6  and  C_11
REMARK                            x       y       z     vdW  Elec       q    Type
REMARK                         _______ _______ _______ _____ _____    ______ ____
ROOT
ATOM      1  C   UNL     1       9.405   4.186  24.065  0.00  0.00    +0.128 A 
ATOM      2  C   UNL     1       9.626   5.569  24.196  0.00  0.00    +0.046 A 
ATOM      3  C   UNL     1      10.873   6.130  23.934  0.00  0.00    +0.004 A 
ATOM      4  C   UNL     1      11.916   5.319  23.521  0.00  0.00    +0.001 A 
ATOM      5  C   UNL     1      11.705   3.948  23.363  0.00  0.00    +0.012 A 
ATOM      6  C   UNL     1      10.461   3.335  23.640  0.00  0.00    +0.027 A 
ENDROOT
BRANCH   6   7
ATOM      7  C   UNL     1      10.326   1.856  23.465  0.00  0.00    +0.024 A 
ATOM      8  C   UNL     1      10.554   0.955  24.532  0.00  0.00    +0.014 A 
ATOM      9  C   UNL     1      10.415  -0.431  24.374  0.00  0.00    +0.042 A 
ATOM     10  C   UNL     1      10.008  -0.945  23.153  0.00  0.00    +0.161 A 
ATOM     11  F   UNL     1       9.859  -2.270  23.010  0.00  0.00    -0.202 F 
ATOM     12  C   UNL     1       9.753  -0.096  22.089  0.00  0.00    +0.194 A 
ATOM     13  F   UNL     1       9.335  -0.594  20.915  0.00  0.00    -0.199 F 
ATOM     14  C   UNL     1       9.922   1.280  22.241  0.00  0.00    +0.169 A 
ATOM     15  F   UNL     1       9.682   2.056  21.171  0.00  0.00    -0.202 F 
ENDBRANCH   6   7
BRANCH   1  16
ATOM     16  O   UNL     1       8.194   3.600  24.364  0.00  0.00    -0.489 OA
BRANCH  16  17
ATOM     17  C   UNL     1       7.025   4.184  23.787  0.00  0.00    +0.257 C 
BRANCH  17  18
ATOM     18  C   UNL     1       7.019   3.938  22.283  0.00  0.00    +0.196 C 
BRANCH  18  19
ATOM     19  O   UNL     1       7.262   5.161  21.597  0.00  0.00    -0.392 OA
ATOM     20  H   UNL     1       6.906   5.061  20.698  0.00  0.00    +0.210 HD
ENDBRANCH  18  19
ENDBRANCH  17  18
ENDBRANCH  16  17
ENDBRANCH   1  16
TORSDOF 5
ENDMDL
MODEL 4
REMARK VINA RESULT:      -6.4      4.948      7.662
REMARK  Name = 
REMARK  5 active torsions:
REMARK  status: ('A' for Active; 'I' for Inactive)
REMARK    1  A    between atoms: O_1  and  C_2
REMARK    2  A    between atoms: C_2  and  C_3
REMARK    3  A    between atoms: C_3  and  O_4
REMARK    4  A    between atoms: O_4  and  C_5
REMARK    5  A    between atoms: C_6  and  C_11
REMARK                            x       y       z     vdW  Elec       q    Type
REMARK                         _______ _______ _______ _____ _____    ______ ____
ROOT
ATOM      1  C   UNL     1       8.127  -4.155  23.615  0.00  0.00    +0.128 A 
ATOM      2  C   UNL     1       7.322  -5.261  23.287  0.00  0.00    +0.046 A 
ATOM      3  C   UNL     1       6.081  -5.097  22.675  0.00  0.00    +0.004 A 
ATOM      4  C   UNL     1       5.634  -3.824  22.366  0.00  0.00    +0.001 A 
ATOM      5  C   UNL     1       6.432  -2.718  22.663  0.00  0.00    +0.012 A 
ATOM      6  C   UNL     1       7.687  -2.839  23.304  0.00  0.00    +0.027 A 
ENDROOT
BRANCH   6   7
ATOM      7  C   UNL     1       8.470  -1.602  23.606  0.00  0.00    +0.024 A 
ATOM      8  C   UNL     1       8.675  -1.154  24.933  0.00  0.00    +0.014 A 
ATOM      9  C   UNL     1       9.420  -0.002  25.219  0.00  0.00    +0.042 A 
ATOM     10  C   UNL     1      10.008   0.710  24.185  0.00  0.00    +0.161 A 
ATOM     11  F   UNL     1      10.735   1.801  24.464  0.00  0.00    -0.202 F 
ATOM     12  C   UNL     1       9.851   0.293  22.874  0.00  0.00    +0.194 A 
ATOM     13  F   UNL     1      10.443   0.968  21.877  0.00  0.00    -0.199 F 
ATOM     14  C   UNL     1       9.084  -0.837  22.590  0.00  0.00    +0.169 A 
ATOM     15  F   UNL     1       8.946  -1.185  21.300  0.00  0.00    -0.202 F 
ENDBRANCH   6   7
BRANCH   1  16
ATOM     16  O   UNL     1       9.335  -4.287  24.263  0.00  0.00    -0.489 OA
BRANCH  16  17
ATOM     17  C   UNL     1       9.408  -5.248  25.319  0.00  0.00    +0.257 C 
BRANCH  17  18
ATOM     18  C   UNL     1       8.775  -4.672  26.580  0.00  0.00    +0.196 C 
BRANCH  18  19
ATOM     19  O   UNL     1       8.138  -5.712  27.313  0.00  0.00    -0.392 OA
ATOM     20  H   UNL     1       7.685  -5.295  28.065  0.00  0.00    +0.210 HD
ENDBRANCH  18  19
ENDBRANCH  17  18
ENDBRANCH  16  17
ENDBRANCH   1  16
TORSDOF 5
ENDMDL
MODEL 5
REMARK VINA RESULT:      -6.3      4.706      7.602
REMARK  Name = 
REMARK  5 active torsions:
REMARK  status: ('A' for Active; 'I' for Inactive)
REMARK    1  A    between atoms: O_1  and  C_2
REMARK    2  A    between atoms: C_2  and  C_3
REMARK    3  A    between atoms: C_3  and  O_4
REMARK    4  A    between atoms: O_4  and  C_5
REMARK    5  A    between atoms: C_6  and  C_11
REMARK                            x       y       z     vdW  Elec       q    Type
REMARK                         _______ _______ _______ _____ _____    ______ ____
ROOT
ATOM      1  C   UNL     1       7.494  -3.195  24.654  0.00  0.00    +0.128 A 
ATOM      2  C   UNL     1       7.191  -4.398  25.318  0.00  0.00    +0.046 A 
ATOM      3  C   UNL     1       8.185  -5.323  25.628  0.00  0.00    +0.004 A 
ATOM      4  C   UNL     1       9.501  -5.052  25.294  0.00  0.00    +0.001 A 
ATOM      5  C   UNL     1       9.820  -3.851  24.657  0.00  0.00    +0.012 A 
ATOM      6  C   UNL     1       8.839  -2.895  24.304  0.00  0.00    +0.027 A 
ENDROOT
BRANCH   6   7
ATOM      7  C   UNL     1       9.263  -1.645  23.604  0.00  0.00    +0.024 A 
ATOM      8  C   UNL     1       9.208  -1.522  22.195  0.00  0.00    +0.014 A 
ATOM      9  C   UNL     1       9.592  -0.346  21.537  0.00  0.00    +0.042 A 
ATOM     10  C   UNL     1      10.008   0.750  22.278  0.00  0.00    +0.161 A 
ATOM     11  F   UNL     1      10.358   1.880  21.647  0.00  0.00    -0.202 F 
ATOM     12  C   UNL     1      10.056   0.679  23.660  0.00  0.00    +0.194 A 
ATOM     13  F   UNL     1      10.433   1.749  24.376  0.00  0.00    -0.199 F 
ATOM     14  C   UNL     1       9.702  -0.503  24.310  0.00  0.00    +0.169 A 
ATOM     15  F   UNL     1       9.787  -0.523  25.651  0.00  0.00    -0.202 F 
ENDBRANCH   6   7
BRANCH   1  16
ATOM     16  O   UNL     1       6.524  -2.286  24.293  0.00  0.00    -0.489 OA
BRANCH  16  17
ATOM     17  C   UNL     1       5.365  -2.796  23.631  0.00  0.00    +0.257 C 
BRANCH  17  18
ATOM     18  C   UNL     1       5.676  -3.028  22.158  0.00  0.00    +0.196 C 
BRANCH  18  19
ATOM     19  O   UNL     1       5.363  -4.371  21.808  0.00  0.00    -0.392 OA
ATOM     20  H   UNL     1       4.652  -4.336  21.146  0.00  0.00    +0.210 HD
ENDBRANCH  18  19
ENDBRANCH  17  18
ENDBRANCH  16  17
ENDBRANCH   1  16
TORSDOF 5
ENDMDL
MODEL 6
REMARK VINA RESULT:      -6.3      5.117      7.832
REMARK  Name = 
REMARK  5 active torsions:
REMARK  status: ('A' for Active; 'I' for Inactive)
REMARK    1  A    between atoms: O_1  and  C_2
REMARK    2  A    between atoms: C_2  and  C_3
REMARK    3  A    between atoms: C_3  and  O_4
REMARK    4  A    between atoms: O_4  and  C_5
REMARK    5  A    between atoms: C_6  and  C_11
REMARK                            x       y       z     vdW  Elec       q    Type
REMARK                         _______ _______ _______ _____ _____    ______ ____
ROOT
ATOM      1  C   UNL     1       7.887  -4.179  23.606  0.00  0.00    +0.128 A 
ATOM      2  C   UNL     1       7.004  -5.274  23.603  0.00  0.00    +0.046 A 
ATOM      3  C   UNL     1       5.721  -5.166  23.071  0.00  0.00    +0.004 A 
ATOM      4  C   UNL     1       5.308  -3.966  22.518  0.00  0.00    +0.001 A 
ATOM      5  C   UNL     1       6.182  -2.879  22.492  0.00  0.00    +0.012 A 
ATOM      6  C   UNL     1       7.484  -2.938  23.041  0.00  0.00    +0.027 A 
ENDROOT
BRANCH   6   7
ATOM      7  C   UNL     1       8.350  -1.721  22.992  0.00  0.00    +0.024 A 
ATOM      8  C   UNL     1       9.005  -1.318  21.804  0.00  0.00    +0.014 A 
ATOM      9  C   UNL     1       9.806  -0.169  21.752  0.00  0.00    +0.042 A 
ATOM     10  C   UNL     1       9.943   0.623  22.881  0.00  0.00    +0.161 A 
ATOM     11  F   UNL     1      10.696   1.731  22.823  0.00  0.00    -0.202 F 
ATOM     12  C   UNL     1       9.301   0.277  24.058  0.00  0.00    +0.194 A 
ATOM     13  F   UNL     1       9.414   1.060  25.142  0.00  0.00    -0.199 F 
ATOM     14  C   UNL     1       8.529  -0.883  24.114  0.00  0.00    +0.169 A 
ATOM     15  F   UNL     1       7.946  -1.183  25.287  0.00  0.00    -0.202 F 
ENDBRANCH   6   7
BRANCH   1  16
ATOM     16  O   UNL     1       9.143  -4.245  24.170  0.00  0.00    -0.489 OA
BRANCH  16  17
ATOM     17  C   UNL     1       9.341  -5.201  25.213  0.00  0.00    +0.257 C 
BRANCH  17  18
ATOM     18  C   UNL     1       8.844  -4.629  26.534  0.00  0.00    +0.196 C 
BRANCH  18  19
ATOM     19  O   UNL     1       8.164  -5.640  27.268  0.00  0.00    -0.392 OA
ATOM     20  H   UNL     1       8.595  -6.486  27.058  0.00  0.00    +0.210 HD
ENDBRANCH  18  19
ENDBRANCH  17  18
ENDBRANCH  16  17
ENDBRANCH   1  16
TORSDOF 5
ENDMDL
MODEL 7
REMARK VINA RESULT:      -6.1      4.649      6.268
REMARK  Name = 
REMARK  5 active torsions:
REMARK  status: ('A' for Active; 'I' for Inactive)
REMARK    1  A    between atoms: O_1  and  C_2
REMARK    2  A    between atoms: C_2  and  C_3
REMARK    3  A    between atoms: C_3  and  O_4
REMARK    4  A    between atoms: O_4  and  C_5
REMARK    5  A    between atoms: C_6  and  C_11
REMARK                            x       y       z     vdW  Elec       q    Type
REMARK                         _______ _______ _______ _____ _____    ______ ____
ROOT
ATOM      1  C   UNL     1       8.899  -1.286  24.300  0.00  0.00    +0.128 A 
ATOM      2  C   UNL     1       9.327  -0.446  25.345  0.00  0.00    +0.046 A 
ATOM      3  C   UNL     1       8.704  -0.468  26.590  0.00  0.00    +0.004 A 
ATOM      4  C   UNL     1       7.654  -1.342  26.816  0.00  0.00    +0.001 A 
ATOM      5  C   UNL     1       7.235  -2.198  25.796  0.00  0.00    +0.012 A 
ATOM      6  C   UNL     1       7.825  -2.193  24.510  0.00  0.00    +0.027 A 
ENDROOT
BRANCH   6   7
ATOM      7  C   UNL     1       7.302  -3.127  23.467  0.00  0.00    +0.024 A 
ATOM      8  C   UNL     1       6.326  -2.724  22.526  0.00  0.00    +0.014 A 
ATOM      9  C   UNL     1       5.844  -3.594  21.538  0.00  0.00    +0.042 A 
ATOM     10  C   UNL     1       6.354  -4.880  21.449  0.00  0.00    +0.161 A 
ATOM     11  F   UNL     1       5.904  -5.704  20.492  0.00  0.00    -0.202 F 
ATOM     12  C   UNL     1       7.327  -5.307  22.337  0.00  0.00    +0.194 A 
ATOM     13  F   UNL     1       7.838  -6.543  22.232  0.00  0.00    -0.199 F 
ATOM     14  C   UNL     1       7.782  -4.448  23.337  0.00  0.00    +0.169 A 
ATOM     15  F   UNL     1       8.711  -4.921  24.185  0.00  0.00    -0.202 F 
ENDBRANCH   6   7
BRANCH   1  16
ATOM     16  O   UNL     1       9.466  -1.249  23.044  0.00  0.00    -0.489 OA
BRANCH  16  17
ATOM     17  C   UNL     1      10.191  -0.070  22.689  0.00  0.00    +0.257 C 
BRANCH  17  18
ATOM     18  C   UNL     1       9.424   0.700  21.621  0.00  0.00    +0.196 C 
BRANCH  18  19
ATOM     19  O   UNL     1       9.962   2.012  21.498  0.00  0.00    -0.392 OA
ATOM     20  H   UNL     1       9.527   2.430  20.736  0.00  0.00    +0.210 HD
ENDBRANCH  18  19
ENDBRANCH  17  18
ENDBRANCH  16  17
ENDBRANCH   1  16
TORSDOF 5
ENDMDL
MODEL 8
REMARK VINA RESULT:      -6.0      4.971      7.863
REMARK  Name = 
REMARK  5 active torsions:
REMARK  status: ('A' for Active; 'I' for Inactive)
REMARK    1  A    between atoms: O_1  and  C_2
REMARK    2  A    between atoms: C_2  and  C_3
REMARK    3  A    between atoms: C_3  and  O_4
REMARK    4  A    between atoms: O_4  and  C_5
REMARK    5  A    between atoms: C_6  and  C_11
REMARK                            x       y       z     vdW  Elec       q    Type
REMARK                         _______ _______ _______ _____ _____    ______ ____
ROOT
ATOM      1  C   UNL     1       7.907  -3.844  23.563  0.00  0.00    +0.128 A 
ATOM      2  C   UNL     1       8.006  -5.028  24.317  0.00  0.00    +0.046 A 
ATOM      3  C   UNL     1       8.402  -5.004  25.652  0.00  0.00    +0.004 A 
ATOM      4  C   UNL     1       8.690  -3.794  26.259  0.00  0.00    +0.001 A 
ATOM      5  C   UNL     1       8.573  -2.609  25.531  0.00  0.00    +0.012 A 
ATOM      6  C   UNL     1       8.196  -2.590  24.168  0.00  0.00    +0.027 A 
ENDROOT
BRANCH   6   7
ATOM      7  C   UNL     1       8.116  -1.279  23.455  0.00  0.00    +0.024 A 
ATOM      8  C   UNL     1       6.943  -0.489  23.475  0.00  0.00    +0.014 A 
ATOM      9  C   UNL     1       6.870   0.747  22.818  0.00  0.00    +0.042 A 
ATOM     10  C   UNL     1       7.983   1.237  22.153  0.00  0.00    +0.161 A 
ATOM     11  F   UNL     1       7.915   2.428  21.540  0.00  0.00    -0.202 F 
ATOM     12  C   UNL     1       9.158   0.505  22.127  0.00  0.00    +0.194 A 
ATOM     13  F   UNL     1      10.242   0.993  21.505  0.00  0.00    -0.199 F 
ATOM     14  C   UNL     1       9.218  -0.738  22.756  0.00  0.00    +0.169 A 
ATOM     15  F   UNL     1      10.375  -1.416  22.682  0.00  0.00    -0.202 F 
ENDBRANCH   6   7
BRANCH   1  16
ATOM     16  O   UNL     1       7.565  -3.845  22.229  0.00  0.00    -0.489 OA
BRANCH  16  17
ATOM     17  C   UNL     1       6.238  -4.258  21.895  0.00  0.00    +0.257 C 
BRANCH  17  18
ATOM     18  C   UNL     1       6.292  -5.537  21.069  0.00  0.00    +0.196 C 
BRANCH  18  19
ATOM     19  O   UNL     1       5.986  -6.654  21.897  0.00  0.00    -0.392 OA
ATOM     20  H   UNL     1       6.275  -7.450  21.420  0.00  0.00    +0.210 HD
ENDBRANCH  18  19
ENDBRANCH  17  18
ENDBRANCH  16  17
ENDBRANCH   1  16
TORSDOF 5
ENDMDL
MODEL 9
REMARK VINA RESULT:      -5.9      4.254      6.880
REMARK  Name = 
REMARK  5 active torsions:
REMARK  status: ('A' for Active; 'I' for Inactive)
REMARK    1  A    between atoms: O_1  and  C_2
REMARK    2  A    between atoms: C_2  and  C_3
REMARK    3  A    between atoms: C_3  and  O_4
REMARK    4  A    between atoms: O_4  and  C_5
REMARK    5  A    between atoms: C_6  and  C_11
REMARK                            x       y       z     vdW  Elec       q    Type
REMARK                         _______ _______ _______ _____ _____    ______ ____
ROOT
ATOM      1  C   UNL     1       7.419  -3.109  24.845  0.00  0.00    +0.128 A 
ATOM      2  C   UNL     1       7.116  -4.320  25.495  0.00  0.00    +0.046 A 
ATOM      3  C   UNL     1       8.100  -5.273  25.743  0.00  0.00    +0.004 A 
ATOM      4  C   UNL     1       9.407  -5.025  25.359  0.00  0.00    +0.001 A 
ATOM      5  C   UNL     1       9.727  -3.818  24.735  0.00  0.00    +0.012 A 
ATOM      6  C   UNL     1       8.755  -2.833  24.444  0.00  0.00    +0.027 A 
ENDROOT
BRANCH   6   7
ATOM      7  C   UNL     1       9.178  -1.577  23.753  0.00  0.00    +0.024 A 
ATOM      8  C   UNL     1       9.886  -0.555  24.429  0.00  0.00    +0.014 A 
ATOM      9  C   UNL     1      10.295   0.618  23.780  0.00  0.00    +0.042 A 
ATOM     10  C   UNL     1      10.035   0.780  22.428  0.00  0.00    +0.161 A 
ATOM     11  F   UNL     1      10.444   1.895  21.806  0.00  0.00    -0.202 F 
ATOM     12  C   UNL     1       9.365  -0.206  21.724  0.00  0.00    +0.194 A 
ATOM     13  F   UNL     1       9.138  -0.059  20.410  0.00  0.00    -0.199 F 
ATOM     14  C   UNL     1       8.932  -1.358  22.380  0.00  0.00    +0.169 A 
ATOM     15  F   UNL     1       8.268  -2.273  21.654  0.00  0.00    -0.202 F 
ENDBRANCH   6   7
BRANCH   1  16
ATOM     16  O   UNL     1       6.456  -2.171  24.545  0.00  0.00    -0.489 OA
BRANCH  16  17
ATOM     17  C   UNL     1       6.055  -1.288  25.595  0.00  0.00    +0.257 C 
BRANCH  17  18
ATOM     18  C   UNL     1       6.194   0.156  25.131  0.00  0.00    +0.196 C 
BRANCH  18  19
ATOM     19  O   UNL     1       6.051   0.220  23.716  0.00  0.00    -0.392 OA
ATOM     20  H   UNL     1       6.707  -0.388  23.335  0.00  0.00    +0.210 HD
ENDBRANCH  18  19
ENDBRANCH  17  18
ENDBRANCH  16  17
ENDBRANCH   1  16
TORSDOF 5
ENDMDL
