MODEL 1
REMARK VINA RESULT:      -6.1      0.000      0.000
REMARK  Name = 
REMARK  6 active torsions:
REMARK  status: ('A' for Active; 'I' for Inactive)
REMARK    1  A    between atoms: O_1  and  C_2
REMARK    2  A    between atoms: C_2  and  C_4
REMARK    3  A    between atoms: C_7  and  O_8
REMARK    4  A    between atoms: O_8  and  C_9
REMARK    5  A    between atoms: C_9  and  C_10
REMARK    6  A    between atoms: C_10  and  N_11
REMARK                            x       y       z     vdW  Elec       q    Type
REMARK                         _______ _______ _______ _____ _____    ______ ____
ROOT
ATOM      1  C   UNL     1       9.956   0.763  22.910  0.00  0.00    +0.059 A 
ATOM      2  C   UNL     1       9.968   0.336  24.244  0.00  0.00    +0.018 A 
ATOM      3  C   UNL     1       9.939  -1.036  24.541  0.00  0.00    +0.046 A 
ATOM      4  C   UNL     1       9.887  -1.984  23.514  0.00  0.00    +0.121 A 
ATOM      5  C   UNL     1       9.883  -1.546  22.186  0.00  0.00    +0.046 A 
ATOM      6  C   UNL     1       9.912  -0.182  21.884  0.00  0.00    +0.018 A 
ENDROOT
BRANCH   1   7
ATOM      7  C   UNL     1       9.933   2.193  22.517  0.00  0.00    +0.337 C 
ATOM      8  O   UNL     1      10.615   3.038  23.066  0.00  0.00    -0.245 OA
BRANCH   7   9
ATOM      9  O   UNL     1       9.051   2.472  21.537  0.00  0.00    -0.477 OA
ATOM     10  H   UNL     1       8.212   2.860  21.842  0.00  0.00    +0.295 HD
ENDBRANCH   7   9
ENDBRANCH   1   7
BRANCH   4  11
ATOM     11  O   UNL     1       9.825  -3.302  23.904  0.00  0.00    -0.490 OA
BRANCH  11  12
ATOM     12  C   UNL     1       8.538  -3.721  24.377  0.00  0.00    +0.250 C 
BRANCH  12  13
ATOM     13  C   UNL     1       8.204  -5.141  23.940  0.00  0.00    +0.163 C 
BRANCH  13  14
ATOM     14  N   UNL     1       7.283  -5.117  22.819  0.00  0.00    -0.334 N 
ATOM     15  C   UNL     1       6.678  -4.008  22.302  0.00  0.00    +0.199 A 
ATOM     16  N   UNL     1       5.963  -4.305  21.241  0.00  0.00    -0.244 NA
ATOM     17  C   UNL     1       6.109  -5.656  21.068  0.00  0.00    +0.130 A 
ATOM     18  C   UNL     1       6.933  -6.183  22.037  0.00  0.00    +0.107 A 
ENDBRANCH  13  14
ENDBRANCH  12  13
ENDBRANCH  11  12
ENDBRANCH   4  11
TORSDOF 6
ENDMDL
MODEL 2
REMARK VINA RESULT:      -6.0      1.057      1.239
REMARK  Name = 
REMARK  6 active torsions:
REMARK  status: ('A' for Active; 'I' for Inactive)
REMARK    1  A    between atoms: O_1  and  C_2
REMARK    2  A    between atoms: C_2  and  C_4
REMARK    3  A    between atoms: C_7  and  O_8
REMARK    4  A    between atoms: O_8  and  C_9
REMARK    5  A    between atoms: C_9  and  C_10
REMARK    6  A    between atoms: C_10  and  N_11
REMARK                            x       y       z     vdW  Elec       q    Type
REMARK                         _______ _______ _______ _____ _____    ______ ____
ROOT
ATOM      1  C   UNL     1      10.372   1.893  23.237  0.00  0.00    +0.059 A 
ATOM      2  C   UNL     1      10.460   1.051  24.353  0.00  0.00    +0.018 A 
ATOM      3  C   UNL     1      10.191  -0.321  24.217  0.00  0.00    +0.046 A 
ATOM      4  C   UNL     1       9.824  -0.854  22.977  0.00  0.00    +0.121 A 
ATOM      5  C   UNL     1       9.747  -0.004  21.870  0.00  0.00    +0.046 A 
ATOM      6  C   UNL     1      10.014   1.361  21.997  0.00  0.00    +0.018 A 
ENDROOT
BRANCH   1   7
ATOM      7  C   UNL     1      10.591   3.359  23.309  0.00  0.00    +0.337 C 
ATOM      8  O   UNL     1      11.699   3.856  23.385  0.00  0.00    -0.245 OA
BRANCH   7   9
ATOM      9  O   UNL     1       9.451   4.077  23.337  0.00  0.00    -0.477 OA
ATOM     10  H   UNL     1       9.431   4.835  22.727  0.00  0.00    +0.295 HD
ENDBRANCH   7   9
ENDBRANCH   1   7
BRANCH   4  11
ATOM     11  O   UNL     1       9.544  -2.201  22.951  0.00  0.00    -0.490 OA
BRANCH  11  12
ATOM     12  C   UNL     1       8.359  -2.575  23.666  0.00  0.00    +0.250 C 
BRANCH  12  13
ATOM     13  C   UNL     1       8.168  -4.085  23.703  0.00  0.00    +0.163 C 
BRANCH  13  14
ATOM     14  N   UNL     1       7.265  -4.503  22.647  0.00  0.00    -0.334 N 
ATOM     15  C   UNL     1       6.380  -3.701  21.984  0.00  0.00    +0.199 A 
ATOM     16  N   UNL     1       5.761  -4.358  21.030  0.00  0.00    -0.244 NA
ATOM     17  C   UNL     1       6.263  -5.632  21.080  0.00  0.00    +0.130 A 
ATOM     18  C   UNL     1       7.205  -5.745  22.077  0.00  0.00    +0.107 A 
ENDBRANCH  13  14
ENDBRANCH  12  13
ENDBRANCH  11  12
ENDBRANCH   4  11
TORSDOF 6
ENDMDL
MODEL 3
REMARK VINA RESULT:      -5.8      2.155      3.102
REMARK  Name = 
REMARK  6 active torsions:
REMARK  status: ('A' for Active; 'I' for Inactive)
REMARK    1  A    between atoms: O_1  and  C_2
REMARK    2  A    between atoms: C_2  and  C_4
REMARK    3  A    between atoms: C_7  and  O_8
REMARK    4  A    between atoms: O_8  and  C_9
REMARK    5  A    between atoms: C_9  and  C_10
REMARK    6  A    between atoms: C_10  and  N_11
REMARK                            x       y       z     vdW  Elec       q    Type
REMARK                         _______ _______ _______ _____ _____    ______ ____
ROOT
ATOM      1  C   UNL     1      10.266   2.122  23.267  0.00  0.00    +0.059 A 
ATOM      2  C   UNL     1       9.908   1.525  22.052  0.00  0.00    +0.018 A 
ATOM      3  C   UNL     1       9.838   0.126  21.953  0.00  0.00    +0.046 A 
ATOM      4  C   UNL     1      10.135  -0.680  23.057  0.00  0.00    +0.121 A 
ATOM      5  C   UNL     1      10.484  -0.072  24.266  0.00  0.00    +0.046 A 
ATOM      6  C   UNL     1      10.554   1.319  24.372  0.00  0.00    +0.018 A 
ENDROOT
BRANCH   1   7
ATOM      7  C   UNL     1      10.411   3.589  23.438  0.00  0.00    +0.337 C 
ATOM      8  O   UNL     1       9.515   4.294  23.860  0.00  0.00    -0.245 OA
BRANCH   7   9
ATOM      9  O   UNL     1      11.605   4.067  23.032  0.00  0.00    -0.477 OA
ATOM     10  H   UNL     1      12.118   3.459  22.472  0.00  0.00    +0.295 HD
ENDBRANCH   7   9
ENDBRANCH   1   7
BRANCH   4  11
ATOM     11  O   UNL     1      10.075  -2.040  22.852  0.00  0.00    -0.490 OA
BRANCH  11  12
ATOM     12  C   UNL     1       9.665  -2.795  23.999  0.00  0.00    +0.250 C 
BRANCH  12  13
ATOM     13  C   UNL     1       8.290  -3.422  23.807  0.00  0.00    +0.163 C 
BRANCH  13  14
ATOM     14  N   UNL     1       7.931  -4.210  24.972  0.00  0.00    -0.334 N 
ATOM     15  C   UNL     1       6.933  -5.140  25.034  0.00  0.00    +0.199 A 
ATOM     16  N   UNL     1       6.910  -5.738  26.203  0.00  0.00    -0.244 NA
ATOM     17  C   UNL     1       7.928  -5.170  26.924  0.00  0.00    +0.130 A 
ATOM     18  C   UNL     1       8.581  -4.219  26.174  0.00  0.00    +0.107 A 
ENDBRANCH  13  14
ENDBRANCH  12  13
ENDBRANCH  11  12
ENDBRANCH   4  11
TORSDOF 6
ENDMDL
MODEL 4
REMARK VINA RESULT:      -5.7      2.084      2.731
REMARK  Name = 
REMARK  6 active torsions:
REMARK  status: ('A' for Active; 'I' for Inactive)
REMARK    1  A    between atoms: O_1  and  C_2
REMARK    2  A    between atoms: C_2  and  C_4
REMARK    3  A    between atoms: C_7  and  O_8
REMARK    4  A    between atoms: O_8  and  C_9
REMARK    5  A    between atoms: C_9  and  C_10
REMARK    6  A    between atoms: C_10  and  N_11
REMARK                            x       y       z     vdW  Elec       q    Type
REMARK                         _______ _______ _______ _____ _____    ______ ____
ROOT
ATOM      1  C   UNL     1      10.234   1.916  23.405  0.00  0.00    +0.059 A 
ATOM      2  C   UNL     1      10.430   1.086  24.516  0.00  0.00    +0.018 A 
ATOM      3  C   UNL     1      10.381  -0.309  24.365  0.00  0.00    +0.046 A 
ATOM      4  C   UNL     1      10.126  -0.880  23.114  0.00  0.00    +0.121 A 
ATOM      5  C   UNL     1       9.939  -0.041  22.011  0.00  0.00    +0.046 A 
ATOM      6  C   UNL     1       9.988   1.347  22.154  0.00  0.00    +0.018 A 
ENDROOT
BRANCH   1   7
ATOM      7  C   UNL     1      10.221   3.397  23.492  0.00  0.00    +0.337 C 
ATOM      8  O   UNL     1       9.272   4.022  23.927  0.00  0.00    -0.245 OA
BRANCH   7   9
ATOM      9  O   UNL     1      11.330   3.980  22.994  0.00  0.00    -0.477 OA
ATOM     10  H   UNL     1      11.163   4.714  22.378  0.00  0.00    +0.295 HD
ENDBRANCH   7   9
ENDBRANCH   1   7
BRANCH   4  11
ATOM     11  O   UNL     1      10.060  -2.254  23.073  0.00  0.00    -0.490 OA
BRANCH  11  12
ATOM     12  C   UNL     1       9.416  -2.851  24.205  0.00  0.00    +0.250 C 
BRANCH  12  13
ATOM     13  C   UNL     1       8.114  -3.541  23.823  0.00  0.00    +0.163 C 
BRANCH  13  14
ATOM     14  N   UNL     1       7.683  -4.427  24.889  0.00  0.00    -0.334 N 
ATOM     15  C   UNL     1       8.466  -4.903  25.901  0.00  0.00    +0.199 A 
ATOM     16  N   UNL     1       7.765  -5.618  26.751  0.00  0.00    -0.244 NA
ATOM     17  C   UNL     1       6.483  -5.606  26.268  0.00  0.00    +0.130 A 
ATOM     18  C   UNL     1       6.407  -4.865  25.110  0.00  0.00    +0.107 A 
ENDBRANCH  13  14
ENDBRANCH  12  13
ENDBRANCH  11  12
ENDBRANCH   4  11
TORSDOF 6
ENDMDL
MODEL 5
REMARK VINA RESULT:      -5.5      3.228      6.852
REMARK  Name = 
REMARK  6 active torsions:
REMARK  status: ('A' for Active; 'I' for Inactive)
REMARK    1  A    between atoms: O_1  and  C_2
REMARK    2  A    between atoms: C_2  and  C_4
REMARK    3  A    between atoms: C_7  and  O_8
REMARK    4  A    between atoms: O_8  and  C_9
REMARK    5  A    between atoms: C_9  and  C_10
REMARK    6  A    between atoms: C_10  and  N_11
REMARK                            x       y       z     vdW  Elec       q    Type
REMARK                         _______ _______ _______ _____ _____    ______ ____
ROOT
ATOM      1  C   UNL     1       7.410  -4.815  25.322  0.00  0.00    +0.059 A 
ATOM      2  C   UNL     1       8.375  -3.802  25.386  0.00  0.00    +0.018 A 
ATOM      3  C   UNL     1       8.659  -3.032  24.247  0.00  0.00    +0.046 A 
ATOM      4  C   UNL     1       7.993  -3.275  23.041  0.00  0.00    +0.121 A 
ATOM      5  C   UNL     1       7.026  -4.284  22.992  0.00  0.00    +0.046 A 
ATOM      6  C   UNL     1       6.739  -5.053  24.122  0.00  0.00    +0.018 A 
ENDROOT
BRANCH   1   7
ATOM      7  C   UNL     1       7.090  -5.703  26.467  0.00  0.00    +0.337 C 
ATOM      8  O   UNL     1       6.033  -6.297  26.564  0.00  0.00    -0.245 OA
BRANCH   7   9
ATOM      9  O   UNL     1       8.055  -5.745  27.407  0.00  0.00    -0.477 OA
ATOM     10  H   UNL     1       8.035  -6.533  27.977  0.00  0.00    +0.295 HD
ENDBRANCH   7   9
ENDBRANCH   1   7
BRANCH   4  11
ATOM     11  O   UNL     1       8.365  -2.494  21.971  0.00  0.00    -0.490 OA
BRANCH  11  12
ATOM     12  C   UNL     1       9.548  -1.715  22.188  0.00  0.00    +0.250 C 
BRANCH  12  13
ATOM     13  C   UNL     1       9.459  -0.346  21.526  0.00  0.00    +0.163 C 
BRANCH  13  14
ATOM     14  N   UNL     1       9.876   0.688  22.454  0.00  0.00    -0.334 N 
ATOM     15  C   UNL     1      10.231   0.499  23.760  0.00  0.00    +0.199 A 
ATOM     16  N   UNL     1      10.634   1.620  24.312  0.00  0.00    -0.244 NA
ATOM     17  C   UNL     1      10.533   2.569  23.328  0.00  0.00    +0.130 A 
ATOM     18  C   UNL     1      10.068   2.010  22.160  0.00  0.00    +0.107 A 
ENDBRANCH  13  14
ENDBRANCH  12  13
ENDBRANCH  11  12
ENDBRANCH   4  11
TORSDOF 6
ENDMDL
MODEL 6
REMARK VINA RESULT:      -5.5      3.452      7.023
REMARK  Name = 
REMARK  6 active torsions:
REMARK  status: ('A' for Active; 'I' for Inactive)
REMARK    1  A    between atoms: O_1  and  C_2
REMARK    2  A    between atoms: C_2  and  C_4
REMARK    3  A    between atoms: C_7  and  O_8
REMARK    4  A    between atoms: O_8  and  C_9
REMARK    5  A    between atoms: C_9  and  C_10
REMARK    6  A    between atoms: C_10  and  N_11
REMARK                            x       y       z     vdW  Elec       q    Type
REMARK                         _______ _______ _______ _____ _____    ______ ____
ROOT
ATOM      1  C   UNL     1       6.821  -5.397  25.730  0.00  0.00    +0.059 A 
ATOM      2  C   UNL     1       6.891  -5.029  24.380  0.00  0.00    +0.018 A 
ATOM      3  C   UNL     1       8.036  -4.383  23.888  0.00  0.00    +0.046 A 
ATOM      4  C   UNL     1       9.108  -4.092  24.738  0.00  0.00    +0.121 A 
ATOM      5  C   UNL     1       9.029  -4.470  26.082  0.00  0.00    +0.046 A 
ATOM      6  C   UNL     1       7.893  -5.113  26.577  0.00  0.00    +0.018 A 
ENDROOT
BRANCH   1   7
ATOM      7  C   UNL     1       5.627  -6.035  26.335  0.00  0.00    +0.337 C 
ATOM      8  O   UNL     1       5.701  -6.855  27.231  0.00  0.00    -0.245 OA
BRANCH   7   9
ATOM      9  O   UNL     1       4.464  -5.663  25.764  0.00  0.00    -0.477 OA
ATOM     10  H   UNL     1       4.515  -5.498  24.806  0.00  0.00    +0.295 HD
ENDBRANCH   7   9
ENDBRANCH   1   7
BRANCH   4  11
ATOM     11  O   UNL     1      10.170  -3.424  24.173  0.00  0.00    -0.490 OA
BRANCH  11  12
ATOM     12  C   UNL     1       9.814  -2.222  23.479  0.00  0.00    +0.250 C 
BRANCH  12  13
ATOM     13  C   UNL     1       9.726  -1.026  24.418  0.00  0.00    +0.163 C 
BRANCH  13  14
ATOM     14  N   UNL     1       9.986   0.203  23.691  0.00  0.00    -0.334 N 
ATOM     15  C   UNL     1       9.848   0.383  22.344  0.00  0.00    +0.199 A 
ATOM     16  N   UNL     1      10.083   1.629  22.003  0.00  0.00    -0.244 NA
ATOM     17  C   UNL     1      10.388   2.276  23.171  0.00  0.00    +0.130 A 
ATOM     18  C   UNL     1      10.328   1.409  24.237  0.00  0.00    +0.107 A 
ENDBRANCH  13  14
ENDBRANCH  12  13
ENDBRANCH  11  12
ENDBRANCH   4  11
TORSDOF 6
ENDMDL
MODEL 7
REMARK VINA RESULT:      -5.5      3.507      6.856
REMARK  Name = 
REMARK  6 active torsions:
REMARK  status: ('A' for Active; 'I' for Inactive)
REMARK    1  A    between atoms: O_1  and  C_2
REMARK    2  A    between atoms: C_2  and  C_4
REMARK    3  A    between atoms: C_7  and  O_8
REMARK    4  A    between atoms: O_8  and  C_9
REMARK    5  A    between atoms: C_9  and  C_10
REMARK    6  A    between atoms: C_10  and  N_11
REMARK                            x       y       z     vdW  Elec       q    Type
REMARK                         _______ _______ _______ _____ _____    ______ ____
ROOT
ATOM      1  C   UNL     1       5.901  -5.303  23.591  0.00  0.00    +0.059 A 
ATOM      2  C   UNL     1       6.568  -5.366  24.822  0.00  0.00    +0.018 A 
ATOM      3  C   UNL     1       7.805  -4.720  24.982  0.00  0.00    +0.046 A 
ATOM      4  C   UNL     1       8.385  -4.022  23.918  0.00  0.00    +0.121 A 
ATOM      5  C   UNL     1       7.706  -3.961  22.697  0.00  0.00    +0.046 A 
ATOM      6  C   UNL     1       6.476  -4.600  22.532  0.00  0.00    +0.018 A 
ENDROOT
BRANCH   1   7
ATOM      7  C   UNL     1       4.619  -6.000  23.328  0.00  0.00    +0.337 C 
ATOM      8  O   UNL     1       3.669  -5.454  22.800  0.00  0.00    -0.245 OA
BRANCH   7   9
ATOM      9  O   UNL     1       4.589  -7.271  23.778  0.00  0.00    -0.477 OA
ATOM     10  H   UNL     1       3.842  -7.802  23.451  0.00  0.00    +0.295 HD
ENDBRANCH   7   9
ENDBRANCH   1   7
BRANCH   4  11
ATOM     11  O   UNL     1       9.614  -3.454  24.160  0.00  0.00    -0.490 OA
BRANCH  11  12
ATOM     12  C   UNL     1       9.841  -2.215  23.477  0.00  0.00    +0.250 C 
BRANCH  12  13
ATOM     13  C   UNL     1       9.783  -1.023  24.423  0.00  0.00    +0.163 C 
BRANCH  13  14
ATOM     14  N   UNL     1       9.928   0.215  23.681  0.00  0.00    -0.334 N 
ATOM     15  C   UNL     1      10.397   1.398  24.177  0.00  0.00    +0.199 A 
ATOM     16  N   UNL     1      10.482   2.310  23.236  0.00  0.00    -0.244 NA
ATOM     17  C   UNL     1      10.049   1.695  22.091  0.00  0.00    +0.130 A 
ATOM     18  C   UNL     1       9.704   0.387  22.343  0.00  0.00    +0.107 A 
ENDBRANCH  13  14
ENDBRANCH  12  13
ENDBRANCH  11  12
ENDBRANCH   4  11
TORSDOF 6
ENDMDL
MODEL 8
REMARK VINA RESULT:      -5.4      3.631      5.322
REMARK  Name = 
REMARK  6 active torsions:
REMARK  status: ('A' for Active; 'I' for Inactive)
REMARK    1  A    between atoms: O_1  and  C_2
REMARK    2  A    between atoms: C_2  and  C_4
REMARK    3  A    between atoms: C_7  and  O_8
REMARK    4  A    between atoms: O_8  and  C_9
REMARK    5  A    between atoms: C_9  and  C_10
REMARK    6  A    between atoms: C_10  and  N_11
REMARK                            x       y       z     vdW  Elec       q    Type
REMARK                         _______ _______ _______ _____ _____    ______ ____
ROOT
ATOM      1  C   UNL     1      11.510   4.715  23.482  0.00  0.00    +0.059 A 
ATOM      2  C   UNL     1      11.433   3.328  23.300  0.00  0.00    +0.018 A 
ATOM      3  C   UNL     1      10.190   2.679  23.380  0.00  0.00    +0.046 A 
ATOM      4  C   UNL     1       9.025   3.405  23.651  0.00  0.00    +0.121 A 
ATOM      5  C   UNL     1       9.115   4.790  23.823  0.00  0.00    +0.046 A 
ATOM      6  C   UNL     1      10.347   5.441  23.745  0.00  0.00    +0.018 A 
ENDROOT
BRANCH   1   7
ATOM      7  C   UNL     1      12.790   5.465  23.464  0.00  0.00    +0.337 C 
ATOM      8  O   UNL     1      13.643   5.291  22.614  0.00  0.00    -0.245 OA
BRANCH   7   9
ATOM      9  O   UNL     1      12.938   6.311  24.502  0.00  0.00    -0.477 OA
ATOM     10  H   UNL     1      12.275   7.022  24.547  0.00  0.00    +0.295 HD
ENDBRANCH   7   9
ENDBRANCH   1   7
BRANCH   4  11
ATOM     11  O   UNL     1       7.862   2.677  23.746  0.00  0.00    -0.490 OA
BRANCH  11  12
ATOM     12  C   UNL     1       7.497   1.982  22.547  0.00  0.00    +0.250 C 
BRANCH  12  13
ATOM     13  C   UNL     1       7.165   0.520  22.814  0.00  0.00    +0.163 C 
BRANCH  13  14
ATOM     14  N   UNL     1       8.382  -0.269  22.870  0.00  0.00    -0.334 N 
ATOM     15  C   UNL     1       8.906  -0.858  23.985  0.00  0.00    +0.199 A 
ATOM     16  N   UNL     1       9.971  -1.569  23.693  0.00  0.00    -0.244 NA
ATOM     17  C   UNL     1      10.144  -1.430  22.341  0.00  0.00    +0.130 A 
ATOM     18  C   UNL     1       9.161  -0.629  21.805  0.00  0.00    +0.107 A 
ENDBRANCH  13  14
ENDBRANCH  12  13
ENDBRANCH  11  12
ENDBRANCH   4  11
TORSDOF 6
ENDMDL
MODEL 9
REMARK VINA RESULT:      -5.3      3.459      6.582
REMARK  Name = 
REMARK  6 active torsions:
REMARK  status: ('A' for Active; 'I' for Inactive)
REMARK    1  A    between atoms: O_1  and  C_2
REMARK    2  A    between atoms: C_2  and  C_4
REMARK    3  A    between atoms: C_7  and  O_8
REMARK    4  A    between atoms: O_8  and  C_9
REMARK    5  A    between atoms: C_9  and  C_10
REMARK    6  A    between atoms: C_10  and  N_11
REMARK                            x       y       z     vdW  Elec       q    Type
REMARK                         _______ _______ _______ _____ _____    ______ ____
ROOT
ATOM      1  C   UNL     1       8.990  -3.781  25.410  0.00  0.00    +0.059 A 
ATOM      2  C   UNL     1       9.635  -3.196  24.313  0.00  0.00    +0.018 A 
ATOM      3  C   UNL     1       9.753  -1.799  24.232  0.00  0.00    +0.046 A 
ATOM      4  C   UNL     1       9.220  -0.982  25.236  0.00  0.00    +0.121 A 
ATOM      5  C   UNL     1       8.585  -1.578  26.329  0.00  0.00    +0.046 A 
ATOM      6  C   UNL     1       8.465  -2.967  26.415  0.00  0.00    +0.018 A 
ENDROOT
BRANCH   1   7
ATOM      7  C   UNL     1       8.781  -5.244  25.542  0.00  0.00    +0.337 C 
ATOM      8  O   UNL     1       7.758  -5.725  25.993  0.00  0.00    -0.245 OA
BRANCH   7   9
ATOM      9  O   UNL     1       9.847  -5.980  25.169  0.00  0.00    -0.477 OA
ATOM     10  H   UNL     1       9.891  -6.180  24.218  0.00  0.00    +0.295 HD
ENDBRANCH   7   9
ENDBRANCH   1   7
BRANCH   4  11
ATOM     11  O   UNL     1       9.352   0.374  25.050  0.00  0.00    -0.490 OA
BRANCH  11  12
ATOM     12  C   UNL     1      10.571   0.770  24.407  0.00  0.00    +0.250 C 
BRANCH  12  13
ATOM     13  C   UNL     1      10.478   2.173  23.824  0.00  0.00    +0.163 C 
BRANCH  13  14
ATOM     14  N   UNL     1       9.343   2.269  22.926  0.00  0.00    -0.334 N 
ATOM     15  C   UNL     1       9.081   1.441  21.872  0.00  0.00    +0.199 A 
ATOM     16  N   UNL     1       7.936   1.740  21.302  0.00  0.00    -0.244 NA
ATOM     17  C   UNL     1       7.442   2.803  22.011  0.00  0.00    +0.130 A 
ATOM     18  C   UNL     1       8.299   3.146  23.032  0.00  0.00    +0.107 A 
ENDBRANCH  13  14
ENDBRANCH  12  13
ENDBRANCH  11  12
ENDBRANCH   4  11
TORSDOF 6
ENDMDL
