MODEL 1
REMARK VINA RESULT:      -5.7      0.000      0.000
REMARK  Name = 
REMARK  0 active torsions:
REMARK  status: ('A' for Active; 'I' for Inactive)
REMARK                            x       y       z     vdW  Elec       q    Type
REMARK                         _______ _______ _______ _____ _____    ______ ____
ROOT
ATOM      1  O   UNL     1       8.127  -0.898  26.988  0.00  0.00    -0.267 OA
ATOM      2  C   UNL     1       8.583  -1.657  26.139  0.00  0.00    +0.260 A 
ATOM      3  C   UNL     1       9.116  -1.233  24.860  0.00  0.00    +0.075 A 
ATOM      4  C   UNL     1       9.248   0.080  24.306  0.00  0.00    -0.023 A 
ATOM      5  C   UNL     1       8.847   1.377  24.946  0.00  0.00    +0.037 C 
ATOM      6  C   UNL     1       9.454   2.584  24.212  0.00  0.00    +0.005 C 
ATOM      7  C   UNL     1       9.316   2.450  22.689  0.00  0.00    +0.005 C 
ATOM      8  C   UNL     1      10.061   1.212  22.161  0.00  0.00    +0.043 C 
ATOM      9  C   UNL     1       9.783   0.026  23.032  0.00  0.00    -0.004 A 
ATOM     10  S   UNL     1      10.152  -1.560  22.538  0.00  0.00    -0.073 S 
ATOM     11  C   UNL     1       9.578  -2.217  24.006  0.00  0.00    +0.116 A 
ATOM     12  N   UNL     1       9.597  -3.556  24.243  0.00  0.00    -0.230 NA
ATOM     13  C   UNL     1       9.119  -3.894  25.396  0.00  0.00    +0.200 A 
ATOM     14  N   UNL     1       8.625  -3.019  26.332  0.00  0.00    -0.313 N 
ATOM     15  H   UNL     1       8.261  -3.352  27.212  0.00  0.00    +0.170 HD
ENDROOT
TORSDOF 0
ENDMDL
MODEL 2
REMARK VINA RESULT:      -5.5      2.554      3.565
REMARK  Name = 
REMARK  0 active torsions:
REMARK  status: ('A' for Active; 'I' for Inactive)
REMARK                            x       y       z     vdW  Elec       q    Type
REMARK                         _______ _______ _______ _____ _____    ______ ____
ROOT
ATOM      1  O   UNL     1       9.967  -5.304  24.946  0.00  0.00    -0.267 OA
ATOM      2  C   UNL     1       9.013  -4.910  25.609  0.00  0.00    +0.260 A 
ATOM      3  C   UNL     1       8.482  -3.563  25.564  0.00  0.00    +0.075 A 
ATOM      4  C   UNL     1       8.894  -2.436  24.785  0.00  0.00    -0.023 A 
ATOM      5  C   UNL     1      10.020  -2.383  23.794  0.00  0.00    +0.037 C 
ATOM      6  C   UNL     1       9.940  -1.127  22.910  0.00  0.00    +0.005 C 
ATOM      7  C   UNL     1       9.637   0.130  23.736  0.00  0.00    +0.005 C 
ATOM      8  C   UNL     1       8.279   0.025  24.449  0.00  0.00    +0.043 C 
ATOM      9  C   UNL     1       8.125  -1.324  25.080  0.00  0.00    -0.004 A 
ATOM     10  S   UNL     1       6.916  -1.646  26.234  0.00  0.00    -0.073 S 
ATOM     11  C   UNL     1       7.410  -3.274  26.388  0.00  0.00    +0.116 A 
ATOM     12  N   UNL     1       6.786  -4.130  27.240  0.00  0.00    -0.230 NA
ATOM     13  C   UNL     1       7.285  -5.323  27.248  0.00  0.00    +0.200 A 
ATOM     14  N   UNL     1       8.348  -5.738  26.485  0.00  0.00    -0.313 N 
ATOM     15  H   UNL     1       8.691  -6.685  26.544  0.00  0.00    +0.170 HD
ENDROOT
TORSDOF 0
ENDMDL
MODEL 3
REMARK VINA RESULT:      -5.5      5.060      6.298
REMARK  Name = 
REMARK  0 active torsions:
REMARK  status: ('A' for Active; 'I' for Inactive)
REMARK                            x       y       z     vdW  Elec       q    Type
REMARK                         _______ _______ _______ _____ _____    ______ ____
ROOT
ATOM      1  O   UNL     1       7.200  -5.488  27.840  0.00  0.00    -0.267 OA
ATOM      2  C   UNL     1       7.793  -5.311  26.780  0.00  0.00    +0.260 A 
ATOM      3  C   UNL     1       7.160  -5.298  25.477  0.00  0.00    +0.075 A 
ATOM      4  C   UNL     1       5.784  -5.462  25.120  0.00  0.00    -0.023 A 
ATOM      5  C   UNL     1       4.629  -5.699  26.049  0.00  0.00    +0.037 C 
ATOM      6  C   UNL     1       3.280  -5.477  25.346  0.00  0.00    +0.005 C 
ATOM      7  C   UNL     1       3.247  -6.136  23.960  0.00  0.00    +0.005 C 
ATOM      8  C   UNL     1       4.316  -5.545  23.027  0.00  0.00    +0.043 C 
ATOM      9  C   UNL     1       5.622  -5.412  23.747  0.00  0.00    -0.004 A 
ATOM     10  S   UNL     1       7.083  -5.134  22.920  0.00  0.00    -0.073 S 
ATOM     11  C   UNL     1       7.973  -5.103  24.376  0.00  0.00    +0.116 A 
ATOM     12  N   UNL     1       9.319  -4.909  24.384  0.00  0.00    -0.230 NA
ATOM     13  C   UNL     1       9.846  -4.922  25.566  0.00  0.00    +0.200 A 
ATOM     14  N   UNL     1       9.155  -5.110  26.736  0.00  0.00    -0.313 N 
ATOM     15  H   UNL     1       9.631  -5.115  27.625  0.00  0.00    +0.170 HD
ENDROOT
TORSDOF 0
ENDMDL
MODEL 4
REMARK VINA RESULT:      -5.4      4.957      6.328
REMARK  Name = 
REMARK  0 active torsions:
REMARK  status: ('A' for Active; 'I' for Inactive)
REMARK                            x       y       z     vdW  Elec       q    Type
REMARK                         _______ _______ _______ _____ _____    ______ ____
ROOT
ATOM      1  O   UNL     1       3.988  -7.234  25.834  0.00  0.00    -0.267 OA
ATOM      2  C   UNL     1       4.877  -6.827  26.576  0.00  0.00    +0.260 A 
ATOM      3  C   UNL     1       5.939  -5.929  26.169  0.00  0.00    +0.075 A 
ATOM      4  C   UNL     1       6.196  -5.322  24.899  0.00  0.00    -0.023 A 
ATOM      5  C   UNL     1       5.394  -5.483  23.639  0.00  0.00    +0.037 C 
ATOM      6  C   UNL     1       5.765  -4.421  22.591  0.00  0.00    +0.005 C 
ATOM      7  C   UNL     1       7.286  -4.249  22.470  0.00  0.00    +0.005 C 
ATOM      8  C   UNL     1       7.908  -3.776  23.794  0.00  0.00    +0.043 C 
ATOM      9  C   UNL     1       7.346  -4.554  24.943  0.00  0.00    -0.004 A 
ATOM     10  S   UNL     1       8.068  -4.535  26.483  0.00  0.00    -0.073 S 
ATOM     11  C   UNL     1       6.876  -5.578  27.123  0.00  0.00    +0.116 A 
ATOM     12  N   UNL     1       6.904  -5.981  28.421  0.00  0.00    -0.230 NA
ATOM     13  C   UNL     1       5.937  -6.776  28.747  0.00  0.00    +0.200 A 
ATOM     14  N   UNL     1       4.948  -7.205  27.897  0.00  0.00    -0.313 N 
ATOM     15  H   UNL     1       4.226  -7.833  28.217  0.00  0.00    +0.170 HD
ENDROOT
TORSDOF 0
ENDMDL
MODEL 5
REMARK VINA RESULT:      -5.4      4.311      5.699
REMARK  Name = 
REMARK  0 active torsions:
REMARK  status: ('A' for Active; 'I' for Inactive)
REMARK                            x       y       z     vdW  Elec       q    Type
REMARK                         _______ _______ _______ _____ _____    ______ ____
ROOT
ATOM      1  O   UNL     1       5.255  -5.615  21.852  0.00  0.00    -0.267 OA
ATOM      2  C   UNL     1       5.229  -5.866  23.053  0.00  0.00    +0.260 A 
ATOM      3  C   UNL     1       6.108  -5.265  24.036  0.00  0.00    +0.075 A 
ATOM      4  C   UNL     1       7.141  -4.289  23.874  0.00  0.00    -0.023 A 
ATOM      5  C   UNL     1       7.577  -3.636  22.594  0.00  0.00    +0.037 C 
ATOM      6  C   UNL     1       8.460  -2.405  22.857  0.00  0.00    +0.005 C 
ATOM      7  C   UNL     1       9.521  -2.686  23.930  0.00  0.00    +0.005 C 
ATOM      8  C   UNL     1       8.879  -3.045  25.280  0.00  0.00    +0.043 C 
ATOM      9  C   UNL     1       7.758  -4.018  25.082  0.00  0.00    -0.004 A 
ATOM     10  S   UNL     1       7.080  -4.887  26.378  0.00  0.00    -0.073 S 
ATOM     11  C   UNL     1       5.963  -5.669  25.351  0.00  0.00    +0.116 A 
ATOM     12  N   UNL     1       5.067  -6.574  25.829  0.00  0.00    -0.230 NA
ATOM     13  C   UNL     1       4.298  -7.083  24.922  0.00  0.00    +0.200 A 
ATOM     14  N   UNL     1       4.341  -6.774  23.586  0.00  0.00    -0.313 N 
ATOM     15  H   UNL     1       3.714  -7.215  22.930  0.00  0.00    +0.170 HD
ENDROOT
TORSDOF 0
ENDMDL
MODEL 6
REMARK VINA RESULT:      -5.3      2.306      4.229
REMARK  Name = 
REMARK  0 active torsions:
REMARK  status: ('A' for Active; 'I' for Inactive)
REMARK                            x       y       z     vdW  Elec       q    Type
REMARK                         _______ _______ _______ _____ _____    ______ ____
ROOT
ATOM      1  O   UNL     1       8.979  -0.869  26.882  0.00  0.00    -0.267 OA
ATOM      2  C   UNL     1       9.403  -0.553  25.775  0.00  0.00    +0.260 A 
ATOM      3  C   UNL     1       9.080  -1.245  24.543  0.00  0.00    +0.075 A 
ATOM      4  C   UNL     1       8.236  -2.378  24.318  0.00  0.00    -0.023 A 
ATOM      5  C   UNL     1       7.461  -3.149  25.346  0.00  0.00    +0.037 C 
ATOM      6  C   UNL     1       6.411  -4.066  24.696  0.00  0.00    +0.005 C 
ATOM      7  C   UNL     1       6.990  -4.830  23.497  0.00  0.00    +0.005 C 
ATOM      8  C   UNL     1       7.461  -3.871  22.391  0.00  0.00    +0.043 C 
ATOM      9  C   UNL     1       8.236  -2.734  22.981  0.00  0.00    -0.004 A 
ATOM     10  S   UNL     1       9.193  -1.703  22.024  0.00  0.00    -0.073 S 
ATOM     11  C   UNL     1       9.655  -0.773  23.379  0.00  0.00    +0.116 A 
ATOM     12  N   UNL     1      10.495   0.290  23.260  0.00  0.00    -0.230 NA
ATOM     13  C   UNL     1      10.755   0.885  24.379  0.00  0.00    +0.200 A 
ATOM     14  N   UNL     1      10.255   0.515  25.603  0.00  0.00    -0.313 N 
ATOM     15  H   UNL     1      10.504   1.020  26.439  0.00  0.00    +0.170 HD
ENDROOT
TORSDOF 0
ENDMDL
MODEL 7
REMARK VINA RESULT:      -5.3      3.154      5.083
REMARK  Name = 
REMARK  0 active torsions:
REMARK  status: ('A' for Active; 'I' for Inactive)
REMARK                            x       y       z     vdW  Elec       q    Type
REMARK                         _______ _______ _______ _____ _____    ______ ____
ROOT
ATOM      1  O   UNL     1       9.090   0.042  20.697  0.00  0.00    -0.267 OA
ATOM      2  C   UNL     1       9.431   0.577  21.747  0.00  0.00    +0.260 A 
ATOM      3  C   UNL     1       9.277  -0.018  23.059  0.00  0.00    +0.075 A 
ATOM      4  C   UNL     1       8.741  -1.289  23.437  0.00  0.00    -0.023 A 
ATOM      5  C   UNL     1       8.188  -2.346  22.525  0.00  0.00    +0.037 C 
ATOM      6  C   UNL     1       8.033  -3.695  23.248  0.00  0.00    +0.005 C 
ATOM      7  C   UNL     1       7.399  -3.525  24.636  0.00  0.00    +0.005 C 
ATOM      8  C   UNL     1       8.269  -2.649  25.552  0.00  0.00    +0.043 C 
ATOM      9  C   UNL     1       8.753  -1.441  24.812  0.00  0.00    -0.004 A 
ATOM     10  S   UNL     1       9.430  -0.103  25.617  0.00  0.00    -0.073 S 
ATOM     11  C   UNL     1       9.697   0.724  24.147  0.00  0.00    +0.116 A 
ATOM     12  N   UNL     1      10.256   1.964  24.119  0.00  0.00    -0.230 NA
ATOM     13  C   UNL     1      10.382   2.458  22.930  0.00  0.00    +0.200 A 
ATOM     14  N   UNL     1      10.002   1.830  21.770  0.00  0.00    -0.313 N 
ATOM     15  H   UNL     1      10.123   2.276  20.874  0.00  0.00    +0.170 HD
ENDROOT
TORSDOF 0
ENDMDL
MODEL 8
REMARK VINA RESULT:      -5.3      3.724      4.904
REMARK  Name = 
REMARK  0 active torsions:
REMARK  status: ('A' for Active; 'I' for Inactive)
REMARK                            x       y       z     vdW  Elec       q    Type
REMARK                         _______ _______ _______ _____ _____    ______ ____
ROOT
ATOM      1  O   UNL     1       7.676  -5.251  27.495  0.00  0.00    -0.267 OA
ATOM      2  C   UNL     1       6.806  -5.568  26.690  0.00  0.00    +0.260 A 
ATOM      3  C   UNL     1       6.716  -5.060  25.336  0.00  0.00    +0.075 A 
ATOM      4  C   UNL     1       7.561  -4.141  24.639  0.00  0.00    -0.023 A 
ATOM      5  C   UNL     1       8.787  -3.456  25.171  0.00  0.00    +0.037 C 
ATOM      6  C   UNL     1       9.619  -2.824  24.042  0.00  0.00    +0.005 C 
ATOM      7  C   UNL     1       8.735  -2.064  23.043  0.00  0.00    +0.005 C 
ATOM      8  C   UNL     1       7.726  -2.999  22.356  0.00  0.00    +0.043 C 
ATOM      9  C   UNL     1       7.087  -3.906  23.361  0.00  0.00    -0.004 A 
ATOM     10  S   UNL     1       5.686  -4.802  23.002  0.00  0.00    -0.073 S 
ATOM     11  C   UNL     1       5.663  -5.505  24.559  0.00  0.00    +0.116 A 
ATOM     12  N   UNL     1       4.695  -6.386  24.928  0.00  0.00    -0.230 NA
ATOM     13  C   UNL     1       4.813  -6.820  26.141  0.00  0.00    +0.200 A 
ATOM     14  N   UNL     1       5.805  -6.456  27.016  0.00  0.00    -0.313 N 
ATOM     15  H   UNL     1       5.834  -6.829  27.953  0.00  0.00    +0.170 HD
ENDROOT
TORSDOF 0
ENDMDL
MODEL 9
REMARK VINA RESULT:      -5.3      4.623      6.274
REMARK  Name = 
REMARK  0 active torsions:
REMARK  status: ('A' for Active; 'I' for Inactive)
REMARK                            x       y       z     vdW  Elec       q    Type
REMARK                         _______ _______ _______ _____ _____    ______ ____
ROOT
ATOM      1  O   UNL     1      12.057   4.138  23.362  0.00  0.00    -0.267 OA
ATOM      2  C   UNL     1      10.914   4.568  23.482  0.00  0.00    +0.260 A 
ATOM      3  C   UNL     1       9.767   3.763  23.850  0.00  0.00    +0.075 A 
ATOM      4  C   UNL     1       9.682   2.368  24.157  0.00  0.00    -0.023 A 
ATOM      5  C   UNL     1      10.805   1.372  24.168  0.00  0.00    +0.037 C 
ATOM      6  C   UNL     1      10.401   0.068  24.875  0.00  0.00    +0.005 C 
ATOM      7  C   UNL     1       9.010  -0.408  24.436  0.00  0.00    +0.005 C 
ATOM      8  C   UNL     1       7.923   0.621  24.787  0.00  0.00    +0.043 C 
ATOM      9  C   UNL     1       8.375   2.001  24.426  0.00  0.00    -0.004 A 
ATOM     10  S   UNL     1       7.293   3.312  24.349  0.00  0.00    -0.073 S 
ATOM     11  C   UNL     1       8.541   4.398  23.926  0.00  0.00    +0.116 A 
ATOM     12  N   UNL     1       8.294   5.716  23.700  0.00  0.00    -0.230 NA
ATOM     13  C   UNL     1       9.342   6.402  23.380  0.00  0.00    +0.200 A 
ATOM     14  N   UNL     1      10.613   5.894  23.265  0.00  0.00    -0.313 N 
ATOM     15  H   UNL     1      11.387   6.486  23.005  0.00  0.00    +0.170 HD
ENDROOT
TORSDOF 0
ENDMDL
