MODEL 1
REMARK VINA RESULT:      -7.4      0.000      0.000
REMARK  Name = 
REMARK  10 active torsions:
REMARK  status: ('A' for Active; 'I' for Inactive)
REMARK    1  A    between atoms: C_1  and  O_2
REMARK    2  A    between atoms: O_2  and  C_3
REMARK    3  A    between atoms: C_7  and  C_8
REMARK    4  A    between atoms: C_8  and  N_9
REMARK    5  A    between atoms: N_9  and  C_10
REMARK    6  A    between atoms: C_11  and  C_24
REMARK    7  A    between atoms: C_20  and  C_22
REMARK    8  A    between atoms: C_22  and  O_23
REMARK    9  A    between atoms: N_26  and  C_27
REMARK   10  A    between atoms: C_27  and  C_28
REMARK                            x       y       z     vdW  Elec       q    Type
REMARK                         _______ _______ _______ _____ _____    ______ ____
ROOT
ATOM      1  C   UNL     1       8.215   1.565  23.149  0.00  0.00    +0.136 A 
ATOM      2  N   UNL     1       8.039   2.896  23.338  0.00  0.00    -0.199 NA
ATOM      3  C   UNL     1       9.118   3.699  23.450  0.00  0.00    +0.220 A 
ATOM      4  N   UNL     1       8.916   5.049  23.547  0.00  0.00    -0.294 N 
ATOM      5  C   UNL     1       7.632   5.649  23.909  0.00  0.00    +0.102 C 
ATOM      6  C   UNL     1       8.010   7.007  24.533  0.00  0.00    +0.026 C 
ATOM      7  C   UNL     1       9.531   7.038  24.612  0.00  0.00    +0.021 C 
ATOM      8  C   UNL     1      10.009   5.998  23.608  0.00  0.00    +0.108 C 
ATOM      9  N   UNL     1      10.366   3.228  23.390  0.00  0.00    -0.222 NA
ATOM     10  C   UNL     1      10.523   1.896  23.222  0.00  0.00    +0.131 A 
ATOM     11  C   UNL     1       9.482   1.004  23.075  0.00  0.00    +0.094 A 
ENDROOT
BRANCH  11  12
ATOM     12  C   UNL     1       9.803  -0.437  22.893  0.00  0.00    +0.249 C 
ATOM     13  N   UNL     1       9.782  -1.249  23.999  0.00  0.00    -0.304 N 
ATOM     14  H   UNL     1       9.613  -0.842  24.919  0.00  0.00    +0.149 HD
ATOM     15  O   UNL     1      10.079  -0.858  21.773  0.00  0.00    -0.270 OA
BRANCH  13  16
ATOM     16  C   UNL     1      10.092  -2.669  23.949  0.00  0.00    +0.180 C 
BRANCH  16  17
ATOM     17  C   UNL     1       9.192  -3.539  24.811  0.00  0.00    +0.146 A 
ATOM     18  N   UNL     1       8.646  -2.959  25.902  0.00  0.00    -0.239 NA
ATOM     19  C   UNL     1       7.864  -3.738  26.676  0.00  0.00    +0.114 A 
ATOM     20  C   UNL     1       7.601  -5.058  26.402  0.00  0.00    +0.039 A 
ATOM     21  C   UNL     1       8.190  -5.555  25.265  0.00  0.00    +0.114 A 
ATOM     22  N   UNL     1       8.981  -4.826  24.451  0.00  0.00    -0.239 NA
ENDBRANCH  16  17
ENDBRANCH  13  16
ENDBRANCH  11  12
BRANCH   1  23
ATOM     23  N   UNL     1       7.080   0.769  22.899  0.00  0.00    -0.324 N 
ATOM     24  H   UNL     1       6.417   1.340  22.370  0.00  0.00    +0.148 HD
BRANCH  23  25
ATOM     25  C   UNL     1       6.433   0.174  24.060  0.00  0.00    +0.138 C 
BRANCH  25  29
ATOM     26  C   UNL     1       5.596  -3.993  23.140  0.00  0.00    +0.138 A 
ATOM     27  C   UNL     1       6.371  -3.219  22.273  0.00  0.00    +0.047 A 
ATOM     28  C   UNL     1       6.643  -1.873  22.566  0.00  0.00    +0.009 A 
ATOM     29  C   UNL     1       6.163  -1.282  23.743  0.00  0.00    -0.029 A 
ATOM     30  C   UNL     1       5.363  -2.051  24.598  0.00  0.00    +0.028 A 
ATOM     31  C   UNL     1       5.077  -3.386  24.295  0.00  0.00    +0.083 A 
ATOM     32 CL   UNL     1       4.048  -4.255  25.380  0.00  0.00    -0.080 Cl
BRANCH  26  34
ATOM     33  C   UNL     1       6.153  -6.094  22.139  0.00  0.00    +0.277 C 
ATOM     34  O   UNL     1       5.273  -5.309  22.935  0.00  0.00    -0.494 OA
ENDBRANCH  26  34
ENDBRANCH  25  29
ENDBRANCH  23  25
ENDBRANCH   1  23
BRANCH   5  35
ATOM     35  C   UNL     1       6.745   5.877  22.666  0.00  0.00    +0.178 C 
BRANCH  35  36
ATOM     36  O   UNL     1       7.503   6.059  21.473  0.00  0.00    -0.393 OA
ATOM     37  H   UNL     1       7.611   5.165  21.089  0.00  0.00    +0.209 HD
ENDBRANCH  35  36
ENDBRANCH   5  35
TORSDOF 9
ENDMDL
MODEL 2
REMARK VINA RESULT:      -7.4      1.924      2.426
REMARK  Name = 
REMARK  10 active torsions:
REMARK  status: ('A' for Active; 'I' for Inactive)
REMARK    1  A    between atoms: C_1  and  O_2
REMARK    2  A    between atoms: O_2  and  C_3
REMARK    3  A    between atoms: C_7  and  C_8
REMARK    4  A    between atoms: C_8  and  N_9
REMARK    5  A    between atoms: N_9  and  C_10
REMARK    6  A    between atoms: C_11  and  C_24
REMARK    7  A    between atoms: C_20  and  C_22
REMARK    8  A    between atoms: C_22  and  O_23
REMARK    9  A    between atoms: N_26  and  C_27
REMARK   10  A    between atoms: C_27  and  C_28
REMARK                            x       y       z     vdW  Elec       q    Type
REMARK                         _______ _______ _______ _____ _____    ______ ____
ROOT
ATOM      1  C   UNL     1       8.148   0.136  24.077  0.00  0.00    +0.136 A 
ATOM      2  N   UNL     1       8.187   1.476  23.874  0.00  0.00    -0.199 NA
ATOM      3  C   UNL     1       9.371   2.122  23.929  0.00  0.00    +0.220 A 
ATOM      4  N   UNL     1       9.398   3.456  23.629  0.00  0.00    -0.294 N 
ATOM      5  C   UNL     1       8.207   4.305  23.618  0.00  0.00    +0.102 C 
ATOM      6  C   UNL     1       8.746   5.720  23.906  0.00  0.00    +0.026 C 
ATOM      7  C   UNL     1      10.232   5.564  24.204  0.00  0.00    +0.021 C 
ATOM      8  C   UNL     1      10.627   4.224  23.599  0.00  0.00    +0.108 C 
ATOM      9  N   UNL     1      10.518   1.486  24.188  0.00  0.00    -0.222 NA
ATOM     10  C   UNL     1      10.458   0.154  24.407  0.00  0.00    +0.131 A 
ATOM     11  C   UNL     1       9.299  -0.591  24.348  0.00  0.00    +0.094 A 
ENDROOT
BRANCH  11  12
ATOM     12  C   UNL     1       9.382  -2.053  24.609  0.00  0.00    +0.249 C 
ATOM     13  N   UNL     1       8.702  -2.556  25.690  0.00  0.00    -0.304 N 
ATOM     14  H   UNL     1       8.215  -1.919  26.319  0.00  0.00    +0.149 HD
ATOM     15  O   UNL     1      10.051  -2.763  23.864  0.00  0.00    -0.270 OA
BRANCH  13  16
ATOM     16  C   UNL     1       8.719  -3.964  26.055  0.00  0.00    +0.180 C 
BRANCH  16  17
ATOM     17  C   UNL     1       7.541  -4.407  26.905  0.00  0.00    +0.146 A 
ATOM     18  N   UNL     1       6.544  -3.512  27.082  0.00  0.00    -0.239 NA
ATOM     19  C   UNL     1       5.509  -3.900  27.853  0.00  0.00    +0.114 A 
ATOM     20  C   UNL     1       5.425  -5.139  28.440  0.00  0.00    +0.039 A 
ATOM     21  C   UNL     1       6.478  -5.985  28.192  0.00  0.00    +0.114 A 
ATOM     22  N   UNL     1       7.541  -5.654  27.430  0.00  0.00    -0.239 NA
ENDBRANCH  16  17
ENDBRANCH  13  16
ENDBRANCH  11  12
BRANCH   1  23
ATOM     23  N   UNL     1       6.926  -0.536  23.879  0.00  0.00    -0.324 N 
ATOM     24  H   UNL     1       6.790  -1.162  24.676  0.00  0.00    +0.148 HD
BRANCH  23  25
ATOM     25  C   UNL     1       6.775  -1.260  22.625  0.00  0.00    +0.138 C 
BRANCH  25  29
ATOM     26  C   UNL     1       5.350  -5.254  23.591  0.00  0.00    +0.138 A 
ATOM     27  C   UNL     1       4.806  -4.135  24.227  0.00  0.00    +0.047 A 
ATOM     28  C   UNL     1       5.264  -2.844  23.919  0.00  0.00    +0.009 A 
ATOM     29  C   UNL     1       6.259  -2.646  22.951  0.00  0.00    -0.029 A 
ATOM     30  C   UNL     1       6.823  -3.769  22.334  0.00  0.00    +0.028 A 
ATOM     31  C   UNL     1       6.379  -5.056  22.657  0.00  0.00    +0.083 A 
ATOM     32 CL   UNL     1       7.155  -6.393  21.881  0.00  0.00    -0.080 Cl
BRANCH  26  34
ATOM     33  C   UNL     1       4.466  -6.866  25.121  0.00  0.00    +0.277 C 
ATOM     34  O   UNL     1       4.972  -6.549  23.831  0.00  0.00    -0.494 OA
ENDBRANCH  26  34
ENDBRANCH  25  29
ENDBRANCH  23  25
ENDBRANCH   1  23
BRANCH   5  35
ATOM     35  C   UNL     1       7.511   4.285  22.240  0.00  0.00    +0.178 C 
BRANCH  35  36
ATOM     36  O   UNL     1       7.488   5.565  21.615  0.00  0.00    -0.393 OA
ATOM     37  H   UNL     1       7.717   6.207  22.318  0.00  0.00    +0.209 HD
ENDBRANCH  35  36
ENDBRANCH   5  35
TORSDOF 9
ENDMDL
MODEL 3
REMARK VINA RESULT:      -7.3      2.334      3.374
REMARK  Name = 
REMARK  10 active torsions:
REMARK  status: ('A' for Active; 'I' for Inactive)
REMARK    1  A    between atoms: C_1  and  O_2
REMARK    2  A    between atoms: O_2  and  C_3
REMARK    3  A    between atoms: C_7  and  C_8
REMARK    4  A    between atoms: C_8  and  N_9
REMARK    5  A    between atoms: N_9  and  C_10
REMARK    6  A    between atoms: C_11  and  C_24
REMARK    7  A    between atoms: C_20  and  C_22
REMARK    8  A    between atoms: C_22  and  O_23
REMARK    9  A    between atoms: N_26  and  C_27
REMARK   10  A    between atoms: C_27  and  C_28
REMARK                            x       y       z     vdW  Elec       q    Type
REMARK                         _______ _______ _______ _____ _____    ______ ____
ROOT
ATOM      1  C   UNL     1       8.987   0.897  24.600  0.00  0.00    +0.136 A 
ATOM      2  N   UNL     1       8.851   2.231  24.800  0.00  0.00    -0.199 NA
ATOM      3  C   UNL     1       8.575   3.034  23.752  0.00  0.00    +0.220 A 
ATOM      4  N   UNL     1       8.350   4.362  23.992  0.00  0.00    -0.294 N 
ATOM      5  C   UNL     1       8.746   5.037  25.228  0.00  0.00    +0.102 C 
ATOM      6  C   UNL     1       8.927   6.511  24.814  0.00  0.00    +0.026 C 
ATOM      7  C   UNL     1       8.750   6.561  23.302  0.00  0.00    +0.021 C 
ATOM      8  C   UNL     1       7.986   5.293  22.944  0.00  0.00    +0.108 C 
ATOM      9  N   UNL     1       8.439   2.563  22.509  0.00  0.00    -0.222 NA
ATOM     10  C   UNL     1       8.598   1.233  22.325  0.00  0.00    +0.131 A 
ATOM     11  C   UNL     1       8.857   0.335  23.338  0.00  0.00    +0.094 A 
ENDROOT
BRANCH  11  12
ATOM     12  C   UNL     1       9.006  -1.103  22.990  0.00  0.00    +0.249 C 
ATOM     13  N   UNL     1       7.868  -1.829  22.737  0.00  0.00    -0.304 N 
ATOM     14  H   UNL     1       6.956  -1.390  22.854  0.00  0.00    +0.149 HD
ATOM     15  O   UNL     1      10.127  -1.601  22.942  0.00  0.00    -0.270 OA
BRANCH  13  16
ATOM     16  C   UNL     1       7.886  -3.244  22.401  0.00  0.00    +0.180 C 
BRANCH  16  17
ATOM     17  C   UNL     1       6.611  -3.990  22.757  0.00  0.00    +0.146 A 
ATOM     18  N   UNL     1       6.659  -5.340  22.708  0.00  0.00    -0.239 NA
ATOM     19  C   UNL     1       5.522  -5.998  23.005  0.00  0.00    +0.114 A 
ATOM     20  C   UNL     1       4.351  -5.370  23.355  0.00  0.00    +0.039 A 
ATOM     21  C   UNL     1       4.403  -3.998  23.390  0.00  0.00    +0.114 A 
ATOM     22  N   UNL     1       5.511  -3.284  23.104  0.00  0.00    -0.239 NA
ENDBRANCH  16  17
ENDBRANCH  13  16
ENDBRANCH  11  12
BRANCH   1  23
ATOM     23  N   UNL     1       9.139   0.063  25.726  0.00  0.00    -0.324 N 
ATOM     24  H   UNL     1       9.525  -0.825  25.398  0.00  0.00    +0.148 HD
BRANCH  23  25
ATOM     25  C   UNL     1       7.949  -0.162  26.534  0.00  0.00    +0.138 C 
BRANCH  25  29
ATOM     26  C   UNL     1       7.036  -4.412  26.397  0.00  0.00    +0.138 A 
ATOM     27  C   UNL     1       6.044  -3.486  26.727  0.00  0.00    +0.047 A 
ATOM     28  C   UNL     1       6.335  -2.112  26.772  0.00  0.00    +0.009 A 
ATOM     29  C   UNL     1       7.618  -1.639  26.468  0.00  0.00    -0.029 A 
ATOM     30  C   UNL     1       8.620  -2.570  26.165  0.00  0.00    +0.028 A 
ATOM     31  C   UNL     1       8.333  -3.939  26.139  0.00  0.00    +0.083 A 
ATOM     32 CL   UNL     1       9.633  -5.027  25.797  0.00  0.00    -0.080 Cl
BRANCH  26  34
ATOM     33  C   UNL     1       5.576  -6.282  26.709  0.00  0.00    +0.277 C 
ATOM     34  O   UNL     1       6.848  -5.768  26.334  0.00  0.00    -0.494 OA
ENDBRANCH  26  34
ENDBRANCH  25  29
ENDBRANCH  23  25
ENDBRANCH   1  23
BRANCH   5  35
ATOM     35  C   UNL     1       7.647   4.932  26.307  0.00  0.00    +0.178 C 
BRANCH  35  36
ATOM     36  O   UNL     1       7.713   3.714  27.043  0.00  0.00    -0.393 OA
ATOM     37  H   UNL     1       8.292   3.120  26.523  0.00  0.00    +0.209 HD
ENDBRANCH  35  36
ENDBRANCH   5  35
TORSDOF 9
ENDMDL
MODEL 4
REMARK VINA RESULT:      -7.0      2.434      3.491
REMARK  Name = 
REMARK  10 active torsions:
REMARK  status: ('A' for Active; 'I' for Inactive)
REMARK    1  A    between atoms: C_1  and  O_2
REMARK    2  A    between atoms: O_2  and  C_3
REMARK    3  A    between atoms: C_7  and  C_8
REMARK    4  A    between atoms: C_8  and  N_9
REMARK    5  A    between atoms: N_9  and  C_10
REMARK    6  A    between atoms: C_11  and  C_24
REMARK    7  A    between atoms: C_20  and  C_22
REMARK    8  A    between atoms: C_22  and  O_23
REMARK    9  A    between atoms: N_26  and  C_27
REMARK   10  A    between atoms: C_27  and  C_28
REMARK                            x       y       z     vdW  Elec       q    Type
REMARK                         _______ _______ _______ _____ _____    ______ ____
ROOT
ATOM      1  C   UNL     1       9.101   1.143  24.972  0.00  0.00    +0.136 A 
ATOM      2  N   UNL     1       9.112   2.418  24.510  0.00  0.00    -0.199 NA
ATOM      3  C   UNL     1       8.212   3.304  24.987  0.00  0.00    +0.220 A 
ATOM      4  N   UNL     1       8.303   4.605  24.576  0.00  0.00    -0.294 N 
ATOM      5  C   UNL     1       9.052   5.029  23.393  0.00  0.00    +0.102 C 
ATOM      6  C   UNL     1       8.359   6.332  22.950  0.00  0.00    +0.026 C 
ATOM      7  C   UNL     1       7.143   6.503  23.851  0.00  0.00    +0.021 C 
ATOM      8  C   UNL     1       7.424   5.644  25.076  0.00  0.00    +0.108 C 
ATOM      9  N   UNL     1       7.295   2.969  25.898  0.00  0.00    -0.222 NA
ATOM     10  C   UNL     1       7.286   1.689  26.333  0.00  0.00    +0.131 A 
ATOM     11  C   UNL     1       8.179   0.723  25.921  0.00  0.00    +0.094 A 
ENDROOT
BRANCH  11  12
ATOM     12  C   UNL     1       8.053  -0.647  26.486  0.00  0.00    +0.249 C 
ATOM     13  N   UNL     1       6.891  -1.340  26.251  0.00  0.00    -0.304 N 
ATOM     14  H   UNL     1       6.126  -0.884  25.756  0.00  0.00    +0.149 HD
ATOM     15  O   UNL     1       8.977  -1.116  27.145  0.00  0.00    -0.270 OA
BRANCH  13  16
ATOM     16  C   UNL     1       6.647  -2.679  26.764  0.00  0.00    +0.180 C 
BRANCH  16  17
ATOM     17  C   UNL     1       5.665  -3.497  25.941  0.00  0.00    +0.146 A 
ATOM     18  N   UNL     1       5.532  -4.801  26.269  0.00  0.00    -0.239 NA
ATOM     19  C   UNL     1       4.674  -5.529  25.526  0.00  0.00    +0.114 A 
ATOM     20  C   UNL     1       3.945  -5.010  24.484  0.00  0.00    +0.039 A 
ATOM     21  C   UNL     1       4.138  -3.672  24.235  0.00  0.00    +0.114 A 
ATOM     22  N   UNL     1       4.981  -2.893  24.943  0.00  0.00    -0.239 NA
ENDBRANCH  16  17
ENDBRANCH  13  16
ENDBRANCH  11  12
BRANCH   1  23
ATOM     23  N   UNL     1      10.132   0.274  24.564  0.00  0.00    -0.324 N 
ATOM     24  H   UNL     1      11.020   0.748  24.746  0.00  0.00    +0.148 HD
BRANCH  23  25
ATOM     25  C   UNL     1      10.077  -0.202  23.190  0.00  0.00    +0.138 C 
BRANCH  25  29
ATOM     26  C   UNL     1       7.959  -4.000  23.248  0.00  0.00    +0.138 A 
ATOM     27  C   UNL     1       7.553  -2.976  22.388  0.00  0.00    +0.047 A 
ATOM     28  C   UNL     1       8.234  -1.748  22.367  0.00  0.00    +0.009 A 
ATOM     29  C   UNL     1       9.348  -1.529  23.189  0.00  0.00    -0.029 A 
ATOM     30  C   UNL     1       9.737  -2.546  24.071  0.00  0.00    +0.028 A 
ATOM     31  C   UNL     1       9.046  -3.761  24.104  0.00  0.00    +0.083 A 
ATOM     32 CL   UNL     1       9.564  -4.950  25.249  0.00  0.00    -0.080 Cl
BRANCH  26  34
ATOM     33  C   UNL     1       7.081  -5.929  22.138  0.00  0.00    +0.277 C 
ATOM     34  O   UNL     1       7.354  -5.226  23.343  0.00  0.00    -0.494 OA
ENDBRANCH  26  34
ENDBRANCH  25  29
ENDBRANCH  23  25
ENDBRANCH   1  23
BRANCH   5  35
ATOM     35  C   UNL     1      10.530   5.316  23.733  0.00  0.00    +0.178 C 
BRANCH  35  36
ATOM     36  O   UNL     1      11.406   4.274  23.310  0.00  0.00    -0.393 OA
ATOM     37  H   UNL     1      11.166   4.088  22.379  0.00  0.00    +0.209 HD
ENDBRANCH  35  36
ENDBRANCH   5  35
TORSDOF 9
ENDMDL
MODEL 5
REMARK VINA RESULT:      -6.8      2.144      3.108
REMARK  Name = 
REMARK  10 active torsions:
REMARK  status: ('A' for Active; 'I' for Inactive)
REMARK    1  A    between atoms: C_1  and  O_2
REMARK    2  A    between atoms: O_2  and  C_3
REMARK    3  A    between atoms: C_7  and  C_8
REMARK    4  A    between atoms: C_8  and  N_9
REMARK    5  A    between atoms: N_9  and  C_10
REMARK    6  A    between atoms: C_11  and  C_24
REMARK    7  A    between atoms: C_20  and  C_22
REMARK    8  A    between atoms: C_22  and  O_23
REMARK    9  A    between atoms: N_26  and  C_27
REMARK   10  A    between atoms: C_27  and  C_28
REMARK                            x       y       z     vdW  Elec       q    Type
REMARK                         _______ _______ _______ _____ _____    ______ ____
ROOT
ATOM      1  C   UNL     1       8.408   1.122  25.017  0.00  0.00    +0.136 A 
ATOM      2  N   UNL     1       8.761   2.394  24.706  0.00  0.00    -0.199 NA
ATOM      3  C   UNL     1       9.969   2.632  24.154  0.00  0.00    +0.220 A 
ATOM      4  N   UNL     1      10.264   3.909  23.764  0.00  0.00    -0.294 N 
ATOM      5  C   UNL     1       9.533   5.086  24.232  0.00  0.00    +0.102 C 
ATOM      6  C   UNL     1      10.551   6.237  24.118  0.00  0.00    +0.026 C 
ATOM      7  C   UNL     1      11.875   5.605  23.709  0.00  0.00    +0.021 C 
ATOM      8  C   UNL     1      11.508   4.255  23.106  0.00  0.00    +0.108 C 
ATOM      9  N   UNL     1      10.845   1.654  23.907  0.00  0.00    -0.222 NA
ATOM     10  C   UNL     1      10.485   0.395  24.242  0.00  0.00    +0.131 A 
ATOM     11  C   UNL     1       9.266   0.055  24.787  0.00  0.00    +0.094 A 
ENDROOT
BRANCH  11  12
ATOM     12  C   UNL     1       9.003  -1.375  25.103  0.00  0.00    +0.249 C 
ATOM     13  N   UNL     1       9.079  -2.288  24.081  0.00  0.00    -0.304 N 
ATOM     14  H   UNL     1       9.247  -1.964  23.129  0.00  0.00    +0.149 HD
ATOM     15  O   UNL     1       8.725  -1.698  26.254  0.00  0.00    -0.270 OA
BRANCH  13  16
ATOM     16  C   UNL     1       8.829  -3.709  24.265  0.00  0.00    +0.180 C 
BRANCH  16  17
ATOM     17  C   UNL     1       7.942  -4.334  23.200  0.00  0.00    +0.146 A 
ATOM     18  N   UNL     1       7.240  -3.486  22.416  0.00  0.00    -0.239 NA
ATOM     19  C   UNL     1       6.439  -4.043  21.486  0.00  0.00    +0.114 A 
ATOM     20  C   UNL     1       6.320  -5.399  21.302  0.00  0.00    +0.039 A 
ATOM     21  C   UNL     1       7.082  -6.179  22.137  0.00  0.00    +0.114 A 
ATOM     22  N   UNL     1       7.902  -5.680  23.086  0.00  0.00    -0.239 NA
ENDBRANCH  16  17
ENDBRANCH  13  16
ENDBRANCH  11  12
BRANCH   1  23
ATOM     23  N   UNL     1       7.094   0.882  25.463  0.00  0.00    -0.324 N 
ATOM     24  H   UNL     1       7.160   0.331  26.323  0.00  0.00    +0.148 HD
BRANCH  23  25
ATOM     25  C   UNL     1       6.190   0.246  24.515  0.00  0.00    +0.138 C 
BRANCH  25  29
ATOM     26  C   UNL     1       4.146  -2.967  26.617  0.00  0.00    +0.138 A 
ATOM     27  C   UNL     1       4.311  -1.718  27.221  0.00  0.00    +0.047 A 
ATOM     28  C   UNL     1       4.970  -0.678  26.546  0.00  0.00    +0.009 A 
ATOM     29  C   UNL     1       5.458  -0.861  25.245  0.00  0.00    -0.029 A 
ATOM     30  C   UNL     1       5.318  -2.122  24.650  0.00  0.00    +0.028 A 
ATOM     31  C   UNL     1       4.678  -3.161  25.332  0.00  0.00    +0.083 A 
ATOM     32 CL   UNL     1       4.581  -4.699  24.546  0.00  0.00    -0.080 Cl
BRANCH  26  34
ATOM     33  C   UNL     1       3.933  -4.416  28.508  0.00  0.00    +0.277 C 
ATOM     34  O   UNL     1       3.524  -4.040  27.199  0.00  0.00    -0.494 OA
ENDBRANCH  26  34
ENDBRANCH  25  29
ENDBRANCH  23  25
ENDBRANCH   1  23
BRANCH   5  35
ATOM     35  C   UNL     1       8.310   5.384  23.338  0.00  0.00    +0.178 C 
BRANCH  35  36
ATOM     36  O   UNL     1       8.145   4.428  22.294  0.00  0.00    -0.393 OA
ATOM     37  H   UNL     1       8.773   3.704  22.495  0.00  0.00    +0.209 HD
ENDBRANCH  35  36
ENDBRANCH   5  35
TORSDOF 9
ENDMDL
MODEL 6
REMARK VINA RESULT:      -6.7      3.011      8.399
REMARK  Name = 
REMARK  10 active torsions:
REMARK  status: ('A' for Active; 'I' for Inactive)
REMARK    1  A    between atoms: C_1  and  O_2
REMARK    2  A    between atoms: O_2  and  C_3
REMARK    3  A    between atoms: C_7  and  C_8
REMARK    4  A    between atoms: C_8  and  N_9
REMARK    5  A    between atoms: N_9  and  C_10
REMARK    6  A    between atoms: C_11  and  C_24
REMARK    7  A    between atoms: C_20  and  C_22
REMARK    8  A    between atoms: C_22  and  O_23
REMARK    9  A    between atoms: N_26  and  C_27
REMARK   10  A    between atoms: C_27  and  C_28
REMARK                            x       y       z     vdW  Elec       q    Type
REMARK                         _______ _______ _______ _____ _____    ______ ____
ROOT
ATOM      1  C   UNL     1       7.146  -3.631  25.280  0.00  0.00    +0.136 A 
ATOM      2  N   UNL     1       6.077  -4.378  25.649  0.00  0.00    -0.199 NA
ATOM      3  C   UNL     1       5.658  -5.380  24.846  0.00  0.00    +0.220 A 
ATOM      4  N   UNL     1       4.637  -6.178  25.283  0.00  0.00    -0.294 N 
ATOM      5  C   UNL     1       3.729  -5.807  26.368  0.00  0.00    +0.102 C 
ATOM      6  C   UNL     1       2.437  -6.592  26.069  0.00  0.00    +0.026 C 
ATOM      7  C   UNL     1       2.648  -7.275  24.724  0.00  0.00    +0.021 C 
ATOM      8  C   UNL     1       4.157  -7.315  24.524  0.00  0.00    +0.108 C 
ATOM      9  N   UNL     1       6.257  -5.660  23.686  0.00  0.00    -0.222 NA
ATOM     10  C   UNL     1       7.309  -4.892  23.324  0.00  0.00    +0.131 A 
ATOM     11  C   UNL     1       7.820  -3.866  24.089  0.00  0.00    +0.094 A 
ENDROOT
BRANCH  11  12
ATOM     12  C   UNL     1       8.986  -3.105  23.568  0.00  0.00    +0.249 C 
ATOM     13  N   UNL     1       8.771  -2.204  22.555  0.00  0.00    -0.304 N 
ATOM     14  H   UNL     1       7.841  -2.123  22.143  0.00  0.00    +0.149 HD
ATOM     15  O   UNL     1      10.099  -3.301  24.047  0.00  0.00    -0.270 OA
BRANCH  13  16
ATOM     16  C   UNL     1       9.834  -1.413  21.954  0.00  0.00    +0.180 C 
BRANCH  16  17
ATOM     17  C   UNL     1      10.023  -0.040  22.577  0.00  0.00    +0.146 A 
ATOM     18  N   UNL     1      10.355  -0.003  23.886  0.00  0.00    -0.239 NA
ATOM     19  C   UNL     1      10.503   1.217  24.440  0.00  0.00    +0.114 A 
ATOM     20  C   UNL     1      10.345   2.390  23.744  0.00  0.00    +0.039 A 
ATOM     21  C   UNL     1      10.021   2.251  22.416  0.00  0.00    +0.114 A 
ATOM     22  N   UNL     1       9.859   1.059  21.805  0.00  0.00    -0.239 NA
ENDBRANCH  16  17
ENDBRANCH  13  16
ENDBRANCH  11  12
BRANCH   1  23
ATOM     23  N   UNL     1       7.648  -2.684  26.195  0.00  0.00    -0.324 N 
ATOM     24  H   UNL     1       8.135  -3.200  26.931  0.00  0.00    +0.148 HD
BRANCH  23  25
ATOM     25  C   UNL     1       6.683  -1.757  26.768  0.00  0.00    +0.138 C 
BRANCH  25  29
ATOM     26  C   UNL     1       6.765   1.853  24.345  0.00  0.00    +0.138 A 
ATOM     27  C   UNL     1       6.447   0.620  23.768  0.00  0.00    +0.047 A 
ATOM     28  C   UNL     1       6.420  -0.548  24.547  0.00  0.00    +0.009 A 
ATOM     29  C   UNL     1       6.688  -0.501  25.922  0.00  0.00    -0.029 A 
ATOM     30  C   UNL     1       7.034   0.730  26.494  0.00  0.00    +0.028 A 
ATOM     31  C   UNL     1       7.079   1.889  25.712  0.00  0.00    +0.083 A 
ATOM     32 CL   UNL     1       7.555   3.362  26.484  0.00  0.00    -0.080 Cl
BRANCH  26  34
ATOM     33  C   UNL     1       6.391   3.054  22.309  0.00  0.00    +0.277 C 
ATOM     34  O   UNL     1       6.823   3.041  23.665  0.00  0.00    -0.494 OA
ENDBRANCH  26  34
ENDBRANCH  25  29
ENDBRANCH  23  25
ENDBRANCH   1  23
BRANCH   5  35
ATOM     35  C   UNL     1       4.288  -6.231  27.743  0.00  0.00    +0.178 C 
BRANCH  35  36
ATOM     36  O   UNL     1       5.605  -6.770  27.660  0.00  0.00    -0.393 OA
ATOM     37  H   UNL     1       6.039  -6.543  28.507  0.00  0.00    +0.209 HD
ENDBRANCH  35  36
ENDBRANCH   5  35
TORSDOF 9
ENDMDL
MODEL 7
REMARK VINA RESULT:      -6.7      2.746      8.565
REMARK  Name = 
REMARK  10 active torsions:
REMARK  status: ('A' for Active; 'I' for Inactive)
REMARK    1  A    between atoms: C_1  and  O_2
REMARK    2  A    between atoms: O_2  and  C_3
REMARK    3  A    between atoms: C_7  and  C_8
REMARK    4  A    between atoms: C_8  and  N_9
REMARK    5  A    between atoms: N_9  and  C_10
REMARK    6  A    between atoms: C_11  and  C_24
REMARK    7  A    between atoms: C_20  and  C_22
REMARK    8  A    between atoms: C_22  and  O_23
REMARK    9  A    between atoms: N_26  and  C_27
REMARK   10  A    between atoms: C_27  and  C_28
REMARK                            x       y       z     vdW  Elec       q    Type
REMARK                         _______ _______ _______ _____ _____    ______ ____
ROOT
ATOM      1  C   UNL     1       7.335  -2.451  25.368  0.00  0.00    +0.136 A 
ATOM      2  N   UNL     1       6.686  -3.531  24.868  0.00  0.00    -0.199 NA
ATOM      3  C   UNL     1       5.354  -3.468  24.658  0.00  0.00    +0.220 A 
ATOM      4  N   UNL     1       4.738  -4.536  24.066  0.00  0.00    -0.294 N 
ATOM      5  C   UNL     1       5.335  -5.869  23.985  0.00  0.00    +0.102 C 
ATOM      6  C   UNL     1       4.127  -6.821  23.894  0.00  0.00    +0.026 C 
ATOM      7  C   UNL     1       2.883  -5.960  24.069  0.00  0.00    +0.021 C 
ATOM      8  C   UNL     1       3.326  -4.540  23.742  0.00  0.00    +0.108 C 
ATOM      9  N   UNL     1       4.641  -2.373  24.936  0.00  0.00    -0.222 NA
ATOM     10  C   UNL     1       5.300  -1.312  25.453  0.00  0.00    +0.131 A 
ATOM     11  C   UNL     1       6.660  -1.278  25.679  0.00  0.00    +0.094 A 
ENDROOT
BRANCH  11  12
ATOM     12  C   UNL     1       7.253  -0.040  26.251  0.00  0.00    +0.249 C 
ATOM     13  N   UNL     1       7.025   1.147  25.601  0.00  0.00    -0.304 N 
ATOM     14  H   UNL     1       6.515   1.147  24.718  0.00  0.00    +0.149 HD
ATOM     15  O   UNL     1       7.928  -0.111  27.274  0.00  0.00    -0.270 OA
BRANCH  13  16
ATOM     16  C   UNL     1       7.564   2.419  26.056  0.00  0.00    +0.180 C 
BRANCH  16  17
ATOM     17  C   UNL     1       7.578   3.510  24.998  0.00  0.00    +0.146 A 
ATOM     18  N   UNL     1       8.297   4.620  25.275  0.00  0.00    -0.239 NA
ATOM     19  C   UNL     1       8.292   5.594  24.344  0.00  0.00    +0.114 A 
ATOM     20  C   UNL     1       7.613   5.501  23.154  0.00  0.00    +0.039 A 
ATOM     21  C   UNL     1       6.922   4.330  22.956  0.00  0.00    +0.114 A 
ATOM     22  N   UNL     1       6.890   3.320  23.850  0.00  0.00    -0.239 NA
ENDBRANCH  16  17
ENDBRANCH  13  16
ENDBRANCH  11  12
BRANCH   1  23
ATOM     23  N   UNL     1       8.741  -2.493  25.450  0.00  0.00    -0.324 N 
ATOM     24  H   UNL     1       9.034  -1.725  26.059  0.00  0.00    +0.148 HD
BRANCH  23  25
ATOM     25  C   UNL     1       9.468  -2.454  24.189  0.00  0.00    +0.138 C 
BRANCH  25  29
ATOM     26  C   UNL     1      10.152   1.733  23.232  0.00  0.00    +0.138 A 
ATOM     27  C   UNL     1      10.770   1.150  24.341  0.00  0.00    +0.047 A 
ATOM     28  C   UNL     1      10.551  -0.201  24.654  0.00  0.00    +0.009 A 
ATOM     29  C   UNL     1       9.728  -1.001  23.850  0.00  0.00    -0.029 A 
ATOM     30  C   UNL     1       9.087  -0.410  22.754  0.00  0.00    +0.028 A 
ATOM     31  C   UNL     1       9.291   0.941  22.455  0.00  0.00    +0.083 A 
ATOM     32 CL   UNL     1       8.431   1.607  21.110  0.00  0.00    -0.080 Cl
BRANCH  26  34
ATOM     33  C   UNL     1      11.395   3.771  23.393  0.00  0.00    +0.277 C 
ATOM     34  O   UNL     1      10.300   3.042  22.853  0.00  0.00    -0.494 OA
ENDBRANCH  26  34
ENDBRANCH  25  29
ENDBRANCH  23  25
ENDBRANCH   1  23
BRANCH   5  35
ATOM     35  C   UNL     1       6.212  -6.019  22.723  0.00  0.00    +0.178 C 
BRANCH  35  36
ATOM     36  O   UNL     1       7.561  -5.612  22.938  0.00  0.00    -0.393 OA
ATOM     37  H   UNL     1       7.555  -5.105  23.776  0.00  0.00    +0.209 HD
ENDBRANCH  35  36
ENDBRANCH   5  35
TORSDOF 9
ENDMDL
MODEL 8
REMARK VINA RESULT:      -6.6      2.903      8.242
REMARK  Name = 
REMARK  10 active torsions:
REMARK  status: ('A' for Active; 'I' for Inactive)
REMARK    1  A    between atoms: C_1  and  O_2
REMARK    2  A    between atoms: O_2  and  C_3
REMARK    3  A    between atoms: C_7  and  C_8
REMARK    4  A    between atoms: C_8  and  N_9
REMARK    5  A    between atoms: N_9  and  C_10
REMARK    6  A    between atoms: C_11  and  C_24
REMARK    7  A    between atoms: C_20  and  C_22
REMARK    8  A    between atoms: C_22  and  O_23
REMARK    9  A    between atoms: N_26  and  C_27
REMARK   10  A    between atoms: C_27  and  C_28
REMARK                            x       y       z     vdW  Elec       q    Type
REMARK                         _______ _______ _______ _____ _____    ______ ____
ROOT
ATOM      1  C   UNL     1       8.739  -0.992  25.633  0.00  0.00    +0.136 A 
ATOM      2  N   UNL     1       8.078  -2.175  25.613  0.00  0.00    -0.199 NA
ATOM      3  C   UNL     1       8.140  -2.951  24.509  0.00  0.00    +0.220 A 
ATOM      4  N   UNL     1       7.544  -4.181  24.546  0.00  0.00    -0.294 N 
ATOM      5  C   UNL     1       6.541  -4.563  25.540  0.00  0.00    +0.102 C 
ATOM      6  C   UNL     1       5.711  -5.657  24.842  0.00  0.00    +0.026 C 
ATOM      7  C   UNL     1       6.219  -5.737  23.408  0.00  0.00    +0.021 C 
ATOM      8  C   UNL     1       7.607  -5.111  23.437  0.00  0.00    +0.108 C 
ATOM      9  N   UNL     1       8.826  -2.588  23.422  0.00  0.00    -0.222 NA
ATOM     10  C   UNL     1       9.461  -1.396  23.452  0.00  0.00    +0.131 A 
ATOM     11  C   UNL     1       9.474  -0.551  24.541  0.00  0.00    +0.094 A 
ENDROOT
BRANCH  11  12
ATOM     12  C   UNL     1      10.219   0.732  24.436  0.00  0.00    +0.249 C 
ATOM     13  N   UNL     1       9.518   1.861  24.094  0.00  0.00    -0.304 N 
ATOM     14  H   UNL     1       8.529   1.787  23.860  0.00  0.00    +0.149 HD
ATOM     15  O   UNL     1      11.428   0.747  24.650  0.00  0.00    -0.270 OA
BRANCH  13  16
ATOM     16  C   UNL     1      10.139   3.168  23.946  0.00  0.00    +0.180 C 
BRANCH  16  17
ATOM     17  C   UNL     1       9.208   4.251  23.426  0.00  0.00    +0.146 A 
ATOM     18  N   UNL     1       8.089   3.840  22.791  0.00  0.00    -0.239 NA
ATOM     19  C   UNL     1       7.274   4.803  22.314  0.00  0.00    +0.114 A 
ATOM     20  C   UNL     1       7.525   6.146  22.453  0.00  0.00    +0.039 A 
ATOM     21  C   UNL     1       8.680   6.466  23.125  0.00  0.00    +0.114 A 
ATOM     22  N   UNL     1       9.534   5.548  23.625  0.00  0.00    -0.239 NA
ENDBRANCH  16  17
ENDBRANCH  13  16
ENDBRANCH  11  12
BRANCH   1  23
ATOM     23  N   UNL     1       8.773  -0.265  26.840  0.00  0.00    -0.324 N 
ATOM     24  H   UNL     1       9.435  -0.738  27.461  0.00  0.00    +0.148 HD
BRANCH  23  25
ATOM     25  C   UNL     1       7.498  -0.057  27.512  0.00  0.00    +0.138 C 
BRANCH  25  29
ATOM     26  C   UNL     1       5.390   3.030  25.289  0.00  0.00    +0.138 A 
ATOM     27  C   UNL     1       4.982   1.696  25.207  0.00  0.00    +0.047 A 
ATOM     28  C   UNL     1       5.661   0.696  25.923  0.00  0.00    +0.009 A 
ATOM     29  C   UNL     1       6.746   1.015  26.751  0.00  0.00    -0.029 A 
ATOM     30  C   UNL     1       7.171   2.349  26.810  0.00  0.00    +0.028 A 
ATOM     31  C   UNL     1       6.506   3.340  26.082  0.00  0.00    +0.083 A 
ATOM     32 CL   UNL     1       7.118   4.955  26.176  0.00  0.00    -0.080 Cl
BRANCH  26  34
ATOM     33  C   UNL     1       3.925   3.757  23.542  0.00  0.00    +0.277 C 
ATOM     34  O   UNL     1       4.795   4.070  24.623  0.00  0.00    -0.494 OA
ENDBRANCH  26  34
ENDBRANCH  25  29
ENDBRANCH  23  25
ENDBRANCH   1  23
BRANCH   5  35
ATOM     35  C   UNL     1       7.199  -5.142  26.811  0.00  0.00    +0.178 C 
BRANCH  35  36
ATOM     36  O   UNL     1       8.411  -5.839  26.537  0.00  0.00    -0.393 OA
ATOM     37  H   UNL     1       9.058  -5.153  26.274  0.00  0.00    +0.209 HD
ENDBRANCH  35  36
ENDBRANCH   5  35
TORSDOF 9
ENDMDL
MODEL 9
REMARK VINA RESULT:      -6.5      2.660      4.774
REMARK  Name = 
REMARK  10 active torsions:
REMARK  status: ('A' for Active; 'I' for Inactive)
REMARK    1  A    between atoms: C_1  and  O_2
REMARK    2  A    between atoms: O_2  and  C_3
REMARK    3  A    between atoms: C_7  and  C_8
REMARK    4  A    between atoms: C_8  and  N_9
REMARK    5  A    between atoms: N_9  and  C_10
REMARK    6  A    between atoms: C_11  and  C_24
REMARK    7  A    between atoms: C_20  and  C_22
REMARK    8  A    between atoms: C_22  and  O_23
REMARK    9  A    between atoms: N_26  and  C_27
REMARK   10  A    between atoms: C_27  and  C_28
REMARK                            x       y       z     vdW  Elec       q    Type
REMARK                         _______ _______ _______ _____ _____    ______ ____
ROOT
ATOM      1  C   UNL     1       8.458   1.007  25.046  0.00  0.00    +0.136 A 
ATOM      2  N   UNL     1       8.817   2.273  24.717  0.00  0.00    -0.199 NA
ATOM      3  C   UNL     1      10.041   2.502  24.196  0.00  0.00    +0.220 A 
ATOM      4  N   UNL     1      10.345   3.770  23.786  0.00  0.00    -0.294 N 
ATOM      5  C   UNL     1       9.597   4.956  24.204  0.00  0.00    +0.102 C 
ATOM      6  C   UNL     1      10.615   6.107  24.094  0.00  0.00    +0.026 C 
ATOM      7  C   UNL     1      11.952   5.469  23.740  0.00  0.00    +0.021 C 
ATOM      8  C   UNL     1      11.607   4.105  23.157  0.00  0.00    +0.108 C 
ATOM      9  N   UNL     1      10.926   1.521  23.998  0.00  0.00    -0.222 NA
ATOM     10  C   UNL     1      10.559   0.268  24.351  0.00  0.00    +0.131 A 
ATOM     11  C   UNL     1       9.324  -0.063  24.867  0.00  0.00    +0.094 A 
ENDROOT
BRANCH  11  12
ATOM     12  C   UNL     1       9.056  -1.485  25.208  0.00  0.00    +0.249 C 
ATOM     13  N   UNL     1       9.254  -2.432  24.235  0.00  0.00    -0.304 N 
ATOM     14  H   UNL     1       9.516  -2.139  23.294  0.00  0.00    +0.149 HD
ATOM     15  O   UNL     1       8.664  -1.772  26.335  0.00  0.00    -0.270 OA
BRANCH  13  16
ATOM     16  C   UNL     1       9.012  -3.851  24.445  0.00  0.00    +0.180 C 
BRANCH  16  17
ATOM     17  C   UNL     1       7.854  -4.417  23.639  0.00  0.00    +0.146 A 
ATOM     18  N   UNL     1       6.670  -3.774  23.738  0.00  0.00    -0.239 NA
ATOM     19  C   UNL     1       5.640  -4.289  23.037  0.00  0.00    +0.114 A 
ATOM     20  C   UNL     1       5.746  -5.404  22.243  0.00  0.00    +0.039 A 
ATOM     21  C   UNL     1       6.992  -5.981  22.195  0.00  0.00    +0.114 A 
ATOM     22  N   UNL     1       8.060  -5.512  22.873  0.00  0.00    -0.239 NA
ENDBRANCH  16  17
ENDBRANCH  13  16
ENDBRANCH  11  12
BRANCH   1  23
ATOM     23  N   UNL     1       7.131   0.773  25.459  0.00  0.00    -0.324 N 
ATOM     24  H   UNL     1       7.147  -0.025  26.098  0.00  0.00    +0.148 HD
BRANCH  23  25
ATOM     25  C   UNL     1       6.148   0.568  24.405  0.00  0.00    +0.138 C 
BRANCH  25  29
ATOM     26  C   UNL     1       4.583   4.486  23.353  0.00  0.00    +0.138 A 
ATOM     27  C   UNL     1       5.246   3.710  22.400  0.00  0.00    +0.047 A 
ATOM     28  C   UNL     1       5.754   2.444  22.735  0.00  0.00    +0.009 A 
ATOM     29  C   UNL     1       5.587   1.922  24.026  0.00  0.00    -0.029 A 
ATOM     30  C   UNL     1       4.947   2.712  24.988  0.00  0.00    +0.028 A 
ATOM     31  C   UNL     1       4.459   3.980  24.657  0.00  0.00    +0.083 A 
ATOM     32 CL   UNL     1       3.717   4.911  25.913  0.00  0.00    -0.080 Cl
BRANCH  26  34
ATOM     33  C   UNL     1       4.970   6.816  22.967  0.00  0.00    +0.277 C 
ATOM     34  O   UNL     1       4.061   5.732  23.121  0.00  0.00    -0.494 OA
ENDBRANCH  26  34
ENDBRANCH  25  29
ENDBRANCH  23  25
ENDBRANCH   1  23
BRANCH   5  35
ATOM     35  C   UNL     1       8.401   5.229  23.267  0.00  0.00    +0.178 C 
BRANCH  35  36
ATOM     36  O   UNL     1       8.606   6.360  22.426  0.00  0.00    -0.393 OA
ATOM     37  H   UNL     1       9.344   6.117  21.830  0.00  0.00    +0.209 HD
ENDBRANCH  35  36
ENDBRANCH   5  35
TORSDOF 9
ENDMDL
