MODEL 1
REMARK VINA RESULT:      -6.6      0.000      0.000
REMARK  Name = 
REMARK  5 active torsions:
REMARK  status: ('A' for Active; 'I' for Inactive)
REMARK    1  A    between atoms: O5*_1  and  C5*_2
REMARK    2  A    between atoms: C5*_2  and  C4*_3
REMARK    3  A    between atoms: C1*_6  and  N_14
REMARK    4  A    between atoms: C2*_8  and  O2*_10
REMARK    5  A    between atoms: C3*_11  and  O3*_13
REMARK                            x       y       z     vdW  Elec       q    Type
REMARK                         _______ _______ _______ _____ _____    ______ ____
ROOT
ATOM      1  C4* UNL     1       8.594  -4.727  26.686  0.00  0.00    +0.000 C 
ATOM      2  C3* UNL     1       9.189  -5.214  25.355  0.00  0.00    +0.000 C 
ATOM      3  C2* UNL     1       9.045  -4.006  24.431  0.00  0.00    +0.000 C 
ATOM      4  C1* UNL     1       8.336  -2.979  25.320  0.00  0.00    +0.000 C 
ATOM      5  O4* UNL     1       8.634  -3.315  26.657  0.00  0.00    +0.000 OA
ENDROOT
BRANCH   4   6
ATOM      6  N   UNL     1       8.776  -1.613  25.035  0.00  0.00    +0.000 N 
ATOM      7  C   UNL     1       9.054  -1.073  23.841  0.00  0.00    +0.000 A 
ATOM      8  N   UNL     1       8.980  -1.664  22.626  0.00  0.00    +0.000 NA
ATOM      9  C   UNL     1       9.318  -0.923  21.531  0.00  0.00    +0.000 A 
ATOM     10  N   UNL     1       9.729   0.380  21.669  0.00  0.00    +0.000 N 
ATOM     11  H   UNL     1       9.986   0.918  20.812  0.00  0.00    +0.000 HD
ATOM     12  C   UNL     1       9.809   0.973  22.901  0.00  0.00    +0.000 A 
ATOM     13 SE   UNL     1      10.342   2.626  23.067  0.00  0.00    +0.000 Se
ATOM     14  C   UNL     1       9.455   0.208  24.009  0.00  0.00    +0.000 A 
ATOM     15  N   UNL     1       9.442   0.527  25.317  0.00  0.00    +0.000 NA
ATOM     16  C   UNL     1       9.020  -0.616  25.923  0.00  0.00    +0.000 A 
ENDBRANCH   4   6
BRANCH   2  17
ATOM     17  O3* UNL     1      10.553  -5.542  25.507  0.00  0.00    +0.000 OA
ATOM     18  H3* UNL     1      10.660  -6.079  26.339  0.00  0.00    +0.000 HD
ENDBRANCH   2  17
BRANCH   3  19
ATOM     19  O2* UNL     1       8.307  -4.307  23.277  0.00  0.00    +0.000 OA
ATOM     20  H2* UNL     1       8.520  -3.598  22.617  0.00  0.00    +0.000 HD
ENDBRANCH   3  19
BRANCH   1  21
ATOM     21  C5* UNL     1       7.154  -5.223  26.922  0.00  0.00    +0.000 C 
BRANCH  21  22
ATOM     22  O5* UNL     1       7.125  -6.029  28.068  0.00  0.00    +0.000 OA
ATOM     23  H5* UNL     1       6.593  -6.831  27.832  0.00  0.00    +0.000 HD
ENDBRANCH  21  22
ENDBRANCH   1  21
TORSDOF 5
ENDMDL
MODEL 2
REMARK VINA RESULT:      -6.5      3.786      5.982
REMARK  Name = 
REMARK  5 active torsions:
REMARK  status: ('A' for Active; 'I' for Inactive)
REMARK    1  A    between atoms: O5*_1  and  C5*_2
REMARK    2  A    between atoms: C5*_2  and  C4*_3
REMARK    3  A    between atoms: C1*_6  and  N_14
REMARK    4  A    between atoms: C2*_8  and  O2*_10
REMARK    5  A    between atoms: C3*_11  and  O3*_13
REMARK                            x       y       z     vdW  Elec       q    Type
REMARK                         _______ _______ _______ _____ _____    ______ ____
ROOT
ATOM      1  C4* UNL     1       9.465   0.997  23.445  0.00  0.00    +0.000 C 
ATOM      2  C3* UNL     1       9.738   0.594  21.986  0.00  0.00    +0.000 C 
ATOM      3  C2* UNL     1       9.391  -0.892  21.950  0.00  0.00    +0.000 C 
ATOM      4  C1* UNL     1       9.006  -1.188  23.404  0.00  0.00    +0.000 C 
ATOM      5  O4* UNL     1       8.581   0.030  23.974  0.00  0.00    +0.000 OA
ENDROOT
BRANCH   4   6
ATOM      6  N   UNL     1       7.939  -2.185  23.495  0.00  0.00    +0.000 N 
ATOM      7  C   UNL     1       7.834  -3.197  24.367  0.00  0.00    +0.000 A 
ATOM      8  N   UNL     1       8.683  -3.518  25.370  0.00  0.00    +0.000 NA
ATOM      9  C   UNL     1       8.382  -4.603  26.142  0.00  0.00    +0.000 A 
ATOM     10  N   UNL     1       7.253  -5.345  25.894  0.00  0.00    +0.000 N 
ATOM     11  H   UNL     1       7.054  -6.172  26.500  0.00  0.00    +0.000 HD
ATOM     12  C   UNL     1       6.399  -5.019  24.874  0.00  0.00    +0.000 A 
ATOM     13 SE   UNL     1       4.972  -5.974  24.562  0.00  0.00    +0.000 Se
ATOM     14  C   UNL     1       6.714  -3.908  24.099  0.00  0.00    +0.000 A 
ATOM     15  N   UNL     1       6.068  -3.369  23.048  0.00  0.00    +0.000 NA
ATOM     16  C   UNL     1       6.848  -2.311  22.697  0.00  0.00    +0.000 A 
ENDBRANCH   4   6
BRANCH   2  17
ATOM     17  O3* UNL     1       8.898   1.306  21.105  0.00  0.00    +0.000 OA
ATOM     18  H3* UNL     1       8.482   2.061  21.602  0.00  0.00    +0.000 HD
ENDBRANCH   2  17
BRANCH   3  19
ATOM     19  O2* UNL     1      10.469  -1.678  21.518  0.00  0.00    +0.000 OA
ATOM     20  H2* UNL     1      10.400  -1.727  20.529  0.00  0.00    +0.000 HD
ENDBRANCH   3  19
BRANCH   1  21
ATOM     21  C5* UNL     1      10.745   1.087  24.298  0.00  0.00    +0.000 C 
BRANCH  21  22
ATOM     22  O5* UNL     1      10.467   0.634  25.595  0.00  0.00    +0.000 OA
ATOM     23  H5* UNL     1      10.755  -0.314  25.627  0.00  0.00    +0.000 HD
ENDBRANCH  21  22
ENDBRANCH   1  21
TORSDOF 5
ENDMDL
MODEL 3
REMARK VINA RESULT:      -6.5      1.506      2.369
REMARK  Name = 
REMARK  5 active torsions:
REMARK  status: ('A' for Active; 'I' for Inactive)
REMARK    1  A    between atoms: O5*_1  and  C5*_2
REMARK    2  A    between atoms: C5*_2  and  C4*_3
REMARK    3  A    between atoms: C1*_6  and  N_14
REMARK    4  A    between atoms: C2*_8  and  O2*_10
REMARK    5  A    between atoms: C3*_11  and  O3*_13
REMARK                            x       y       z     vdW  Elec       q    Type
REMARK                         _______ _______ _______ _____ _____    ______ ____
ROOT
ATOM      1  C4* UNL     1       6.981  -4.941  23.819  0.00  0.00    +0.000 C 
ATOM      2  C3* UNL     1       7.894  -5.379  24.977  0.00  0.00    +0.000 C 
ATOM      3  C2* UNL     1       9.005  -4.331  24.978  0.00  0.00    +0.000 C 
ATOM      4  C1* UNL     1       8.635  -3.439  23.788  0.00  0.00    +0.000 C 
ATOM      5  O4* UNL     1       7.244  -3.572  23.591  0.00  0.00    +0.000 OA
ENDROOT
BRANCH   4   6
ATOM      6  N   UNL     1       8.977  -2.038  24.028  0.00  0.00    +0.000 N 
ATOM      7  C   UNL     1       9.154  -1.069  23.119  0.00  0.00    +0.000 A 
ATOM      8  N   UNL     1       9.043  -1.165  21.773  0.00  0.00    +0.000 NA
ATOM      9  C   UNL     1       9.274  -0.044  21.030  0.00  0.00    +0.000 A 
ATOM     10  N   UNL     1       9.617   1.139  21.638  0.00  0.00    +0.000 N 
ATOM     11  H   UNL     1       9.792   1.977  21.040  0.00  0.00    +0.000 HD
ATOM     12  C   UNL     1       9.734   1.230  23.000  0.00  0.00    +0.000 A 
ATOM     13 SE   UNL     1      10.179   2.736  23.762  0.00  0.00    +0.000 Se
ATOM     14  C   UNL     1       9.490   0.082  23.746  0.00  0.00    +0.000 A 
ATOM     15  N   UNL     1       9.534  -0.116  25.077  0.00  0.00    +0.000 NA
ATOM     16  C   UNL     1       9.215  -1.431  25.219  0.00  0.00    +0.000 A 
ENDBRANCH   4   6
BRANCH   2  17
ATOM     17  O3* UNL     1       7.198  -5.341  26.204  0.00  0.00    +0.000 OA
ATOM     18  H3* UNL     1       6.260  -5.054  26.029  0.00  0.00    +0.000 HD
ENDBRANCH   2  17
BRANCH   3  19
ATOM     19  O2* UNL     1      10.275  -4.907  24.833  0.00  0.00    +0.000 OA
ATOM     20  H2* UNL     1      10.519  -4.809  23.876  0.00  0.00    +0.000 HD
ENDBRANCH   3  19
BRANCH   1  21
ATOM     21  C5* UNL     1       7.205  -5.758  22.532  0.00  0.00    +0.000 C 
BRANCH  21  22
ATOM     22  O5* UNL     1       6.081  -6.560  22.294  0.00  0.00    +0.000 OA
ATOM     23  H5* UNL     1       6.405  -7.497  22.273  0.00  0.00    +0.000 HD
ENDBRANCH  21  22
ENDBRANCH   1  21
TORSDOF 5
ENDMDL
MODEL 4
REMARK VINA RESULT:      -6.5      1.192      2.118
REMARK  Name = 
REMARK  5 active torsions:
REMARK  status: ('A' for Active; 'I' for Inactive)
REMARK    1  A    between atoms: O5*_1  and  C5*_2
REMARK    2  A    between atoms: C5*_2  and  C4*_3
REMARK    3  A    between atoms: C1*_6  and  N_14
REMARK    4  A    between atoms: C2*_8  and  O2*_10
REMARK    5  A    between atoms: C3*_11  and  O3*_13
REMARK                            x       y       z     vdW  Elec       q    Type
REMARK                         _______ _______ _______ _____ _____    ______ ____
ROOT
ATOM      1  C4* UNL     1       8.699  -4.726  26.397  0.00  0.00    +0.000 C 
ATOM      2  C3* UNL     1       8.676  -5.289  24.966  0.00  0.00    +0.000 C 
ATOM      3  C2* UNL     1       8.476  -4.052  24.094  0.00  0.00    +0.000 C 
ATOM      4  C1* UNL     1       8.357  -2.923  25.123  0.00  0.00    +0.000 C 
ATOM      5  O4* UNL     1       9.025  -3.355  26.288  0.00  0.00    +0.000 OA
ENDROOT
BRANCH   4   6
ATOM      6  N   UNL     1       8.947  -1.676  24.638  0.00  0.00    +0.000 N 
ATOM      7  C   UNL     1       8.638  -0.425  25.005  0.00  0.00    +0.000 A 
ATOM      8  N   UNL     1       7.719  -0.031  25.918  0.00  0.00    +0.000 NA
ATOM      9  C   UNL     1       7.563   1.307  26.134  0.00  0.00    +0.000 A 
ATOM     10  N   UNL     1       8.314   2.220  25.435  0.00  0.00    +0.000 N 
ATOM     11  H   UNL     1       8.166   3.237  25.620  0.00  0.00    +0.000 HD
ATOM     12  C   UNL     1       9.239   1.818  24.508  0.00  0.00    +0.000 A 
ATOM     13 SE   UNL     1      10.182   2.987  23.619  0.00  0.00    +0.000 Se
ATOM     14  C   UNL     1       9.393   0.451  24.302  0.00  0.00    +0.000 A 
ATOM     15  N   UNL     1      10.211  -0.216  23.465  0.00  0.00    +0.000 NA
ATOM     16  C   UNL     1       9.911  -1.523  23.695  0.00  0.00    +0.000 A 
ENDBRANCH   4   6
BRANCH   2  17
ATOM     17  O3* UNL     1       9.904  -5.907  24.652  0.00  0.00    +0.000 OA
ATOM     18  H3* UNL     1      10.219  -6.413  25.449  0.00  0.00    +0.000 HD
ENDBRANCH   2  17
BRANCH   3  19
ATOM     19  O2* UNL     1       7.336  -4.153  23.284  0.00  0.00    +0.000 OA
ATOM     20  H2* UNL     1       7.658  -4.408  22.380  0.00  0.00    +0.000 HD
ENDBRANCH   3  19
BRANCH   1  21
ATOM     21  C5* UNL     1       7.362  -4.908  27.141  0.00  0.00    +0.000 C 
BRANCH  21  22
ATOM     22  O5* UNL     1       7.418  -6.077  27.910  0.00  0.00    +0.000 OA
ATOM     23  H5* UNL     1       7.740  -5.806  28.808  0.00  0.00    +0.000 HD
ENDBRANCH  21  22
ENDBRANCH   1  21
TORSDOF 5
ENDMDL
MODEL 5
REMARK VINA RESULT:      -6.3      2.876      3.515
REMARK  Name = 
REMARK  5 active torsions:
REMARK  status: ('A' for Active; 'I' for Inactive)
REMARK    1  A    between atoms: O5*_1  and  C5*_2
REMARK    2  A    between atoms: C5*_2  and  C4*_3
REMARK    3  A    between atoms: C1*_6  and  N_14
REMARK    4  A    between atoms: C2*_8  and  O2*_10
REMARK    5  A    between atoms: C3*_11  and  O3*_13
REMARK                            x       y       z     vdW  Elec       q    Type
REMARK                         _______ _______ _______ _____ _____    ______ ____
ROOT
ATOM      1  C4* UNL     1       6.020  -6.038  23.097  0.00  0.00    +0.000 C 
ATOM      2  C3* UNL     1       5.864  -5.391  21.711  0.00  0.00    +0.000 C 
ATOM      3  C2* UNL     1       6.312  -3.948  21.932  0.00  0.00    +0.000 C 
ATOM      4  C1* UNL     1       6.627  -3.914  23.431  0.00  0.00    +0.000 C 
ATOM      5  O4* UNL     1       6.933  -5.236  23.818  0.00  0.00    +0.000 OA
ENDROOT
BRANCH   4   6
ATOM      6  N   UNL     1       7.751  -3.029  23.735  0.00  0.00    +0.000 N 
ATOM      7  C   UNL     1       7.777  -1.690  23.687  0.00  0.00    +0.000 A 
ATOM      8  N   UNL     1       6.766  -0.852  23.360  0.00  0.00    +0.000 NA
ATOM      9  C   UNL     1       7.016   0.490  23.372  0.00  0.00    +0.000 A 
ATOM     10  N   UNL     1       8.263   0.965  23.697  0.00  0.00    +0.000 N 
ATOM     11  H   UNL     1       8.423   1.997  23.692  0.00  0.00    +0.000 HD
ATOM     12  C   UNL     1       9.285   0.113  24.021  0.00  0.00    +0.000 A 
ATOM     13 SE   UNL     1      10.868   0.727  24.425  0.00  0.00    +0.000 Se
ATOM     14  C   UNL     1       9.015  -1.251  24.012  0.00  0.00    +0.000 A 
ATOM     15  N   UNL     1       9.818  -2.299  24.281  0.00  0.00    +0.000 NA
ATOM     16  C   UNL     1       9.010  -3.379  24.100  0.00  0.00    +0.000 A 
ENDBRANCH   4   6
BRANCH   2  17
ATOM     17  O3* UNL     1       6.707  -6.017  20.769  0.00  0.00    +0.000 OA
ATOM     18  H3* UNL     1       6.145  -6.556  20.148  0.00  0.00    +0.000 HD
ENDBRANCH   2  17
BRANCH   3  19
ATOM     19  O2* UNL     1       5.318  -3.024  21.578  0.00  0.00    +0.000 OA
ATOM     20  H2* UNL     1       4.566  -3.553  21.206  0.00  0.00    +0.000 HD
ENDBRANCH   3  19
BRANCH   1  21
ATOM     21  C5* UNL     1       4.687  -6.162  23.860  0.00  0.00    +0.000 C 
BRANCH  21  22
ATOM     22  O5* UNL     1       4.402  -7.517  24.073  0.00  0.00    +0.000 OA
ATOM     23  H5* UNL     1       5.275  -7.989  24.074  0.00  0.00    +0.000 HD
ENDBRANCH  21  22
ENDBRANCH   1  21
TORSDOF 5
ENDMDL
MODEL 6
REMARK VINA RESULT:      -6.3      4.066      6.605
REMARK  Name = 
REMARK  5 active torsions:
REMARK  status: ('A' for Active; 'I' for Inactive)
REMARK    1  A    between atoms: O5*_1  and  C5*_2
REMARK    2  A    between atoms: C5*_2  and  C4*_3
REMARK    3  A    between atoms: C1*_6  and  N_14
REMARK    4  A    between atoms: C2*_8  and  O2*_10
REMARK    5  A    between atoms: C3*_11  and  O3*_13
REMARK                            x       y       z     vdW  Elec       q    Type
REMARK                         _______ _______ _______ _____ _____    ______ ____
ROOT
ATOM      1  C4* UNL     1      10.090   2.982  23.969  0.00  0.00    +0.000 C 
ATOM      2  C3* UNL     1       8.858   2.951  23.048  0.00  0.00    +0.000 C 
ATOM      3  C2* UNL     1       8.881   1.542  22.461  0.00  0.00    +0.000 C 
ATOM      4  C1* UNL     1      10.151   0.938  23.071  0.00  0.00    +0.000 C 
ATOM      5  O4* UNL     1      10.406   1.638  24.268  0.00  0.00    +0.000 OA
ENDROOT
BRANCH   4   6
ATOM      6  N   UNL     1      10.000  -0.490  23.346  0.00  0.00    +0.000 N 
ATOM      7  C   UNL     1       9.417  -1.065  24.406  0.00  0.00    +0.000 A 
ATOM      8  N   UNL     1       8.821  -0.454  25.457  0.00  0.00    +0.000 NA
ATOM      9  C   UNL     1       8.291  -1.240  26.439  0.00  0.00    +0.000 A 
ATOM     10  N   UNL     1       8.371  -2.608  26.358  0.00  0.00    +0.000 N 
ATOM     11  H   UNL     1       7.960  -3.180  27.128  0.00  0.00    +0.000 HD
ATOM     12  C   UNL     1       8.979  -3.222  25.296  0.00  0.00    +0.000 A 
ATOM     13 SE   UNL     1       9.084  -4.962  25.207  0.00  0.00    +0.000 Se
ATOM     14  C   UNL     1       9.511  -2.410  24.299  0.00  0.00    +0.000 A 
ATOM     15  N   UNL     1      10.156  -2.737  23.163  0.00  0.00    +0.000 NA
ATOM     16  C   UNL     1      10.445  -1.533  22.599  0.00  0.00    +0.000 A 
ENDBRANCH   4   6
BRANCH   2  17
ATOM     17  O3* UNL     1       7.674   3.144  23.791  0.00  0.00    +0.000 OA
ATOM     18  H3* UNL     1       7.096   2.340  23.683  0.00  0.00    +0.000 HD
ENDBRANCH   2  17
BRANCH   3  19
ATOM     19  O2* UNL     1       8.919   1.552  21.060  0.00  0.00    +0.000 OA
ATOM     20  H2* UNL     1       8.992   0.605  20.775  0.00  0.00    +0.000 HD
ENDBRANCH   3  19
BRANCH   1  21
ATOM     21  C5* UNL     1      11.300   3.697  23.336  0.00  0.00    +0.000 C 
BRANCH  21  22
ATOM     22  O5* UNL     1      10.947   5.018  23.030  0.00  0.00    +0.000 OA
ATOM     23  H5* UNL     1      10.949   5.514  23.889  0.00  0.00    +0.000 HD
ENDBRANCH  21  22
ENDBRANCH   1  21
TORSDOF 5
ENDMDL
MODEL 7
REMARK VINA RESULT:      -6.1      2.809      3.906
REMARK  Name = 
REMARK  5 active torsions:
REMARK  status: ('A' for Active; 'I' for Inactive)
REMARK    1  A    between atoms: O5*_1  and  C5*_2
REMARK    2  A    between atoms: C5*_2  and  C4*_3
REMARK    3  A    between atoms: C1*_6  and  N_14
REMARK    4  A    between atoms: C2*_8  and  O2*_10
REMARK    5  A    between atoms: C3*_11  and  O3*_13
REMARK                            x       y       z     vdW  Elec       q    Type
REMARK                         _______ _______ _______ _____ _____    ______ ____
ROOT
ATOM      1  C4* UNL     1       7.674  -2.214  23.759  0.00  0.00    +0.000 C 
ATOM      2  C3* UNL     1       9.017  -2.724  23.210  0.00  0.00    +0.000 C 
ATOM      3  C2* UNL     1       9.693  -1.463  22.678  0.00  0.00    +0.000 C 
ATOM      4  C1* UNL     1       8.642  -0.378  22.934  0.00  0.00    +0.000 C 
ATOM      5  O4* UNL     1       7.832  -0.830  23.997  0.00  0.00    +0.000 OA
ENDROOT
BRANCH   4   6
ATOM      6  N   UNL     1       9.253   0.906  23.279  0.00  0.00    +0.000 N 
ATOM      7  C   UNL     1       8.767   2.133  23.051  0.00  0.00    +0.000 A 
ATOM      8  N   UNL     1       7.594   2.465  22.461  0.00  0.00    +0.000 NA
ATOM      9  C   UNL     1       7.298   3.790  22.324  0.00  0.00    +0.000 A 
ATOM     10  N   UNL     1       8.174   4.751  22.766  0.00  0.00    +0.000 N 
ATOM     11  H   UNL     1       7.920   5.756  22.642  0.00  0.00    +0.000 HD
ATOM     12  C   UNL     1       9.362   4.411  23.357  0.00  0.00    +0.000 A 
ATOM     13 SE   UNL     1      10.473   5.640  23.907  0.00  0.00    +0.000 Se
ATOM     14  C   UNL     1       9.649   3.057  23.496  0.00  0.00    +0.000 A 
ATOM     15  N   UNL     1      10.726   2.446  24.026  0.00  0.00    +0.000 NA
ATOM     16  C   UNL     1      10.452   1.122  23.876  0.00  0.00    +0.000 A 
ENDBRANCH   4   6
BRANCH   2  17
ATOM     17  O3* UNL     1       9.796  -3.289  24.242  0.00  0.00    +0.000 OA
ATOM     18  H3* UNL     1      10.606  -3.704  23.838  0.00  0.00    +0.000 HD
ENDBRANCH   2  17
BRANCH   3  19
ATOM     19  O2* UNL     1      10.022  -1.572  21.320  0.00  0.00    +0.000 OA
ATOM     20  H2* UNL     1      10.040  -0.646  20.962  0.00  0.00    +0.000 HD
ENDBRANCH   3  19
BRANCH   1  21
ATOM     21  C5* UNL     1       6.493  -2.468  22.801  0.00  0.00    +0.000 C 
BRANCH  21  22
ATOM     22  O5* UNL     1       6.836  -3.493  21.909  0.00  0.00    +0.000 OA
ATOM     23  H5* UNL     1       6.901  -4.322  22.449  0.00  0.00    +0.000 HD
ENDBRANCH  21  22
ENDBRANCH   1  21
TORSDOF 5
ENDMDL
MODEL 8
REMARK VINA RESULT:      -6.1      4.174      6.102
REMARK  Name = 
REMARK  5 active torsions:
REMARK  status: ('A' for Active; 'I' for Inactive)
REMARK    1  A    between atoms: O5*_1  and  C5*_2
REMARK    2  A    between atoms: C5*_2  and  C4*_3
REMARK    3  A    between atoms: C1*_6  and  N_14
REMARK    4  A    between atoms: C2*_8  and  O2*_10
REMARK    5  A    between atoms: C3*_11  and  O3*_13
REMARK                            x       y       z     vdW  Elec       q    Type
REMARK                         _______ _______ _______ _____ _____    ______ ____
ROOT
ATOM      1  C4* UNL     1       9.526  -0.672  23.589  0.00  0.00    +0.000 C 
ATOM      2  C3* UNL     1       8.528   0.322  24.206  0.00  0.00    +0.000 C 
ATOM      3  C2* UNL     1       7.190  -0.410  24.125  0.00  0.00    +0.000 C 
ATOM      4  C1* UNL     1       7.561  -1.721  23.424  0.00  0.00    +0.000 C 
ATOM      5  O4* UNL     1       8.930  -1.950  23.674  0.00  0.00    +0.000 OA
ENDROOT
BRANCH   4   6
ATOM      6  N   UNL     1       6.765  -2.847  23.914  0.00  0.00    +0.000 N 
ATOM      7  C   UNL     1       6.479  -3.989  23.275  0.00  0.00    +0.000 A 
ATOM      8  N   UNL     1       6.873  -4.367  22.036  0.00  0.00    +0.000 NA
ATOM      9  C   UNL     1       6.458  -5.583  21.575  0.00  0.00    +0.000 A 
ATOM     10  N   UNL     1       5.658  -6.387  22.348  0.00  0.00    +0.000 N 
ATOM     11  H   UNL     1       5.354  -7.309  21.964  0.00  0.00    +0.000 HD
ATOM     12  C   UNL     1       5.257  -5.999  23.599  0.00  0.00    +0.000 A 
ATOM     13 SE   UNL     1       4.232  -7.025  24.570  0.00  0.00    +0.000 Se
ATOM     14  C   UNL     1       5.692  -4.760  24.060  0.00  0.00    +0.000 A 
ATOM     15  N   UNL     1       5.453  -4.134  25.228  0.00  0.00    +0.000 NA
ATOM     16  C   UNL     1       6.126  -2.957  25.106  0.00  0.00    +0.000 A 
ENDBRANCH   4   6
BRANCH   2  17
ATOM     17  O3* UNL     1       8.852   0.584  25.554  0.00  0.00    +0.000 OA
ATOM     18  H3* UNL     1       9.479  -0.121  25.873  0.00  0.00    +0.000 HD
ENDBRANCH   2  17
BRANCH   3  19
ATOM     19  O2* UNL     1       6.230   0.320  23.410  0.00  0.00    +0.000 OA
ATOM     20  H2* UNL     1       5.392  -0.211  23.446  0.00  0.00    +0.000 HD
ENDBRANCH   3  19
BRANCH   1  21
ATOM     21  C5* UNL     1       9.886  -0.339  22.128  0.00  0.00    +0.000 C 
BRANCH  21  22
ATOM     22  O5* UNL     1      10.309  -1.507  21.480  0.00  0.00    +0.000 OA
ATOM     23  H5* UNL     1      10.618  -2.125  22.191  0.00  0.00    +0.000 HD
ENDBRANCH  21  22
ENDBRANCH   1  21
TORSDOF 5
ENDMDL
MODEL 9
REMARK VINA RESULT:      -6.1      4.637      6.872
REMARK  Name = 
REMARK  5 active torsions:
REMARK  status: ('A' for Active; 'I' for Inactive)
REMARK    1  A    between atoms: O5*_1  and  C5*_2
REMARK    2  A    between atoms: C5*_2  and  C4*_3
REMARK    3  A    between atoms: C1*_6  and  N_14
REMARK    4  A    between atoms: C2*_8  and  O2*_10
REMARK    5  A    between atoms: C3*_11  and  O3*_13
REMARK                            x       y       z     vdW  Elec       q    Type
REMARK                         _______ _______ _______ _____ _____    ______ ____
ROOT
ATOM      1  C4* UNL     1       7.656   4.486  23.676  0.00  0.00    +0.000 C 
ATOM      2  C3* UNL     1       7.476   3.906  22.263  0.00  0.00    +0.000 C 
ATOM      3  C2* UNL     1       8.071   2.504  22.368  0.00  0.00    +0.000 C 
ATOM      4  C1* UNL     1       8.572   2.453  23.815  0.00  0.00    +0.000 C 
ATOM      5  O4* UNL     1       7.809   3.385  24.549  0.00  0.00    +0.000 OA
ENDROOT
BRANCH   4   6
ATOM      6  N   UNL     1       8.431   1.119  24.397  0.00  0.00    +0.000 N 
ATOM      7  C   UNL     1       9.041  -0.011  24.016  0.00  0.00    +0.000 A 
ATOM      8  N   UNL     1       9.937  -0.173  23.014  0.00  0.00    +0.000 NA
ATOM      9  C   UNL     1      10.433  -1.425  22.793  0.00  0.00    +0.000 A 
ATOM     10  N   UNL     1      10.022  -2.485  23.564  0.00  0.00    +0.000 N 
ATOM     11  H   UNL     1      10.417  -3.431  23.366  0.00  0.00    +0.000 HD
ATOM     12  C   UNL     1       9.111  -2.318  24.573  0.00  0.00    +0.000 A 
ATOM     13 SE   UNL     1       8.589  -3.674  25.541  0.00  0.00    +0.000 Se
ATOM     14  C   UNL     1       8.618  -1.036  24.791  0.00  0.00    +0.000 A 
ATOM     15  N   UNL     1       7.725  -0.590  25.696  0.00  0.00    +0.000 NA
ATOM     16  C   UNL     1       7.631   0.741  25.426  0.00  0.00    +0.000 A 
ENDBRANCH   4   6
BRANCH   2  17
ATOM     17  O3* UNL     1       6.108   3.824  21.927  0.00  0.00    +0.000 OA
ATOM     18  H3* UNL     1       5.674   3.154  22.522  0.00  0.00    +0.000 HD
ENDBRANCH   2  17
BRANCH   3  19
ATOM     19  O2* UNL     1       9.103   2.296  21.442  0.00  0.00    +0.000 OA
ATOM     20  H2* UNL     1       8.989   2.985  20.737  0.00  0.00    +0.000 HD
ENDBRANCH   3  19
BRANCH   1  21
ATOM     21  C5* UNL     1       8.861   5.439  23.789  0.00  0.00    +0.000 C 
BRANCH  21  22
ATOM     22  O5* UNL     1       9.030   6.115  22.574  0.00  0.00    +0.000 OA
ATOM     23  H5* UNL     1       8.153   6.523  22.355  0.00  0.00    +0.000 HD
ENDBRANCH  21  22
ENDBRANCH   1  21
TORSDOF 5
ENDMDL
