MODEL 1
REMARK VINA RESULT:      -5.2      0.000      0.000
REMARK  Name = 
REMARK  26 active torsions:
REMARK  status: ('A' for Active; 'I' for Inactive)
REMARK    1  A    between atoms: C_1  and  C_2
REMARK    2  A    between atoms: C_2  and  C_3
REMARK    3  A    between atoms: C_3  and  C_4
REMARK    4  A    between atoms: C_4  and  C_5
REMARK    5  A    between atoms: C_5  and  C_6
REMARK    6  A    between atoms: C_6  and  C_7
REMARK    7  A    between atoms: C_7  and  C_8
REMARK    8  A    between atoms: C_8  and  C_9
REMARK    9  A    between atoms: C_9  and  C_10
REMARK   10  A    between atoms: C_10  and  C_11
REMARK   11  A    between atoms: C_11  and  C_12
REMARK   12  A    between atoms: C_12  and  O_14
REMARK   13  A    between atoms: O_14  and  C_15
REMARK   14  A    between atoms: C_15  and  C_16
REMARK   15  A    between atoms: C_16  and  O_18
REMARK   16  A    between atoms: C_16  and  C_19
REMARK   17  A    between atoms: C_19  and  O_20
REMARK   18  A    between atoms: O_20  and  P_21
REMARK   19  A    between atoms: P_21  and  O_22
REMARK   20  A    between atoms: P_21  and  O_24
REMARK   21  A    between atoms: O_24  and  C_25
REMARK   22  A    between atoms: C_25  and  C_26
REMARK   23  A    between atoms: C_26  and  N_27
REMARK   24  A    between atoms: N_27  and  C_28
REMARK   25  A    between atoms: N_27  and  C_29
REMARK   26  A    between atoms: N_27  and  C_30
REMARK                            x       y       z     vdW  Elec       q    Type
REMARK                         _______ _______ _______ _____ _____    ______ ____
ROOT
ATOM      1  C   UNL     1       9.333  -4.874  25.354  0.00  0.00    +0.178 C 
ENDROOT
BRANCH   1   2
ATOM      2  O   UNL     1       9.837  -6.219  25.424  0.00  0.00    -0.386 OA
ATOM      3  H   UNL     1       9.494  -6.696  24.647  0.00  0.00    +0.210 HD
ENDBRANCH   1   2
BRANCH   1   4
ATOM      4  C   UNL     1       8.824  -4.504  26.762  0.00  0.00    +0.207 C 
BRANCH   4   5
ATOM      5  O   UNL     1       8.034  -5.579  27.282  0.00  0.00    -0.284 OA
BRANCH   5   6
ATOM      6  P   UNL     1       6.476  -5.471  27.657  0.00  0.00    +0.475 P 
ATOM      7  O   UNL     1       5.853  -4.158  27.332  0.00  0.00    -0.227 OA
BRANCH   6   8
ATOM      8  O   UNL     1       6.411  -5.828  29.214  0.00  0.00    -0.302 OA
ATOM      9  H   UNL     1       5.644  -6.331  29.525  0.00  0.00    +0.222 HD
ENDBRANCH   6   8
BRANCH   6  10
ATOM     10  O   UNL     1       5.704  -6.695  26.920  0.00  0.00    -0.281 OA
BRANCH  10  11
ATOM     11  C   UNL     1       4.515  -6.441  26.183  0.00  0.00    +0.223 C 
BRANCH  11  12
ATOM     12  C   UNL     1       4.434  -6.854  24.691  0.00  0.00    +0.161 C 
BRANCH  12  13
ATOM     13  N   UNL     1       4.111  -5.766  23.648  0.00  0.00    +0.239 N 
ATOM     14  C   UNL     1       2.707  -6.037  23.073  0.00  0.00    +0.192 C 
ATOM     15  C   UNL     1       5.095  -5.756  22.491  0.00  0.00    +0.192 C 
ATOM     16  C   UNL     1       4.076  -4.396  24.319  0.00  0.00    +0.192 C 
ENDBRANCH  12  13
ENDBRANCH  11  12
ENDBRANCH  10  11
ENDBRANCH   6  10
ENDBRANCH   5   6
ENDBRANCH   4   5
ENDBRANCH   1   4
BRANCH   1  17
ATOM     17  C   UNL     1       8.238  -4.828  24.269  0.00  0.00    +0.265 C 
BRANCH  17  18
ATOM     18  O   UNL     1       7.598  -3.525  24.270  0.00  0.00    -0.462 OA
BRANCH  18  19
ATOM     19  C   UNL     1       7.754  -2.774  23.150  0.00  0.00    +0.307 C 
ATOM     20  O   UNL     1       7.407  -3.134  22.021  0.00  0.00    -0.251 OA
BRANCH  19  21
ATOM     21  C   UNL     1       8.286  -1.394  23.465  0.00  0.00    +0.120 C 
BRANCH  21  22
ATOM     22  C   UNL     1       9.322  -1.363  24.586  0.00  0.00    +0.011 C 
BRANCH  22  23
ATOM     23  C   UNL     1       9.541   0.068  25.098  0.00  0.00    +0.001 C 
BRANCH  23  24
ATOM     24  C   UNL     1      10.684   0.754  24.349  0.00  0.00    +0.000 C 
BRANCH  24  25
ATOM     25  C   UNL     1      10.197   1.948  23.525  0.00  0.00    +0.000 C 
BRANCH  25  26
ATOM     26  C   UNL     1      10.096   1.579  22.043  0.00  0.00    +0.000 C 
BRANCH  26  27
ATOM     27  C   UNL     1       8.643   1.522  21.572  0.00  0.00    -0.000 C 
BRANCH  27  28
ATOM     28  C   UNL     1       7.848   2.725  22.085  0.00  0.00    -0.000 C 
BRANCH  28  29
ATOM     29  C   UNL     1       6.490   2.296  22.639  0.00  0.00    -0.000 C 
BRANCH  29  31
ATOM     30  C   UNL     1       5.755   0.931  24.622  0.00  0.00    +0.004 C 
ATOM     31  C   UNL     1       6.524   2.159  24.161  0.00  0.00    -0.003 C 
ENDBRANCH  29  31
ENDBRANCH  28  29
ENDBRANCH  27  28
ENDBRANCH  26  27
ENDBRANCH  25  26
ENDBRANCH  24  25
ENDBRANCH  23  24
ENDBRANCH  22  23
ENDBRANCH  21  22
ENDBRANCH  19  21
ENDBRANCH  18  19
ENDBRANCH  17  18
ENDBRANCH   1  17
TORSDOF 22
ENDMDL
MODEL 2
REMARK VINA RESULT:      -5.2      1.872      2.844
REMARK  Name = 
REMARK  26 active torsions:
REMARK  status: ('A' for Active; 'I' for Inactive)
REMARK    1  A    between atoms: C_1  and  C_2
REMARK    2  A    between atoms: C_2  and  C_3
REMARK    3  A    between atoms: C_3  and  C_4
REMARK    4  A    between atoms: C_4  and  C_5
REMARK    5  A    between atoms: C_5  and  C_6
REMARK    6  A    between atoms: C_6  and  C_7
REMARK    7  A    between atoms: C_7  and  C_8
REMARK    8  A    between atoms: C_8  and  C_9
REMARK    9  A    between atoms: C_9  and  C_10
REMARK   10  A    between atoms: C_10  and  C_11
REMARK   11  A    between atoms: C_11  and  C_12
REMARK   12  A    between atoms: C_12  and  O_14
REMARK   13  A    between atoms: O_14  and  C_15
REMARK   14  A    between atoms: C_15  and  C_16
REMARK   15  A    between atoms: C_16  and  O_18
REMARK   16  A    between atoms: C_16  and  C_19
REMARK   17  A    between atoms: C_19  and  O_20
REMARK   18  A    between atoms: O_20  and  P_21
REMARK   19  A    between atoms: P_21  and  O_22
REMARK   20  A    between atoms: P_21  and  O_24
REMARK   21  A    between atoms: O_24  and  C_25
REMARK   22  A    between atoms: C_25  and  C_26
REMARK   23  A    between atoms: C_26  and  N_27
REMARK   24  A    between atoms: N_27  and  C_28
REMARK   25  A    between atoms: N_27  and  C_29
REMARK   26  A    between atoms: N_27  and  C_30
REMARK                            x       y       z     vdW  Elec       q    Type
REMARK                         _______ _______ _______ _____ _____    ______ ____
ROOT
ATOM      1  C   UNL     1       9.097  -4.502  25.423  0.00  0.00    +0.178 C 
ENDROOT
BRANCH   1   2
ATOM      2  O   UNL     1      10.297  -5.197  25.044  0.00  0.00    -0.386 OA
ATOM      3  H   UNL     1      10.699  -5.544  25.862  0.00  0.00    +0.210 HD
ENDBRANCH   1   2
BRANCH   1   4
ATOM      4  C   UNL     1       7.940  -5.520  25.358  0.00  0.00    +0.207 C 
BRANCH   4   5
ATOM      5  O   UNL     1       6.807  -4.999  26.061  0.00  0.00    -0.284 OA
BRANCH   5   6
ATOM      6  P   UNL     1       6.222  -5.604  27.429  0.00  0.00    +0.475 P 
ATOM      7  O   UNL     1       5.423  -4.641  28.238  0.00  0.00    -0.227 OA
BRANCH   6   8
ATOM      8  O   UNL     1       7.504  -6.161  28.204  0.00  0.00    -0.302 OA
ATOM      9  H   UNL     1       8.107  -6.738  27.711  0.00  0.00    +0.222 HD
ENDBRANCH   6   8
BRANCH   6  10
ATOM     10  O   UNL     1       5.357  -6.927  27.055  0.00  0.00    -0.281 OA
BRANCH  10  11
ATOM     11  C   UNL     1       4.182  -6.805  26.265  0.00  0.00    +0.223 C 
BRANCH  11  12
ATOM     12  C   UNL     1       4.256  -7.047  24.736  0.00  0.00    +0.161 C 
BRANCH  12  13
ATOM     13  N   UNL     1       3.877  -5.888  23.794  0.00  0.00    +0.239 N 
ATOM     14  C   UNL     1       5.037  -5.658  22.805  0.00  0.00    +0.192 C 
ATOM     15  C   UNL     1       3.634  -4.586  24.536  0.00  0.00    +0.192 C 
ATOM     16  C   UNL     1       2.645  -6.263  22.976  0.00  0.00    +0.192 C 
ENDBRANCH  12  13
ENDBRANCH  11  12
ENDBRANCH  10  11
ENDBRANCH   6  10
ENDBRANCH   5   6
ENDBRANCH   4   5
ENDBRANCH   1   4
BRANCH   1  17
ATOM     17  C   UNL     1       8.917  -3.300  24.472  0.00  0.00    +0.265 C 
BRANCH  17  18
ATOM     18  O   UNL     1      10.193  -2.947  23.877  0.00  0.00    -0.462 OA
BRANCH  18  19
ATOM     19  C   UNL     1      10.240  -1.769  23.203  0.00  0.00    +0.307 C 
ATOM     20  O   UNL     1      10.551  -1.665  22.013  0.00  0.00    -0.251 OA
BRANCH  19  21
ATOM     21  C   UNL     1       9.743  -0.617  24.047  0.00  0.00    +0.120 C 
BRANCH  21  22
ATOM     22  C   UNL     1      10.825   0.390  24.431  0.00  0.00    +0.011 C 
BRANCH  22  23
ATOM     23  C   UNL     1      10.463   1.801  23.947  0.00  0.00    +0.001 C 
BRANCH  23  24
ATOM     24  C   UNL     1      10.134   1.807  22.453  0.00  0.00    +0.000 C 
BRANCH  24  25
ATOM     25  C   UNL     1       8.796   2.489  22.161  0.00  0.00    +0.000 C 
BRANCH  25  26
ATOM     26  C   UNL     1       8.358   3.353  23.346  0.00  0.00    +0.000 C 
BRANCH  26  27
ATOM     27  C   UNL     1       7.759   4.683  22.886  0.00  0.00    -0.000 C 
BRANCH  27  28
ATOM     28  C   UNL     1       8.663   5.857  23.267  0.00  0.00    -0.000 C 
BRANCH  28  29
ATOM     29  C   UNL     1       9.659   5.457  24.357  0.00  0.00    -0.000 C 
BRANCH  29  31
ATOM     30  C   UNL     1      11.960   5.149  23.384  0.00  0.00    +0.004 C 
ATOM     31  C   UNL     1      11.028   6.096  24.124  0.00  0.00    -0.003 C 
ENDBRANCH  29  31
ENDBRANCH  28  29
ENDBRANCH  27  28
ENDBRANCH  26  27
ENDBRANCH  25  26
ENDBRANCH  24  25
ENDBRANCH  23  24
ENDBRANCH  22  23
ENDBRANCH  21  22
ENDBRANCH  19  21
ENDBRANCH  18  19
ENDBRANCH  17  18
ENDBRANCH   1  17
TORSDOF 22
ENDMDL
MODEL 3
REMARK VINA RESULT:      -5.2      1.501      1.988
REMARK  Name = 
REMARK  26 active torsions:
REMARK  status: ('A' for Active; 'I' for Inactive)
REMARK    1  A    between atoms: C_1  and  C_2
REMARK    2  A    between atoms: C_2  and  C_3
REMARK    3  A    between atoms: C_3  and  C_4
REMARK    4  A    between atoms: C_4  and  C_5
REMARK    5  A    between atoms: C_5  and  C_6
REMARK    6  A    between atoms: C_6  and  C_7
REMARK    7  A    between atoms: C_7  and  C_8
REMARK    8  A    between atoms: C_8  and  C_9
REMARK    9  A    between atoms: C_9  and  C_10
REMARK   10  A    between atoms: C_10  and  C_11
REMARK   11  A    between atoms: C_11  and  C_12
REMARK   12  A    between atoms: C_12  and  O_14
REMARK   13  A    between atoms: O_14  and  C_15
REMARK   14  A    between atoms: C_15  and  C_16
REMARK   15  A    between atoms: C_16  and  O_18
REMARK   16  A    between atoms: C_16  and  C_19
REMARK   17  A    between atoms: C_19  and  O_20
REMARK   18  A    between atoms: O_20  and  P_21
REMARK   19  A    between atoms: P_21  and  O_22
REMARK   20  A    between atoms: P_21  and  O_24
REMARK   21  A    between atoms: O_24  and  C_25
REMARK   22  A    between atoms: C_25  and  C_26
REMARK   23  A    between atoms: C_26  and  N_27
REMARK   24  A    between atoms: N_27  and  C_28
REMARK   25  A    between atoms: N_27  and  C_29
REMARK   26  A    between atoms: N_27  and  C_30
REMARK                            x       y       z     vdW  Elec       q    Type
REMARK                         _______ _______ _______ _____ _____    ______ ____
ROOT
ATOM      1  C   UNL     1       9.357  -4.648  26.069  0.00  0.00    +0.178 C 
ENDROOT
BRANCH   1   2
ATOM      2  O   UNL     1      10.223  -5.566  25.380  0.00  0.00    -0.386 OA
ATOM      3  H   UNL     1      10.634  -5.077  24.645  0.00  0.00    +0.210 HD
ENDBRANCH   1   2
BRANCH   1   4
ATOM      4  C   UNL     1       8.175  -5.468  26.627  0.00  0.00    +0.207 C 
BRANCH   4   5
ATOM      5  O   UNL     1       6.961  -4.725  26.464  0.00  0.00    -0.284 OA
BRANCH   5   6
ATOM      6  P   UNL     1       5.504  -5.250  26.887  0.00  0.00    +0.475 P 
ATOM      7  O   UNL     1       4.818  -4.410  27.908  0.00  0.00    -0.227 OA
BRANCH   6   8
ATOM      8  O   UNL     1       5.742  -6.755  27.369  0.00  0.00    -0.302 OA
ATOM      9  H   UNL     1       6.534  -7.208  27.041  0.00  0.00    +0.222 HD
ENDBRANCH   6   8
BRANCH   6  10
ATOM     10  O   UNL     1       4.615  -5.385  25.534  0.00  0.00    -0.281 OA
BRANCH  10  11
ATOM     11  C   UNL     1       5.189  -5.949  24.362  0.00  0.00    +0.223 C 
BRANCH  11  12
ATOM     12  C   UNL     1       5.053  -5.209  23.007  0.00  0.00    +0.161 C 
BRANCH  12  13
ATOM     13  N   UNL     1       6.309  -5.058  22.127  0.00  0.00    +0.239 N 
ATOM     14  C   UNL     1       6.619  -3.557  21.964  0.00  0.00    +0.192 C 
ATOM     15  C   UNL     1       6.125  -5.649  20.740  0.00  0.00    +0.192 C 
ATOM     16  C   UNL     1       7.508  -5.702  22.817  0.00  0.00    +0.192 C 
ENDBRANCH  12  13
ENDBRANCH  11  12
ENDBRANCH  10  11
ENDBRANCH   6  10
ENDBRANCH   5   6
ENDBRANCH   4   5
ENDBRANCH   1   4
BRANCH   1  17
ATOM     17  C   UNL     1       8.931  -3.550  25.072  0.00  0.00    +0.265 C 
BRANCH  17  18
ATOM     18  O   UNL     1      10.010  -3.287  24.138  0.00  0.00    -0.462 OA
BRANCH  18  19
ATOM     19  C   UNL     1      10.012  -2.066  23.545  0.00  0.00    +0.307 C 
ATOM     20  O   UNL     1      10.612  -1.806  22.498  0.00  0.00    -0.251 OA
BRANCH  19  21
ATOM     21  C   UNL     1       9.088  -1.096  24.248  0.00  0.00    +0.120 C 
BRANCH  21  22
ATOM     22  C   UNL     1       9.789  -0.169  25.237  0.00  0.00    +0.011 C 
BRANCH  22  23
ATOM     23  C   UNL     1       9.663   1.299  24.804  0.00  0.00    +0.001 C 
BRANCH  23  24
ATOM     24  C   UNL     1      10.797   1.695  23.856  0.00  0.00    +0.000 C 
BRANCH  24  25
ATOM     25  C   UNL     1      10.282   2.447  22.627  0.00  0.00    +0.000 C 
BRANCH  25  26
ATOM     26  C   UNL     1       9.588   1.489  21.656  0.00  0.00    +0.000 C 
BRANCH  26  27
ATOM     27  C   UNL     1       8.097   1.801  21.522  0.00  0.00    -0.000 C 
BRANCH  27  28
ATOM     28  C   UNL     1       7.737   3.096  22.252  0.00  0.00    -0.000 C 
BRANCH  28  29
ATOM     29  C   UNL     1       6.506   2.908  23.139  0.00  0.00    -0.000 C 
BRANCH  29  31
ATOM     30  C   UNL     1       5.955   1.164  24.867  0.00  0.00    +0.004 C 
ATOM     31  C   UNL     1       6.222   1.428  23.394  0.00  0.00    -0.003 C 
ENDBRANCH  29  31
ENDBRANCH  28  29
ENDBRANCH  27  28
ENDBRANCH  26  27
ENDBRANCH  25  26
ENDBRANCH  24  25
ENDBRANCH  23  24
ENDBRANCH  22  23
ENDBRANCH  21  22
ENDBRANCH  19  21
ENDBRANCH  18  19
ENDBRANCH  17  18
ENDBRANCH   1  17
TORSDOF 22
ENDMDL
MODEL 4
REMARK VINA RESULT:      -5.2      1.480      2.401
REMARK  Name = 
REMARK  26 active torsions:
REMARK  status: ('A' for Active; 'I' for Inactive)
REMARK    1  A    between atoms: C_1  and  C_2
REMARK    2  A    between atoms: C_2  and  C_3
REMARK    3  A    between atoms: C_3  and  C_4
REMARK    4  A    between atoms: C_4  and  C_5
REMARK    5  A    between atoms: C_5  and  C_6
REMARK    6  A    between atoms: C_6  and  C_7
REMARK    7  A    between atoms: C_7  and  C_8
REMARK    8  A    between atoms: C_8  and  C_9
REMARK    9  A    between atoms: C_9  and  C_10
REMARK   10  A    between atoms: C_10  and  C_11
REMARK   11  A    between atoms: C_11  and  C_12
REMARK   12  A    between atoms: C_12  and  O_14
REMARK   13  A    between atoms: O_14  and  C_15
REMARK   14  A    between atoms: C_15  and  C_16
REMARK   15  A    between atoms: C_16  and  O_18
REMARK   16  A    between atoms: C_16  and  C_19
REMARK   17  A    between atoms: C_19  and  O_20
REMARK   18  A    between atoms: O_20  and  P_21
REMARK   19  A    between atoms: P_21  and  O_22
REMARK   20  A    between atoms: P_21  and  O_24
REMARK   21  A    between atoms: O_24  and  C_25
REMARK   22  A    between atoms: C_25  and  C_26
REMARK   23  A    between atoms: C_26  and  N_27
REMARK   24  A    between atoms: N_27  and  C_28
REMARK   25  A    between atoms: N_27  and  C_29
REMARK   26  A    between atoms: N_27  and  C_30
REMARK                            x       y       z     vdW  Elec       q    Type
REMARK                         _______ _______ _______ _____ _____    ______ ____
ROOT
ATOM      1  C   UNL     1       8.855  -4.716  26.462  0.00  0.00    +0.178 C 
ENDROOT
BRANCH   1   2
ATOM      2  O   UNL     1       9.097  -6.046  25.973  0.00  0.00    -0.386 OA
ATOM      3  H   UNL     1       8.338  -6.289  25.412  0.00  0.00    +0.210 HD
ENDBRANCH   1   2
BRANCH   1   4
ATOM      4  C   UNL     1       7.418  -4.690  27.024  0.00  0.00    +0.207 C 
BRANCH   4   5
ATOM      5  O   UNL     1       7.235  -5.795  27.915  0.00  0.00    -0.284 OA
BRANCH   5   6
ATOM      6  P   UNL     1       5.886  -6.098  28.732  0.00  0.00    +0.475 P 
ATOM      7  O   UNL     1       5.958  -5.770  30.184  0.00  0.00    -0.227 OA
BRANCH   6   8
ATOM      8  O   UNL     1       5.583  -7.641  28.451  0.00  0.00    -0.302 OA
ATOM      9  H   UNL     1       6.010  -8.047  27.682  0.00  0.00    +0.222 HD
ENDBRANCH   6   8
BRANCH   6  10
ATOM     10  O   UNL     1       4.676  -5.298  28.002  0.00  0.00    -0.281 OA
BRANCH  10  11
ATOM     11  C   UNL     1       3.648  -6.021  27.338  0.00  0.00    +0.223 C 
BRANCH  11  12
ATOM     12  C   UNL     1       2.937  -5.395  26.112  0.00  0.00    +0.161 C 
BRANCH  12  13
ATOM     13  N   UNL     1       3.763  -5.146  24.835  0.00  0.00    +0.239 N 
ATOM     14  C   UNL     1       2.834  -5.284  23.613  0.00  0.00    +0.192 C 
ATOM     15  C   UNL     1       4.899  -6.141  24.671  0.00  0.00    +0.192 C 
ATOM     16  C   UNL     1       4.310  -3.722  24.839  0.00  0.00    +0.192 C 
ENDBRANCH  12  13
ENDBRANCH  11  12
ENDBRANCH  10  11
ENDBRANCH   6  10
ENDBRANCH   5   6
ENDBRANCH   4   5
ENDBRANCH   1   4
BRANCH   1  17
ATOM     17  C   UNL     1       9.081  -3.728  25.298  0.00  0.00    +0.265 C 
BRANCH  17  18
ATOM     18  O   UNL     1       7.853  -3.567  24.543  0.00  0.00    -0.462 OA
BRANCH  18  19
ATOM     19  C   UNL     1       7.806  -4.171  23.329  0.00  0.00    +0.307 C 
ATOM     20  O   UNL     1       8.135  -5.345  23.127  0.00  0.00    -0.251 OA
BRANCH  19  21
ATOM     21  C   UNL     1       7.184  -3.280  22.278  0.00  0.00    +0.120 C 
BRANCH  21  22
ATOM     22  C   UNL     1       7.668  -1.833  22.318  0.00  0.00    +0.011 C 
BRANCH  22  23
ATOM     23  C   UNL     1       9.140  -1.730  21.895  0.00  0.00    +0.001 C 
BRANCH  23  24
ATOM     24  C   UNL     1       9.463  -0.339  21.346  0.00  0.00    +0.000 C 
BRANCH  24  25
ATOM     25  C   UNL     1       8.402   0.693  21.737  0.00  0.00    +0.000 C 
BRANCH  25  26
ATOM     26  C   UNL     1       9.051   1.922  22.375  0.00  0.00    +0.000 C 
BRANCH  26  27
ATOM     27  C   UNL     1      10.426   1.597  22.961  0.00  0.00    -0.000 C 
BRANCH  27  28
ATOM     28  C   UNL     1      10.360   1.466  24.484  0.00  0.00    -0.000 C 
BRANCH  28  29
ATOM     29  C   UNL     1      10.148   0.012  24.906  0.00  0.00    -0.000 C 
BRANCH  29  31
ATOM     30  C   UNL     1       7.669  -0.054  25.334  0.00  0.00    +0.004 C 
ATOM     31  C   UNL     1       9.052  -0.108  25.964  0.00  0.00    -0.003 C 
ENDBRANCH  29  31
ENDBRANCH  28  29
ENDBRANCH  27  28
ENDBRANCH  26  27
ENDBRANCH  25  26
ENDBRANCH  24  25
ENDBRANCH  23  24
ENDBRANCH  22  23
ENDBRANCH  21  22
ENDBRANCH  19  21
ENDBRANCH  18  19
ENDBRANCH  17  18
ENDBRANCH   1  17
TORSDOF 22
ENDMDL
MODEL 5
REMARK VINA RESULT:      -5.0      2.116      3.394
REMARK  Name = 
REMARK  26 active torsions:
REMARK  status: ('A' for Active; 'I' for Inactive)
REMARK    1  A    between atoms: C_1  and  C_2
REMARK    2  A    between atoms: C_2  and  C_3
REMARK    3  A    between atoms: C_3  and  C_4
REMARK    4  A    between atoms: C_4  and  C_5
REMARK    5  A    between atoms: C_5  and  C_6
REMARK    6  A    between atoms: C_6  and  C_7
REMARK    7  A    between atoms: C_7  and  C_8
REMARK    8  A    between atoms: C_8  and  C_9
REMARK    9  A    between atoms: C_9  and  C_10
REMARK   10  A    between atoms: C_10  and  C_11
REMARK   11  A    between atoms: C_11  and  C_12
REMARK   12  A    between atoms: C_12  and  O_14
REMARK   13  A    between atoms: O_14  and  C_15
REMARK   14  A    between atoms: C_15  and  C_16
REMARK   15  A    between atoms: C_16  and  O_18
REMARK   16  A    between atoms: C_16  and  C_19
REMARK   17  A    between atoms: C_19  and  O_20
REMARK   18  A    between atoms: O_20  and  P_21
REMARK   19  A    between atoms: P_21  and  O_22
REMARK   20  A    between atoms: P_21  and  O_24
REMARK   21  A    between atoms: O_24  and  C_25
REMARK   22  A    between atoms: C_25  and  C_26
REMARK   23  A    between atoms: C_26  and  N_27
REMARK   24  A    between atoms: N_27  and  C_28
REMARK   25  A    between atoms: N_27  and  C_29
REMARK   26  A    between atoms: N_27  and  C_30
REMARK                            x       y       z     vdW  Elec       q    Type
REMARK                         _______ _______ _______ _____ _____    ______ ____
ROOT
ATOM      1  C   UNL     1       7.185  -4.151  22.202  0.00  0.00    +0.178 C 
ENDROOT
BRANCH   1   2
ATOM      2  O   UNL     1       5.843  -4.148  21.687  0.00  0.00    -0.386 OA
ATOM      3  H   UNL     1       5.676  -5.032  21.313  0.00  0.00    +0.210 HD
ENDBRANCH   1   2
BRANCH   1   4
ATOM      4  C   UNL     1       7.238  -5.199  23.334  0.00  0.00    +0.207 C 
BRANCH   4   5
ATOM      5  O   UNL     1       8.546  -5.205  23.916  0.00  0.00    -0.284 OA
BRANCH   5   6
ATOM      6  P   UNL     1       8.854  -4.970  25.475  0.00  0.00    +0.475 P 
ATOM      7  O   UNL     1       8.879  -3.539  25.889  0.00  0.00    -0.227 OA
BRANCH   6   8
ATOM      8  O   UNL     1      10.242  -5.720  25.728  0.00  0.00    -0.302 OA
ATOM      9  H   UNL     1      11.053  -5.260  25.461  0.00  0.00    +0.222 HD
ENDBRANCH   6   8
BRANCH   6  10
ATOM     10  O   UNL     1       7.764  -5.817  26.328  0.00  0.00    -0.281 OA
BRANCH  10  11
ATOM     11  C   UNL     1       6.786  -5.136  27.103  0.00  0.00    +0.223 C 
BRANCH  11  12
ATOM     12  C   UNL     1       5.337  -5.003  26.569  0.00  0.00    +0.161 C 
BRANCH  12  13
ATOM     13  N   UNL     1       4.740  -3.591  26.418  0.00  0.00    +0.239 N 
ATOM     14  C   UNL     1       3.335  -3.580  27.053  0.00  0.00    +0.192 C 
ATOM     15  C   UNL     1       4.599  -3.168  24.966  0.00  0.00    +0.192 C 
ATOM     16  C   UNL     1       5.595  -2.581  27.178  0.00  0.00    +0.192 C 
ENDBRANCH  12  13
ENDBRANCH  11  12
ENDBRANCH  10  11
ENDBRANCH   6  10
ENDBRANCH   5   6
ENDBRANCH   4   5
ENDBRANCH   1   4
BRANCH   1  17
ATOM     17  C   UNL     1       7.524  -2.720  22.669  0.00  0.00    +0.265 C 
BRANCH  17  18
ATOM     18  O   UNL     1       8.555  -2.155  21.818  0.00  0.00    -0.462 OA
BRANCH  18  19
ATOM     19  C   UNL     1       9.716  -1.803  22.428  0.00  0.00    +0.307 C 
ATOM     20  O   UNL     1      10.394  -2.569  23.119  0.00  0.00    -0.251 OA
BRANCH  19  21
ATOM     21  C   UNL     1      10.146  -0.402  22.056  0.00  0.00    +0.120 C 
BRANCH  21  22
ATOM     22  C   UNL     1       9.063   0.423  21.366  0.00  0.00    +0.011 C 
BRANCH  22  23
ATOM     23  C   UNL     1       9.258   1.923  21.630  0.00  0.00    +0.001 C 
BRANCH  23  24
ATOM     24  C   UNL     1      10.110   2.158  22.879  0.00  0.00    +0.000 C 
BRANCH  24  25
ATOM     25  C   UNL     1       9.507   3.227  23.793  0.00  0.00    +0.000 C 
BRANCH  25  26
ATOM     26  C   UNL     1       8.689   2.583  24.914  0.00  0.00    +0.000 C 
BRANCH  26  27
ATOM     27  C   UNL     1       9.020   1.099  25.076  0.00  0.00    -0.000 C 
BRANCH  27  28
ATOM     28  C   UNL     1       7.759   0.278  25.349  0.00  0.00    -0.000 C 
BRANCH  28  29
ATOM     29  C   UNL     1       6.711   0.493  24.257  0.00  0.00    -0.000 C 
BRANCH  29  31
ATOM     30  C   UNL     1       5.422   1.063  26.341  0.00  0.00    +0.004 C 
ATOM     31  C   UNL     1       5.433   1.112  24.822  0.00  0.00    -0.003 C 
ENDBRANCH  29  31
ENDBRANCH  28  29
ENDBRANCH  27  28
ENDBRANCH  26  27
ENDBRANCH  25  26
ENDBRANCH  24  25
ENDBRANCH  23  24
ENDBRANCH  22  23
ENDBRANCH  21  22
ENDBRANCH  19  21
ENDBRANCH  18  19
ENDBRANCH  17  18
ENDBRANCH   1  17
TORSDOF 22
ENDMDL
MODEL 6
REMARK VINA RESULT:      -5.0      0.882      1.880
REMARK  Name = 
REMARK  26 active torsions:
REMARK  status: ('A' for Active; 'I' for Inactive)
REMARK    1  A    between atoms: C_1  and  C_2
REMARK    2  A    between atoms: C_2  and  C_3
REMARK    3  A    between atoms: C_3  and  C_4
REMARK    4  A    between atoms: C_4  and  C_5
REMARK    5  A    between atoms: C_5  and  C_6
REMARK    6  A    between atoms: C_6  and  C_7
REMARK    7  A    between atoms: C_7  and  C_8
REMARK    8  A    between atoms: C_8  and  C_9
REMARK    9  A    between atoms: C_9  and  C_10
REMARK   10  A    between atoms: C_10  and  C_11
REMARK   11  A    between atoms: C_11  and  C_12
REMARK   12  A    between atoms: C_12  and  O_14
REMARK   13  A    between atoms: O_14  and  C_15
REMARK   14  A    between atoms: C_15  and  C_16
REMARK   15  A    between atoms: C_16  and  O_18
REMARK   16  A    between atoms: C_16  and  C_19
REMARK   17  A    between atoms: C_19  and  O_20
REMARK   18  A    between atoms: O_20  and  P_21
REMARK   19  A    between atoms: P_21  and  O_22
REMARK   20  A    between atoms: P_21  and  O_24
REMARK   21  A    between atoms: O_24  and  C_25
REMARK   22  A    between atoms: C_25  and  C_26
REMARK   23  A    between atoms: C_26  and  N_27
REMARK   24  A    between atoms: N_27  and  C_28
REMARK   25  A    between atoms: N_27  and  C_29
REMARK   26  A    between atoms: N_27  and  C_30
REMARK                            x       y       z     vdW  Elec       q    Type
REMARK                         _______ _______ _______ _____ _____    ______ ____
ROOT
ATOM      1  C   UNL     1       9.214  -4.753  25.180  0.00  0.00    +0.178 C 
ENDROOT
BRANCH   1   2
ATOM      2  O   UNL     1       9.901  -6.014  25.122  0.00  0.00    -0.386 OA
ATOM      3  H   UNL     1      10.849  -5.820  25.006  0.00  0.00    +0.210 HD
ENDBRANCH   1   2
BRANCH   1   4
ATOM      4  C   UNL     1       8.621  -4.621  26.598  0.00  0.00    +0.207 C 
BRANCH   4   5
ATOM      5  O   UNL     1       7.733  -5.717  26.848  0.00  0.00    -0.284 OA
BRANCH   5   6
ATOM      6  P   UNL     1       6.308  -5.591  27.578  0.00  0.00    +0.475 P 
ATOM      7  O   UNL     1       5.606  -4.299  27.341  0.00  0.00    -0.227 OA
BRANCH   6   8
ATOM      8  O   UNL     1       6.621  -5.862  29.121  0.00  0.00    -0.302 OA
ATOM      9  H   UNL     1       7.197  -6.612  29.334  0.00  0.00    +0.222 HD
ENDBRANCH   6   8
BRANCH   6  10
ATOM     10  O   UNL     1       5.400  -6.855  27.111  0.00  0.00    -0.281 OA
BRANCH  10  11
ATOM     11  C   UNL     1       4.408  -6.682  26.108  0.00  0.00    +0.223 C 
BRANCH  11  12
ATOM     12  C   UNL     1       4.801  -6.782  24.612  0.00  0.00    +0.161 C 
BRANCH  12  13
ATOM     13  N   UNL     1       4.151  -5.800  23.619  0.00  0.00    +0.239 N 
ATOM     14  C   UNL     1       2.789  -6.374  23.179  0.00  0.00    +0.192 C 
ATOM     15  C   UNL     1       4.991  -5.589  22.372  0.00  0.00    +0.192 C 
ATOM     16  C   UNL     1       3.886  -4.464  24.305  0.00  0.00    +0.192 C 
ENDBRANCH  12  13
ENDBRANCH  11  12
ENDBRANCH  10  11
ENDBRANCH   6  10
ENDBRANCH   5   6
ENDBRANCH   4   5
ENDBRANCH   1   4
BRANCH   1  17
ATOM     17  C   UNL     1       8.150  -4.734  24.062  0.00  0.00    +0.265 C 
BRANCH  17  18
ATOM     18  O   UNL     1       7.243  -3.619  24.264  0.00  0.00    -0.462 OA
BRANCH  18  19
ATOM     19  C   UNL     1       7.311  -2.612  23.357  0.00  0.00    +0.307 C 
ATOM     20  O   UNL     1       7.279  -2.779  22.134  0.00  0.00    -0.251 OA
BRANCH  19  21
ATOM     21  C   UNL     1       7.301  -1.253  24.021  0.00  0.00    +0.120 C 
BRANCH  21  22
ATOM     22  C   UNL     1       8.497  -0.993  24.932  0.00  0.00    +0.011 C 
BRANCH  22  23
ATOM     23  C   UNL     1       8.273   0.257  25.796  0.00  0.00    +0.001 C 
BRANCH  23  24
ATOM     24  C   UNL     1       6.887   0.856  25.553  0.00  0.00    +0.000 C 
BRANCH  24  25
ATOM     25  C   UNL     1       6.964   2.293  25.033  0.00  0.00    +0.000 C 
BRANCH  25  26
ATOM     26  C   UNL     1       8.412   2.787  25.020  0.00  0.00    +0.000 C 
BRANCH  26  27
ATOM     27  C   UNL     1       8.903   3.062  23.598  0.00  0.00    -0.000 C 
BRANCH  27  28
ATOM     28  C   UNL     1       7.807   2.774  22.570  0.00  0.00    -0.000 C 
BRANCH  28  29
ATOM     29  C   UNL     1       8.283   1.772  21.519  0.00  0.00    -0.000 C 
BRANCH  29  31
ATOM     30  C   UNL     1       9.747  -0.274  21.565  0.00  0.00    +0.004 C 
ATOM     31  C   UNL     1       9.664   1.214  21.864  0.00  0.00    -0.003 C 
ENDBRANCH  29  31
ENDBRANCH  28  29
ENDBRANCH  27  28
ENDBRANCH  26  27
ENDBRANCH  25  26
ENDBRANCH  24  25
ENDBRANCH  23  24
ENDBRANCH  22  23
ENDBRANCH  21  22
ENDBRANCH  19  21
ENDBRANCH  18  19
ENDBRANCH  17  18
ENDBRANCH   1  17
TORSDOF 22
ENDMDL
MODEL 7
REMARK VINA RESULT:      -5.0      1.401      2.361
REMARK  Name = 
REMARK  26 active torsions:
REMARK  status: ('A' for Active; 'I' for Inactive)
REMARK    1  A    between atoms: C_1  and  C_2
REMARK    2  A    between atoms: C_2  and  C_3
REMARK    3  A    between atoms: C_3  and  C_4
REMARK    4  A    between atoms: C_4  and  C_5
REMARK    5  A    between atoms: C_5  and  C_6
REMARK    6  A    between atoms: C_6  and  C_7
REMARK    7  A    between atoms: C_7  and  C_8
REMARK    8  A    between atoms: C_8  and  C_9
REMARK    9  A    between atoms: C_9  and  C_10
REMARK   10  A    between atoms: C_10  and  C_11
REMARK   11  A    between atoms: C_11  and  C_12
REMARK   12  A    between atoms: C_12  and  O_14
REMARK   13  A    between atoms: O_14  and  C_15
REMARK   14  A    between atoms: C_15  and  C_16
REMARK   15  A    between atoms: C_16  and  O_18
REMARK   16  A    between atoms: C_16  and  C_19
REMARK   17  A    between atoms: C_19  and  O_20
REMARK   18  A    between atoms: O_20  and  P_21
REMARK   19  A    between atoms: P_21  and  O_22
REMARK   20  A    between atoms: P_21  and  O_24
REMARK   21  A    between atoms: O_24  and  C_25
REMARK   22  A    between atoms: C_25  and  C_26
REMARK   23  A    between atoms: C_26  and  N_27
REMARK   24  A    between atoms: N_27  and  C_28
REMARK   25  A    between atoms: N_27  and  C_29
REMARK   26  A    between atoms: N_27  and  C_30
REMARK                            x       y       z     vdW  Elec       q    Type
REMARK                         _______ _______ _______ _____ _____    ______ ____
ROOT
ATOM      1  C   UNL     1       8.562  -4.941  25.507  0.00  0.00    +0.178 C 
ENDROOT
BRANCH   1   2
ATOM      2  O   UNL     1       9.606  -5.912  25.323  0.00  0.00    -0.386 OA
ATOM      3  H   UNL     1       9.615  -6.149  24.378  0.00  0.00    +0.210 HD
ENDBRANCH   1   2
BRANCH   1   4
ATOM      4  C   UNL     1       7.997  -5.142  26.929  0.00  0.00    +0.207 C 
BRANCH   4   5
ATOM      5  O   UNL     1       6.749  -5.840  26.852  0.00  0.00    -0.284 OA
BRANCH   5   6
ATOM      6  P   UNL     1       5.712  -5.997  28.068  0.00  0.00    +0.475 P 
ATOM      7  O   UNL     1       6.150  -5.353  29.338  0.00  0.00    -0.227 OA
BRANCH   6   8
ATOM      8  O   UNL     1       5.491  -7.573  28.207  0.00  0.00    -0.302 OA
ATOM      9  H   UNL     1       6.239  -8.102  28.524  0.00  0.00    +0.222 HD
ENDBRANCH   6   8
BRANCH   6  10
ATOM     10  O   UNL     1       4.278  -5.419  27.573  0.00  0.00    -0.281 OA
BRANCH  10  11
ATOM     11  C   UNL     1       4.147  -4.868  26.269  0.00  0.00    +0.223 C 
BRANCH  11  12
ATOM     12  C   UNL     1       2.868  -5.150  25.441  0.00  0.00    +0.161 C 
BRANCH  12  13
ATOM     13  N   UNL     1       2.896  -6.306  24.422  0.00  0.00    +0.239 N 
ATOM     14  C   UNL     1       4.164  -6.167  23.557  0.00  0.00    +0.192 C 
ATOM     15  C   UNL     1       1.695  -6.296  23.493  0.00  0.00    +0.192 C 
ATOM     16  C   UNL     1       2.983  -7.642  25.153  0.00  0.00    +0.192 C 
ENDBRANCH  12  13
ENDBRANCH  11  12
ENDBRANCH  10  11
ENDBRANCH   6  10
ENDBRANCH   5   6
ENDBRANCH   4   5
ENDBRANCH   1   4
BRANCH   1  17
ATOM     17  C   UNL     1       7.515  -5.144  24.392  0.00  0.00    +0.265 C 
BRANCH  17  18
ATOM     18  O   UNL     1       7.826  -4.289  23.262  0.00  0.00    -0.462 OA
BRANCH  18  19
ATOM     19  C   UNL     1       6.780  -3.638  22.691  0.00  0.00    +0.307 C 
ATOM     20  O   UNL     1       6.461  -3.750  21.503  0.00  0.00    -0.251 OA
BRANCH  19  21
ATOM     21  C   UNL     1       5.976  -2.860  23.708  0.00  0.00    +0.120 C 
BRANCH  21  22
ATOM     22  C   UNL     1       6.425  -1.412  23.886  0.00  0.00    +0.011 C 
BRANCH  22  23
ATOM     23  C   UNL     1       7.248  -1.242  25.172  0.00  0.00    +0.001 C 
BRANCH  23  24
ATOM     24  C   UNL     1       8.587  -0.561  24.885  0.00  0.00    +0.000 C 
BRANCH  24  25
ATOM     25  C   UNL     1       9.627  -1.542  24.342  0.00  0.00    +0.000 C 
BRANCH  25  26
ATOM     26  C   UNL     1      10.349  -0.951  23.129  0.00  0.00    +0.000 C 
BRANCH  26  27
ATOM     27  C   UNL     1       9.555  -1.161  21.840  0.00  0.00    -0.000 C 
BRANCH  27  28
ATOM     28  C   UNL     1       9.208   0.177  21.182  0.00  0.00    -0.000 C 
BRANCH  28  29
ATOM     29  C   UNL     1       9.796   1.349  21.967  0.00  0.00    -0.000 C 
BRANCH  29  31
ATOM     30  C   UNL     1       7.325   1.811  22.084  0.00  0.00    +0.004 C 
ATOM     31  C   UNL     1       8.717   2.361  22.351  0.00  0.00    -0.003 C 
ENDBRANCH  29  31
ENDBRANCH  28  29
ENDBRANCH  27  28
ENDBRANCH  26  27
ENDBRANCH  25  26
ENDBRANCH  24  25
ENDBRANCH  23  24
ENDBRANCH  22  23
ENDBRANCH  21  22
ENDBRANCH  19  21
ENDBRANCH  18  19
ENDBRANCH  17  18
ENDBRANCH   1  17
TORSDOF 22
ENDMDL
MODEL 8
REMARK VINA RESULT:      -5.0      2.126      3.641
REMARK  Name = 
REMARK  26 active torsions:
REMARK  status: ('A' for Active; 'I' for Inactive)
REMARK    1  A    between atoms: C_1  and  C_2
REMARK    2  A    between atoms: C_2  and  C_3
REMARK    3  A    between atoms: C_3  and  C_4
REMARK    4  A    between atoms: C_4  and  C_5
REMARK    5  A    between atoms: C_5  and  C_6
REMARK    6  A    between atoms: C_6  and  C_7
REMARK    7  A    between atoms: C_7  and  C_8
REMARK    8  A    between atoms: C_8  and  C_9
REMARK    9  A    between atoms: C_9  and  C_10
REMARK   10  A    between atoms: C_10  and  C_11
REMARK   11  A    between atoms: C_11  and  C_12
REMARK   12  A    between atoms: C_12  and  O_14
REMARK   13  A    between atoms: O_14  and  C_15
REMARK   14  A    between atoms: C_15  and  C_16
REMARK   15  A    between atoms: C_16  and  O_18
REMARK   16  A    between atoms: C_16  and  C_19
REMARK   17  A    between atoms: C_19  and  O_20
REMARK   18  A    between atoms: O_20  and  P_21
REMARK   19  A    between atoms: P_21  and  O_22
REMARK   20  A    between atoms: P_21  and  O_24
REMARK   21  A    between atoms: O_24  and  C_25
REMARK   22  A    between atoms: C_25  and  C_26
REMARK   23  A    between atoms: C_26  and  N_27
REMARK   24  A    between atoms: N_27  and  C_28
REMARK   25  A    between atoms: N_27  and  C_29
REMARK   26  A    between atoms: N_27  and  C_30
REMARK                            x       y       z     vdW  Elec       q    Type
REMARK                         _______ _______ _______ _____ _____    ______ ____
ROOT
ATOM      1  C   UNL     1       6.471  -4.369  21.880  0.00  0.00    +0.178 C 
ENDROOT
BRANCH   1   2
ATOM      2  O   UNL     1       5.874  -4.996  20.733  0.00  0.00    -0.386 OA
ATOM      3  H   UNL     1       6.582  -5.477  20.266  0.00  0.00    +0.210 HD
ENDBRANCH   1   2
BRANCH   1   4
ATOM      4  C   UNL     1       7.269  -5.456  22.631  0.00  0.00    +0.207 C 
BRANCH   4   5
ATOM      5  O   UNL     1       7.230  -5.189  24.037  0.00  0.00    -0.284 OA
BRANCH   5   6
ATOM      6  P   UNL     1       8.514  -4.848  24.940  0.00  0.00    +0.475 P 
ATOM      7  O   UNL     1       8.998  -3.444  24.818  0.00  0.00    -0.227 OA
BRANCH   6   8
ATOM      8  O   UNL     1       9.608  -5.929  24.507  0.00  0.00    -0.302 OA
ATOM      9  H   UNL     1      10.367  -5.615  23.992  0.00  0.00    +0.222 HD
ENDBRANCH   6   8
BRANCH   6  10
ATOM     10  O   UNL     1       8.150  -5.220  26.478  0.00  0.00    -0.281 OA
BRANCH  10  11
ATOM     11  C   UNL     1       7.027  -4.616  27.107  0.00  0.00    +0.223 C 
BRANCH  11  12
ATOM     12  C   UNL     1       6.219  -5.410  28.164  0.00  0.00    +0.161 C 
BRANCH  12  13
ATOM     13  N   UNL     1       4.815  -5.916  27.784  0.00  0.00    +0.239 N 
ATOM     14  C   UNL     1       4.912  -6.681  26.449  0.00  0.00    +0.192 C 
ATOM     15  C   UNL     1       3.816  -4.787  27.601  0.00  0.00    +0.192 C 
ATOM     16  C   UNL     1       4.311  -6.896  28.839  0.00  0.00    +0.192 C 
ENDBRANCH  12  13
ENDBRANCH  11  12
ENDBRANCH  10  11
ENDBRANCH   6  10
ENDBRANCH   5   6
ENDBRANCH   4   5
ENDBRANCH   1   4
BRANCH   1  17
ATOM     17  C   UNL     1       5.345  -3.736  22.723  0.00  0.00    +0.265 C 
BRANCH  17  18
ATOM     18  O   UNL     1       5.788  -2.464  23.263  0.00  0.00    -0.462 OA
BRANCH  18  19
ATOM     19  C   UNL     1       5.332  -2.141  24.500  0.00  0.00    +0.307 C 
ATOM     20  O   UNL     1       4.279  -2.568  24.983  0.00  0.00    -0.251 OA
BRANCH  19  21
ATOM     21  C   UNL     1       6.328  -1.299  25.266  0.00  0.00    +0.120 C 
BRANCH  21  22
ATOM     22  C   UNL     1       7.141  -0.345  24.395  0.00  0.00    +0.011 C 
BRANCH  22  23
ATOM     23  C   UNL     1       8.077   0.522  25.251  0.00  0.00    +0.001 C 
BRANCH  23  24
ATOM     24  C   UNL     1       9.477  -0.088  25.331  0.00  0.00    +0.000 C 
BRANCH  24  25
ATOM     25  C   UNL     1      10.417   0.488  24.270  0.00  0.00    +0.000 C 
BRANCH  25  26
ATOM     26  C   UNL     1      10.527  -0.457  23.072  0.00  0.00    +0.000 C 
BRANCH  26  27
ATOM     27  C   UNL     1       9.808   0.102  21.844  0.00  0.00    -0.000 C 
BRANCH  27  28
ATOM     28  C   UNL     1       9.619   1.616  21.956  0.00  0.00    -0.000 C 
BRANCH  28  29
ATOM     29  C   UNL     1       8.173   2.016  21.666  0.00  0.00    -0.000 C 
BRANCH  29  31
ATOM     30  C   UNL     1       8.861   3.707  23.397  0.00  0.00    +0.004 C 
ATOM     31  C   UNL     1       7.701   3.127  22.603  0.00  0.00    -0.003 C 
ENDBRANCH  29  31
ENDBRANCH  28  29
ENDBRANCH  27  28
ENDBRANCH  26  27
ENDBRANCH  25  26
ENDBRANCH  24  25
ENDBRANCH  23  24
ENDBRANCH  22  23
ENDBRANCH  21  22
ENDBRANCH  19  21
ENDBRANCH  18  19
ENDBRANCH  17  18
ENDBRANCH   1  17
TORSDOF 22
ENDMDL
MODEL 9
REMARK VINA RESULT:      -5.0      1.765      3.248
REMARK  Name = 
REMARK  26 active torsions:
REMARK  status: ('A' for Active; 'I' for Inactive)
REMARK    1  A    between atoms: C_1  and  C_2
REMARK    2  A    between atoms: C_2  and  C_3
REMARK    3  A    between atoms: C_3  and  C_4
REMARK    4  A    between atoms: C_4  and  C_5
REMARK    5  A    between atoms: C_5  and  C_6
REMARK    6  A    between atoms: C_6  and  C_7
REMARK    7  A    between atoms: C_7  and  C_8
REMARK    8  A    between atoms: C_8  and  C_9
REMARK    9  A    between atoms: C_9  and  C_10
REMARK   10  A    between atoms: C_10  and  C_11
REMARK   11  A    between atoms: C_11  and  C_12
REMARK   12  A    between atoms: C_12  and  O_14
REMARK   13  A    between atoms: O_14  and  C_15
REMARK   14  A    between atoms: C_15  and  C_16
REMARK   15  A    between atoms: C_16  and  O_18
REMARK   16  A    between atoms: C_16  and  C_19
REMARK   17  A    between atoms: C_19  and  O_20
REMARK   18  A    between atoms: O_20  and  P_21
REMARK   19  A    between atoms: P_21  and  O_22
REMARK   20  A    between atoms: P_21  and  O_24
REMARK   21  A    between atoms: O_24  and  C_25
REMARK   22  A    between atoms: C_25  and  C_26
REMARK   23  A    between atoms: C_26  and  N_27
REMARK   24  A    between atoms: N_27  and  C_28
REMARK   25  A    between atoms: N_27  and  C_29
REMARK   26  A    between atoms: N_27  and  C_30
REMARK                            x       y       z     vdW  Elec       q    Type
REMARK                         _______ _______ _______ _____ _____    ______ ____
ROOT
ATOM      1  C   UNL     1       7.696  -4.639  26.356  0.00  0.00    +0.178 C 
ENDROOT
BRANCH   1   2
ATOM      2  O   UNL     1       8.072  -5.666  27.288  0.00  0.00    -0.386 OA
ATOM      3  H   UNL     1       7.808  -6.519  26.898  0.00  0.00    +0.210 HD
ENDBRANCH   1   2
BRANCH   1   4
ATOM      4  C   UNL     1       7.627  -5.291  24.960  0.00  0.00    +0.207 C 
BRANCH   4   5
ATOM      5  O   UNL     1       6.587  -4.672  24.195  0.00  0.00    -0.284 OA
BRANCH   5   6
ATOM      6  P   UNL     1       6.490  -4.701  22.592  0.00  0.00    +0.475 P 
ATOM      7  O   UNL     1       7.219  -5.830  21.950  0.00  0.00    -0.227 OA
BRANCH   6   8
ATOM      8  O   UNL     1       7.023  -3.267  22.130  0.00  0.00    -0.302 OA
ATOM      9  H   UNL     1       6.386  -2.536  22.122  0.00  0.00    +0.222 HD
ENDBRANCH   6   8
BRANCH   6  10
ATOM     10  O   UNL     1       4.916  -4.706  22.192  0.00  0.00    -0.281 OA
BRANCH  10  11
ATOM     11  C   UNL     1       3.926  -4.782  23.209  0.00  0.00    +0.223 C 
BRANCH  11  12
ATOM     12  C   UNL     1       2.891  -5.935  23.190  0.00  0.00    +0.161 C 
BRANCH  12  13
ATOM     13  N   UNL     1       2.760  -6.821  24.444  0.00  0.00    +0.239 N 
ATOM     14  C   UNL     1       2.076  -8.143  24.043  0.00  0.00    +0.192 C 
ATOM     15  C   UNL     1       1.920  -6.174  25.531  0.00  0.00    +0.192 C 
ATOM     16  C   UNL     1       4.144  -7.166  24.985  0.00  0.00    +0.192 C 
ENDBRANCH  12  13
ENDBRANCH  11  12
ENDBRANCH  10  11
ENDBRANCH   6  10
ENDBRANCH   5   6
ENDBRANCH   4   5
ENDBRANCH   1   4
BRANCH   1  17
ATOM     17  C   UNL     1       8.730  -3.498  26.455  0.00  0.00    +0.265 C 
BRANCH  17  18
ATOM     18  O   UNL     1       8.259  -2.340  25.717  0.00  0.00    -0.462 OA
BRANCH  18  19
ATOM     19  C   UNL     1       9.089  -1.856  24.759  0.00  0.00    +0.307 C 
ATOM     20  O   UNL     1       9.341  -2.441  23.701  0.00  0.00    -0.251 OA
BRANCH  19  21
ATOM     21  C   UNL     1       9.568  -0.458  25.082  0.00  0.00    +0.120 C 
BRANCH  21  22
ATOM     22  C   UNL     1      10.593   0.096  24.096  0.00  0.00    +0.011 C 
BRANCH  22  23
ATOM     23  C   UNL     1      10.622   1.631  24.132  0.00  0.00    +0.001 C 
BRANCH  23  24
ATOM     24  C   UNL     1      10.345   2.223  22.749  0.00  0.00    +0.000 C 
BRANCH  24  25
ATOM     25  C   UNL     1       9.636   1.227  21.829  0.00  0.00    +0.000 C 
BRANCH  25  26
ATOM     26  C   UNL     1       8.186   1.651  21.587  0.00  0.00    +0.000 C 
BRANCH  26  27
ATOM     27  C   UNL     1       7.224   0.948  22.544  0.00  0.00    -0.000 C 
BRANCH  27  28
ATOM     28  C   UNL     1       6.395   1.961  23.336  0.00  0.00    -0.000 C 
BRANCH  28  29
ATOM     29  C   UNL     1       6.869   2.051  24.787  0.00  0.00    -0.000 C 
BRANCH  29  31
ATOM     30  C   UNL     1       7.038   4.487  24.180  0.00  0.00    +0.004 C 
ATOM     31  C   UNL     1       7.582   3.374  25.062  0.00  0.00    -0.003 C 
ENDBRANCH  29  31
ENDBRANCH  28  29
ENDBRANCH  27  28
ENDBRANCH  26  27
ENDBRANCH  25  26
ENDBRANCH  24  25
ENDBRANCH  23  24
ENDBRANCH  22  23
ENDBRANCH  21  22
ENDBRANCH  19  21
ENDBRANCH  18  19
ENDBRANCH  17  18
ENDBRANCH   1  17
TORSDOF 22
ENDMDL
