MODEL 1
REMARK VINA RESULT:      -6.7      0.000      0.000
REMARK  Name = 
REMARK  9 active torsions:
REMARK  status: ('A' for Active; 'I' for Inactive)
REMARK    1  A    between atoms: C_1  and  N_2
REMARK    2  A    between atoms: N_2  and  C_3
REMARK    3  A    between atoms: C_3  and  C_5
REMARK    4  A    between atoms: C_3  and  C_13
REMARK    5  A    between atoms: C_5  and  N_6
REMARK    6  A    between atoms: C_9  and  O_11
REMARK    7  A    between atoms: C_19  and  C_21
REMARK    8  A    between atoms: C_21  and  C_22
REMARK    9  A    between atoms: C_21  and  C_28
REMARK                            x       y       z     vdW  Elec       q    Type
REMARK                         _______ _______ _______ _____ _____    ______ ____
ROOT
ATOM      1  C   UNL     1       9.552  -2.854  24.541  0.00  0.00    +0.132 C 
ATOM      2  N   UNL     1       8.138  -2.738  24.906  0.00  0.00    -0.295 N 
ATOM      3  C   UNL     1       7.493  -1.524  25.197  0.00  0.00    +0.228 C 
ATOM      4  O   UNL     1       6.257  -1.478  25.255  0.00  0.00    -0.275 OA
ENDROOT
BRANCH   2   5
ATOM      5  C   UNL     1       7.281  -3.973  24.809  0.00  0.00    +0.120 C 
BRANCH   5   6
ATOM      6  C   UNL     1       7.032  -4.416  23.358  0.00  0.00    -0.026 A 
ATOM      7  C   UNL     1       6.264  -3.664  22.455  0.00  0.00    +0.005 A 
ATOM      8  C   UNL     1       5.851  -4.204  21.235  0.00  0.00    +0.000 A 
ATOM      9  C   UNL     1       6.210  -5.501  20.889  0.00  0.00    +0.000 A 
ATOM     10  C   UNL     1       7.020  -6.246  21.742  0.00  0.00    +0.000 A 
ATOM     11  C   UNL     1       7.439  -5.705  22.961  0.00  0.00    +0.005 A 
ENDBRANCH   5   6
BRANCH   5  12
ATOM     12  C   UNL     1       7.694  -5.134  25.803  0.00  0.00    +0.111 C 
BRANCH  12  13
ATOM     13  N   UNL     1       6.729  -5.620  26.809  0.00  0.00    -0.298 NA
ATOM     14  C   UNL     1       5.589  -6.337  26.202  0.00  0.00    +0.115 C 
ATOM     15  C   UNL     1       4.352  -5.938  27.017  0.00  0.00    +0.130 C 
ATOM     16  C   UNL     1       4.928  -5.241  28.234  0.00  0.00    +0.048 C 
ATOM     17  C   UNL     1       6.179  -4.588  27.678  0.00  0.00    +0.087 C 
BRANCH  15  18
ATOM     18  O   UNL     1       3.559  -7.054  27.388  0.00  0.00    -0.390 OA
ATOM     19  H   UNL     1       2.943  -7.226  26.655  0.00  0.00    +0.210 HD
ENDBRANCH  15  18
ENDBRANCH  12  13
ENDBRANCH   5  12
ENDBRANCH   2   5
BRANCH   3  20
ATOM     20  C   UNL     1       8.337  -0.252  25.511  0.00  0.00    +0.135 C 
BRANCH  20  21
ATOM     21  C   UNL     1       7.616   0.684  26.495  0.00  0.00    -0.031 A 
ATOM     22  C   UNL     1       7.084   1.921  26.098  0.00  0.00    +0.005 A 
ATOM     23  C   UNL     1       6.472   2.772  27.019  0.00  0.00    +0.000 A 
ATOM     24  C   UNL     1       6.347   2.386  28.349  0.00  0.00    +0.000 A 
ATOM     25  C   UNL     1       6.837   1.150  28.760  0.00  0.00    +0.000 A 
ATOM     26  C   UNL     1       7.473   0.311  27.842  0.00  0.00    +0.005 A 
ENDBRANCH  20  21
BRANCH  20  27
ATOM     27  C   UNL     1       8.867   0.443  24.247  0.00  0.00    -0.031 A 
ATOM     28  C   UNL     1      10.010   1.262  24.323  0.00  0.00    +0.005 A 
ATOM     29  C   UNL     1      10.503   1.922  23.192  0.00  0.00    +0.000 A 
ATOM     30  C   UNL     1       9.859   1.784  21.965  0.00  0.00    +0.000 A 
ATOM     31  C   UNL     1       8.733   0.978  21.864  0.00  0.00    +0.000 A 
ATOM     32  C   UNL     1       8.252   0.301  22.991  0.00  0.00    +0.005 A 
ENDBRANCH  20  27
ENDBRANCH   3  20
TORSDOF 8
ENDMDL
MODEL 2
REMARK VINA RESULT:      -6.3      3.035      6.348
REMARK  Name = 
REMARK  9 active torsions:
REMARK  status: ('A' for Active; 'I' for Inactive)
REMARK    1  A    between atoms: C_1  and  N_2
REMARK    2  A    between atoms: N_2  and  C_3
REMARK    3  A    between atoms: C_3  and  C_5
REMARK    4  A    between atoms: C_3  and  C_13
REMARK    5  A    between atoms: C_5  and  N_6
REMARK    6  A    between atoms: C_9  and  O_11
REMARK    7  A    between atoms: C_19  and  C_21
REMARK    8  A    between atoms: C_21  and  C_22
REMARK    9  A    between atoms: C_21  and  C_28
REMARK                            x       y       z     vdW  Elec       q    Type
REMARK                         _______ _______ _______ _____ _____    ______ ____
ROOT
ATOM      1  C   UNL     1       6.827  -1.290  23.230  0.00  0.00    +0.132 C 
ATOM      2  N   UNL     1       7.698  -0.685  24.242  0.00  0.00    -0.295 N 
ATOM      3  C   UNL     1       7.381   0.476  24.965  0.00  0.00    +0.228 C 
ATOM      4  O   UNL     1       8.045   0.784  25.963  0.00  0.00    -0.275 OA
ENDROOT
BRANCH   2   5
ATOM      5  C   UNL     1       8.936  -1.440  24.649  0.00  0.00    +0.120 C 
BRANCH   5   6
ATOM      6  C   UNL     1       8.624  -2.806  25.280  0.00  0.00    -0.026 A 
ATOM      7  C   UNL     1       9.061  -4.019  24.724  0.00  0.00    +0.005 A 
ATOM      8  C   UNL     1       8.559  -5.242  25.173  0.00  0.00    +0.000 A 
ATOM      9  C   UNL     1       7.619  -5.277  26.197  0.00  0.00    +0.000 A 
ATOM     10  C   UNL     1       7.214  -4.091  26.804  0.00  0.00    +0.000 A 
ATOM     11  C   UNL     1       7.720  -2.867  26.360  0.00  0.00    +0.005 A 
ENDBRANCH   5   6
BRANCH   5  12
ATOM     12  C   UNL     1      10.082  -1.453  23.556  0.00  0.00    +0.111 C 
BRANCH  12  13
ATOM     13  N   UNL     1      10.570  -0.182  22.985  0.00  0.00    -0.298 NA
ATOM     14  C   UNL     1      10.818   0.845  24.017  0.00  0.00    +0.115 C 
ATOM     15  C   UNL     1      10.363   2.179  23.411  0.00  0.00    +0.130 C 
ATOM     16  C   UNL     1      10.157   1.858  21.943  0.00  0.00    +0.048 C 
ATOM     17  C   UNL     1       9.696   0.414  21.982  0.00  0.00    +0.087 C 
BRANCH  15  18
ATOM     18  O   UNL     1      11.318   3.212  23.585  0.00  0.00    -0.390 OA
ATOM     19  H   UNL     1      11.336   3.431  24.532  0.00  0.00    +0.210 HD
ENDBRANCH  15  18
ENDBRANCH  12  13
ENDBRANCH   5  12
ENDBRANCH   2   5
BRANCH   3  20
ATOM     20  C   UNL     1       6.235   1.411  24.470  0.00  0.00    +0.135 C 
BRANCH  20  21
ATOM     21  C   UNL     1       6.770   2.780  24.018  0.00  0.00    -0.031 A 
ATOM     22  C   UNL     1       7.362   3.685  24.913  0.00  0.00    +0.005 A 
ATOM     23  C   UNL     1       7.800   4.939  24.486  0.00  0.00    +0.000 A 
ATOM     24  C   UNL     1       7.687   5.299  23.147  0.00  0.00    +0.000 A 
ATOM     25  C   UNL     1       7.134   4.405  22.235  0.00  0.00    +0.000 A 
ATOM     26  C   UNL     1       6.672   3.160  22.669  0.00  0.00    +0.005 A 
ENDBRANCH  20  21
BRANCH  20  27
ATOM     27  C   UNL     1       5.055   1.484  25.452  0.00  0.00    -0.031 A 
ATOM     28  C   UNL     1       4.837   0.435  26.366  0.00  0.00    +0.005 A 
ATOM     29  C   UNL     1       3.760   0.466  27.258  0.00  0.00    +0.000 A 
ATOM     30  C   UNL     1       2.875   1.542  27.250  0.00  0.00    +0.000 A 
ATOM     31  C   UNL     1       3.074   2.591  26.362  0.00  0.00    +0.000 A 
ATOM     32  C   UNL     1       4.163   2.570  25.484  0.00  0.00    +0.005 A 
ENDBRANCH  20  27
ENDBRANCH   3  20
TORSDOF 8
ENDMDL
MODEL 3
REMARK VINA RESULT:      -6.3      2.390      6.441
REMARK  Name = 
REMARK  9 active torsions:
REMARK  status: ('A' for Active; 'I' for Inactive)
REMARK    1  A    between atoms: C_1  and  N_2
REMARK    2  A    between atoms: N_2  and  C_3
REMARK    3  A    between atoms: C_3  and  C_5
REMARK    4  A    between atoms: C_3  and  C_13
REMARK    5  A    between atoms: C_5  and  N_6
REMARK    6  A    between atoms: C_9  and  O_11
REMARK    7  A    between atoms: C_19  and  C_21
REMARK    8  A    between atoms: C_21  and  C_22
REMARK    9  A    between atoms: C_21  and  C_28
REMARK                            x       y       z     vdW  Elec       q    Type
REMARK                         _______ _______ _______ _____ _____    ______ ____
ROOT
ATOM      1  C   UNL     1       8.656  -0.814  26.916  0.00  0.00    +0.132 C 
ATOM      2  N   UNL     1       7.968  -0.933  25.628  0.00  0.00    -0.295 N 
ATOM      3  C   UNL     1       6.607  -1.246  25.484  0.00  0.00    +0.228 C 
ATOM      4  O   UNL     1       6.048  -1.088  24.390  0.00  0.00    -0.275 OA
ENDROOT
BRANCH   2   5
ATOM      5  C   UNL     1       8.725  -0.539  24.386  0.00  0.00    +0.120 C 
BRANCH   5   6
ATOM      6  C   UNL     1       9.149   0.938  24.387  0.00  0.00    -0.026 A 
ATOM      7  C   UNL     1       8.282   1.978  24.758  0.00  0.00    +0.005 A 
ATOM      8  C   UNL     1       8.610   3.313  24.514  0.00  0.00    +0.000 A 
ATOM      9  C   UNL     1       9.818   3.636  23.908  0.00  0.00    +0.000 A 
ATOM     10  C   UNL     1      10.720   2.626  23.583  0.00  0.00    +0.000 A 
ATOM     11  C   UNL     1      10.396   1.289  23.832  0.00  0.00    +0.005 A 
ENDBRANCH   5   6
BRANCH   5  12
ATOM     12  C   UNL     1       9.857  -1.561  23.959  0.00  0.00    +0.111 C 
BRANCH  12  13
ATOM     13  N   UNL     1       9.501  -2.950  23.607  0.00  0.00    -0.298 NA
ATOM     14  C   UNL     1       8.333  -3.024  22.705  0.00  0.00    +0.115 C 
ATOM     15  C   UNL     1       7.519  -4.241  23.161  0.00  0.00    +0.130 C 
ATOM     16  C   UNL     1       8.447  -4.961  24.121  0.00  0.00    +0.048 C 
ATOM     17  C   UNL     1       9.226  -3.818  24.745  0.00  0.00    +0.087 C 
BRANCH  15  18
ATOM     18  O   UNL     1       7.139  -5.081  22.083  0.00  0.00    -0.390 OA
ATOM     19  H   UNL     1       6.878  -4.502  21.346  0.00  0.00    +0.210 HD
ENDBRANCH  15  18
ENDBRANCH  12  13
ENDBRANCH   5  12
ENDBRANCH   2   5
BRANCH   3  20
ATOM     20  C   UNL     1       5.819  -1.854  26.683  0.00  0.00    +0.135 C 
BRANCH  20  21
ATOM     21  C   UNL     1       5.644  -3.375  26.541  0.00  0.00    -0.031 A 
ATOM     22  C   UNL     1       4.784  -3.944  25.588  0.00  0.00    +0.005 A 
ATOM     23  C   UNL     1       4.611  -5.326  25.507  0.00  0.00    +0.000 A 
ATOM     24  C   UNL     1       5.322  -6.169  26.354  0.00  0.00    +0.000 A 
ATOM     25  C   UNL     1       6.206  -5.630  27.284  0.00  0.00    +0.000 A 
ATOM     26  C   UNL     1       6.359  -4.245  27.381  0.00  0.00    +0.005 A 
ENDBRANCH  20  21
BRANCH  20  27
ATOM     27  C   UNL     1       4.520  -1.094  26.994  0.00  0.00    -0.031 A 
ATOM     28  C   UNL     1       4.441   0.290  26.747  0.00  0.00    +0.005 A 
ATOM     29  C   UNL     1       3.278   1.011  27.037  0.00  0.00    +0.000 A 
ATOM     30  C   UNL     1       2.173   0.366  27.589  0.00  0.00    +0.000 A 
ATOM     31  C   UNL     1       2.226  -1.000  27.837  0.00  0.00    +0.000 A 
ATOM     32  C   UNL     1       3.382  -1.725  27.526  0.00  0.00    +0.005 A 
ENDBRANCH  20  27
ENDBRANCH   3  20
TORSDOF 8
ENDMDL
MODEL 4
REMARK VINA RESULT:      -6.1      1.655      1.950
REMARK  Name = 
REMARK  9 active torsions:
REMARK  status: ('A' for Active; 'I' for Inactive)
REMARK    1  A    between atoms: C_1  and  N_2
REMARK    2  A    between atoms: N_2  and  C_3
REMARK    3  A    between atoms: C_3  and  C_5
REMARK    4  A    between atoms: C_3  and  C_13
REMARK    5  A    between atoms: C_5  and  N_6
REMARK    6  A    between atoms: C_9  and  O_11
REMARK    7  A    between atoms: C_19  and  C_21
REMARK    8  A    between atoms: C_21  and  C_22
REMARK    9  A    between atoms: C_21  and  C_28
REMARK                            x       y       z     vdW  Elec       q    Type
REMARK                         _______ _______ _______ _____ _____    ______ ____
ROOT
ATOM      1  C   UNL     1       8.693  -1.908  25.768  0.00  0.00    +0.132 C 
ATOM      2  N   UNL     1       7.265  -2.060  25.474  0.00  0.00    -0.295 N 
ATOM      3  C   UNL     1       6.458  -1.049  24.928  0.00  0.00    +0.228 C 
ATOM      4  O   UNL     1       5.336  -1.325  24.484  0.00  0.00    -0.275 OA
ENDROOT
BRANCH   2   5
ATOM      5  C   UNL     1       6.658  -3.431  25.617  0.00  0.00    +0.120 C 
BRANCH   5   6
ATOM      6  C   UNL     1       6.486  -4.151  24.269  0.00  0.00    -0.026 A 
ATOM      7  C   UNL     1       5.314  -4.841  23.920  0.00  0.00    +0.005 A 
ATOM      8  C   UNL     1       5.277  -5.686  22.810  0.00  0.00    +0.000 A 
ATOM      9  C   UNL     1       6.408  -5.847  22.017  0.00  0.00    +0.000 A 
ATOM     10  C   UNL     1       7.564  -5.129  22.309  0.00  0.00    +0.000 A 
ATOM     11  C   UNL     1       7.601  -4.278  23.417  0.00  0.00    +0.005 A 
ENDBRANCH   5   6
BRANCH   5  12
ATOM     12  C   UNL     1       7.294  -4.311  26.770  0.00  0.00    +0.111 C 
BRANCH  12  13
ATOM     13  N   UNL     1       6.438  -4.836  27.852  0.00  0.00    -0.298 NA
ATOM     14  C   UNL     1       6.092  -6.259  27.662  0.00  0.00    +0.115 C 
ATOM     15  C   UNL     1       4.636  -6.410  28.119  0.00  0.00    +0.130 C 
ATOM     16  C   UNL     1       4.339  -5.100  28.824  0.00  0.00    +0.048 C 
ATOM     17  C   UNL     1       5.189  -4.110  28.051  0.00  0.00    +0.087 C 
BRANCH  15  18
ATOM     18  O   UNL     1       4.445  -7.517  28.984  0.00  0.00    -0.390 OA
ATOM     19  H   UNL     1       3.488  -7.689  29.024  0.00  0.00    +0.210 HD
ENDBRANCH  15  18
ENDBRANCH  12  13
ENDBRANCH   5  12
ENDBRANCH   2   5
BRANCH   3  20
ATOM     20  C   UNL     1       6.951   0.430  24.941  0.00  0.00    +0.135 C 
BRANCH  20  21
ATOM     21  C   UNL     1       5.778   1.423  24.983  0.00  0.00    -0.031 A 
ATOM     22  C   UNL     1       5.372   2.151  23.853  0.00  0.00    +0.005 A 
ATOM     23  C   UNL     1       4.332   3.078  23.928  0.00  0.00    +0.000 A 
ATOM     24  C   UNL     1       3.652   3.269  25.126  0.00  0.00    +0.000 A 
ATOM     25  C   UNL     1       4.014   2.534  26.251  0.00  0.00    +0.000 A 
ATOM     26  C   UNL     1       5.073   1.626  26.182  0.00  0.00    +0.005 A 
ENDBRANCH  20  21
BRANCH  20  27
ATOM     27  C   UNL     1       7.992   0.725  23.849  0.00  0.00    -0.031 A 
ATOM     28  C   UNL     1       8.972   1.713  24.063  0.00  0.00    +0.005 A 
ATOM     29  C   UNL     1       9.920   2.016  23.080  0.00  0.00    +0.000 A 
ATOM     30  C   UNL     1       9.903   1.342  21.860  0.00  0.00    +0.000 A 
ATOM     31  C   UNL     1       8.949   0.359  21.629  0.00  0.00    +0.000 A 
ATOM     32  C   UNL     1       8.014   0.043  22.621  0.00  0.00    +0.005 A 
ENDBRANCH  20  27
ENDBRANCH   3  20
TORSDOF 8
ENDMDL
MODEL 5
REMARK VINA RESULT:      -6.1      2.482      4.780
REMARK  Name = 
REMARK  9 active torsions:
REMARK  status: ('A' for Active; 'I' for Inactive)
REMARK    1  A    between atoms: C_1  and  N_2
REMARK    2  A    between atoms: N_2  and  C_3
REMARK    3  A    between atoms: C_3  and  C_5
REMARK    4  A    between atoms: C_3  and  C_13
REMARK    5  A    between atoms: C_5  and  N_6
REMARK    6  A    between atoms: C_9  and  O_11
REMARK    7  A    between atoms: C_19  and  C_21
REMARK    8  A    between atoms: C_21  and  C_22
REMARK    9  A    between atoms: C_21  and  C_28
REMARK                            x       y       z     vdW  Elec       q    Type
REMARK                         _______ _______ _______ _____ _____    ______ ____
ROOT
ATOM      1  C   UNL     1       5.609  -2.844  22.173  0.00  0.00    +0.132 C 
ATOM      2  N   UNL     1       5.552  -2.790  23.637  0.00  0.00    -0.295 N 
ATOM      3  C   UNL     1       5.802  -1.635  24.395  0.00  0.00    +0.228 C 
ATOM      4  O   UNL     1       5.498  -1.605  25.595  0.00  0.00    -0.275 OA
ENDROOT
BRANCH   2   5
ATOM      5  C   UNL     1       5.038  -4.003  24.368  0.00  0.00    +0.120 C 
BRANCH   5   6
ATOM      6  C   UNL     1       3.504  -4.109  24.346  0.00  0.00    -0.026 A 
ATOM      7  C   UNL     1       2.686  -3.498  25.308  0.00  0.00    +0.005 A 
ATOM      8  C   UNL     1       1.329  -3.813  25.408  0.00  0.00    +0.000 A 
ATOM      9  C   UNL     1       0.762  -4.736  24.537  0.00  0.00    +0.000 A 
ATOM     10  C   UNL     1       1.540  -5.312  23.537  0.00  0.00    +0.000 A 
ATOM     11  C   UNL     1       2.897  -4.993  23.431  0.00  0.00    +0.005 A 
ENDBRANCH   5   6
BRANCH   5  12
ATOM     12  C   UNL     1       5.808  -5.344  24.030  0.00  0.00    +0.111 C 
BRANCH  12  13
ATOM     13  N   UNL     1       7.094  -5.641  24.690  0.00  0.00    -0.298 NA
ATOM     14  C   UNL     1       7.228  -4.971  26.000  0.00  0.00    +0.115 C 
ATOM     15  C   UNL     1       8.692  -4.525  26.104  0.00  0.00    +0.130 C 
ATOM     16  C   UNL     1       9.372  -5.244  24.955  0.00  0.00    +0.048 C 
ATOM     17  C   UNL     1       8.276  -5.303  23.908  0.00  0.00    +0.087 C 
BRANCH  15  18
ATOM     18  O   UNL     1       9.280  -4.867  27.348  0.00  0.00    -0.390 OA
ATOM     19  H   UNL     1       9.407  -5.832  27.351  0.00  0.00    +0.210 HD
ENDBRANCH  15  18
ENDBRANCH  12  13
ENDBRANCH   5  12
ENDBRANCH   2   5
BRANCH   3  20
ATOM     20  C   UNL     1       6.523  -0.417  23.741  0.00  0.00    +0.135 C 
BRANCH  20  21
ATOM     21  C   UNL     1       7.948  -0.773  23.287  0.00  0.00    -0.031 A 
ATOM     22  C   UNL     1       8.750  -1.690  23.985  0.00  0.00    +0.005 A 
ATOM     23  C   UNL     1      10.055  -1.963  23.577  0.00  0.00    +0.000 A 
ATOM     24  C   UNL     1      10.574  -1.352  22.440  0.00  0.00    +0.000 A 
ATOM     25  C   UNL     1       9.787  -0.466  21.712  0.00  0.00    +0.000 A 
ATOM     26  C   UNL     1       8.489  -0.173  22.137  0.00  0.00    +0.005 A 
ENDBRANCH  20  21
BRANCH  20  27
ATOM     27  C   UNL     1       6.429   0.861  24.589  0.00  0.00    -0.031 A 
ATOM     28  C   UNL     1       5.305   1.701  24.470  0.00  0.00    +0.005 A 
ATOM     29  C   UNL     1       5.201   2.880  25.215  0.00  0.00    +0.000 A 
ATOM     30  C   UNL     1       6.222   3.249  26.088  0.00  0.00    +0.000 A 
ATOM     31  C   UNL     1       7.338   2.433  26.227  0.00  0.00    +0.000 A 
ATOM     32  C   UNL     1       7.432   1.243  25.497  0.00  0.00    +0.005 A 
ENDBRANCH  20  27
ENDBRANCH   3  20
TORSDOF 8
ENDMDL
MODEL 6
REMARK VINA RESULT:      -6.1      3.958      7.458
REMARK  Name = 
REMARK  9 active torsions:
REMARK  status: ('A' for Active; 'I' for Inactive)
REMARK    1  A    between atoms: C_1  and  N_2
REMARK    2  A    between atoms: N_2  and  C_3
REMARK    3  A    between atoms: C_3  and  C_5
REMARK    4  A    between atoms: C_3  and  C_13
REMARK    5  A    between atoms: C_5  and  N_6
REMARK    6  A    between atoms: C_9  and  O_11
REMARK    7  A    between atoms: C_19  and  C_21
REMARK    8  A    between atoms: C_21  and  C_22
REMARK    9  A    between atoms: C_21  and  C_28
REMARK                            x       y       z     vdW  Elec       q    Type
REMARK                         _______ _______ _______ _____ _____    ______ ____
ROOT
ATOM      1  C   UNL     1       6.065   3.639  22.641  0.00  0.00    +0.132 C 
ATOM      2  N   UNL     1       6.551   3.404  24.003  0.00  0.00    -0.295 N 
ATOM      3  C   UNL     1       7.902   3.469  24.383  0.00  0.00    +0.228 C 
ATOM      4  O   UNL     1       8.207   3.502  25.582  0.00  0.00    -0.275 OA
ENDROOT
BRANCH   2   5
ATOM      5  C   UNL     1       5.530   3.241  25.099  0.00  0.00    +0.120 C 
BRANCH   5   6
ATOM      6  C   UNL     1       4.649   4.487  25.285  0.00  0.00    -0.026 A 
ATOM      7  C   UNL     1       5.142   5.697  25.799  0.00  0.00    +0.005 A 
ATOM      8  C   UNL     1       4.278   6.722  26.188  0.00  0.00    +0.000 A 
ATOM      9  C   UNL     1       2.903   6.563  26.057  0.00  0.00    +0.000 A 
ATOM     10  C   UNL     1       2.393   5.396  25.496  0.00  0.00    +0.000 A 
ATOM     11  C   UNL     1       3.257   4.371  25.101  0.00  0.00    +0.005 A 
ENDBRANCH   5   6
BRANCH   5  12
ATOM     12  C   UNL     1       4.746   1.866  25.061  0.00  0.00    +0.111 C 
BRANCH  12  13
ATOM     13  N   UNL     1       5.461   0.603  25.332  0.00  0.00    -0.298 NA
ATOM     14  C   UNL     1       6.383   0.709  26.481  0.00  0.00    +0.115 C 
ATOM     15  C   UNL     1       7.626  -0.109  26.107  0.00  0.00    +0.130 C 
ATOM     16  C   UNL     1       7.197  -0.878  24.872  0.00  0.00    +0.048 C 
ATOM     17  C   UNL     1       6.227   0.081  24.207  0.00  0.00    +0.087 C 
BRANCH  15  18
ATOM     18  O   UNL     1       8.037  -0.984  27.143  0.00  0.00    -0.390 OA
ATOM     19  H   UNL     1       7.752  -1.880  26.894  0.00  0.00    +0.210 HD
ENDBRANCH  15  18
ENDBRANCH  12  13
ENDBRANCH   5  12
ENDBRANCH   2   5
BRANCH   3  20
ATOM     20  C   UNL     1       9.017   3.432  23.294  0.00  0.00    +0.135 C 
BRANCH  20  21
ATOM     21  C   UNL     1       9.436   1.993  22.953  0.00  0.00    -0.031 A 
ATOM     22  C   UNL     1       9.112   1.389  21.728  0.00  0.00    +0.005 A 
ATOM     23  C   UNL     1       9.466   0.066  21.460  0.00  0.00    +0.000 A 
ATOM     24  C   UNL     1      10.183  -0.669  22.398  0.00  0.00    +0.000 A 
ATOM     25  C   UNL     1      10.545  -0.081  23.607  0.00  0.00    +0.000 A 
ATOM     26  C   UNL     1      10.167   1.235  23.884  0.00  0.00    +0.005 A 
ENDBRANCH  20  21
BRANCH  20  27
ATOM     27  C   UNL     1      10.189   4.376  23.604  0.00  0.00    -0.031 A 
ATOM     28  C   UNL     1       9.949   5.603  24.252  0.00  0.00    +0.005 A 
ATOM     29  C   UNL     1      10.994   6.491  24.530  0.00  0.00    +0.000 A 
ATOM     30  C   UNL     1      12.299   6.174  24.160  0.00  0.00    +0.000 A 
ATOM     31  C   UNL     1      12.561   4.966  23.526  0.00  0.00    +0.000 A 
ATOM     32  C   UNL     1      11.519   4.069  23.266  0.00  0.00    +0.005 A 
ENDBRANCH  20  27
ENDBRANCH   3  20
TORSDOF 8
ENDMDL
MODEL 7
REMARK VINA RESULT:      -6.1      1.843      8.218
REMARK  Name = 
REMARK  9 active torsions:
REMARK  status: ('A' for Active; 'I' for Inactive)
REMARK    1  A    between atoms: C_1  and  N_2
REMARK    2  A    between atoms: N_2  and  C_3
REMARK    3  A    between atoms: C_3  and  C_5
REMARK    4  A    between atoms: C_3  and  C_13
REMARK    5  A    between atoms: C_5  and  N_6
REMARK    6  A    between atoms: C_9  and  O_11
REMARK    7  A    between atoms: C_19  and  C_21
REMARK    8  A    between atoms: C_21  and  C_22
REMARK    9  A    between atoms: C_21  and  C_28
REMARK                            x       y       z     vdW  Elec       q    Type
REMARK                         _______ _______ _______ _____ _____    ______ ____
ROOT
ATOM      1  C   UNL     1       8.044  -1.422  25.994  0.00  0.00    +0.132 C 
ATOM      2  N   UNL     1       6.671  -1.386  25.482  0.00  0.00    -0.295 N 
ATOM      3  C   UNL     1       5.836  -2.510  25.377  0.00  0.00    +0.228 C 
ATOM      4  O   UNL     1       4.625  -2.364  25.170  0.00  0.00    -0.275 OA
ENDROOT
BRANCH   2   5
ATOM      5  C   UNL     1       6.060  -0.038  25.199  0.00  0.00    +0.120 C 
BRANCH   5   6
ATOM      6  C   UNL     1       6.160   0.926  26.393  0.00  0.00    -0.026 A 
ATOM      7  C   UNL     1       6.776   2.184  26.304  0.00  0.00    +0.005 A 
ATOM      8  C   UNL     1       7.071   2.925  27.450  0.00  0.00    +0.000 A 
ATOM      9  C   UNL     1       6.742   2.429  28.706  0.00  0.00    +0.000 A 
ATOM     10  C   UNL     1       6.078   1.211  28.816  0.00  0.00    +0.000 A 
ATOM     11  C   UNL     1       5.776   0.470  27.670  0.00  0.00    +0.005 A 
ENDBRANCH   5   6
BRANCH   5  12
ATOM     12  C   UNL     1       6.466   0.583  23.800  0.00  0.00    +0.111 C 
BRANCH  12  13
ATOM     13  N   UNL     1       7.883   0.610  23.390  0.00  0.00    -0.298 NA
ATOM     14  C   UNL     1       8.272   1.895  22.775  0.00  0.00    +0.115 C 
ATOM     15  C   UNL     1       9.230   1.548  21.629  0.00  0.00    +0.130 C 
ATOM     16  C   UNL     1       9.558   0.085  21.860  0.00  0.00    +0.048 C 
ATOM     17  C   UNL     1       8.273  -0.448  22.466  0.00  0.00    +0.087 C 
BRANCH  15  18
ATOM     18  O   UNL     1      10.402   2.346  21.634  0.00  0.00    -0.390 OA
ATOM     19  H   UNL     1      10.255   3.077  21.010  0.00  0.00    +0.210 HD
ENDBRANCH  15  18
ENDBRANCH  12  13
ENDBRANCH   5  12
ENDBRANCH   2   5
BRANCH   3  20
ATOM     20  C   UNL     1       6.448  -3.942  25.456  0.00  0.00    +0.135 C 
BRANCH  20  21
ATOM     21  C   UNL     1       6.403  -4.658  24.096  0.00  0.00    -0.031 A 
ATOM     22  C   UNL     1       5.204  -4.858  23.394  0.00  0.00    +0.005 A 
ATOM     23  C   UNL     1       5.185  -5.549  22.182  0.00  0.00    +0.000 A 
ATOM     24  C   UNL     1       6.370  -6.022  21.629  0.00  0.00    +0.000 A 
ATOM     25  C   UNL     1       7.576  -5.806  22.290  0.00  0.00    +0.000 A 
ATOM     26  C   UNL     1       7.590  -5.138  23.516  0.00  0.00    +0.005 A 
ENDBRANCH  20  21
BRANCH  20  27
ATOM     27  C   UNL     1       5.891  -4.768  26.625  0.00  0.00    -0.031 A 
ATOM     28  C   UNL     1       5.486  -6.100  26.413  0.00  0.00    +0.005 A 
ATOM     29  C   UNL     1       4.957  -6.870  27.455  0.00  0.00    +0.000 A 
ATOM     30  C   UNL     1       4.815  -6.322  28.728  0.00  0.00    +0.000 A 
ATOM     31  C   UNL     1       5.214  -5.012  28.963  0.00  0.00    +0.000 A 
ATOM     32  C   UNL     1       5.761  -4.249  27.925  0.00  0.00    +0.005 A 
ENDBRANCH  20  27
ENDBRANCH   3  20
TORSDOF 8
ENDMDL
MODEL 8
REMARK VINA RESULT:      -6.0      1.159      3.625
REMARK  Name = 
REMARK  9 active torsions:
REMARK  status: ('A' for Active; 'I' for Inactive)
REMARK    1  A    between atoms: C_1  and  N_2
REMARK    2  A    between atoms: N_2  and  C_3
REMARK    3  A    between atoms: C_3  and  C_5
REMARK    4  A    between atoms: C_3  and  C_13
REMARK    5  A    between atoms: C_5  and  N_6
REMARK    6  A    between atoms: C_9  and  O_11
REMARK    7  A    between atoms: C_19  and  C_21
REMARK    8  A    between atoms: C_21  and  C_22
REMARK    9  A    between atoms: C_21  and  C_28
REMARK                            x       y       z     vdW  Elec       q    Type
REMARK                         _______ _______ _______ _____ _____    ______ ____
ROOT
ATOM      1  C   UNL     1       4.796  -1.388  25.717  0.00  0.00    +0.132 C 
ATOM      2  N   UNL     1       6.119  -1.931  25.398  0.00  0.00    -0.295 N 
ATOM      3  C   UNL     1       7.277  -1.152  25.242  0.00  0.00    +0.228 C 
ATOM      4  O   UNL     1       8.390  -1.695  25.218  0.00  0.00    -0.275 OA
ENDROOT
BRANCH   2   5
ATOM      5  C   UNL     1       6.284  -3.428  25.393  0.00  0.00    +0.120 C 
BRANCH   5   6
ATOM      6  C   UNL     1       6.602  -3.990  23.998  0.00  0.00    -0.026 A 
ATOM      7  C   UNL     1       5.931  -3.573  22.839  0.00  0.00    +0.005 A 
ATOM      8  C   UNL     1       6.063  -4.270  21.637  0.00  0.00    +0.000 A 
ATOM      9  C   UNL     1       6.882  -5.391  21.567  0.00  0.00    +0.000 A 
ATOM     10  C   UNL     1       7.604  -5.791  22.688  0.00  0.00    +0.000 A 
ATOM     11  C   UNL     1       7.477  -5.090  23.891  0.00  0.00    +0.005 A 
ENDBRANCH   5   6
BRANCH   5  12
ATOM     12  C   UNL     1       7.190  -3.989  26.565  0.00  0.00    +0.111 C 
BRANCH  12  13
ATOM     13  N   UNL     1       6.571  -4.716  27.690  0.00  0.00    -0.298 NA
ATOM     14  C   UNL     1       6.156  -6.085  27.322  0.00  0.00    +0.115 C 
ATOM     15  C   UNL     1       4.827  -6.338  28.044  0.00  0.00    +0.130 C 
ATOM     16  C   UNL     1       4.721  -5.185  29.024  0.00  0.00    +0.048 C 
ATOM     17  C   UNL     1       5.413  -4.057  28.281  0.00  0.00    +0.087 C 
BRANCH  15  18
ATOM     18  O   UNL     1       4.796  -7.588  28.713  0.00  0.00    -0.390 OA
ATOM     19  H   UNL     1       4.269  -8.195  28.166  0.00  0.00    +0.210 HD
ENDBRANCH  15  18
ENDBRANCH  12  13
ENDBRANCH   5  12
ENDBRANCH   2   5
BRANCH   3  20
ATOM     20  C   UNL     1       7.155   0.389  25.034  0.00  0.00    +0.135 C 
BRANCH  20  21
ATOM     21  C   UNL     1       8.184   0.911  24.018  0.00  0.00    -0.031 A 
ATOM     22  C   UNL     1       7.969   0.844  22.633  0.00  0.00    +0.005 A 
ATOM     23  C   UNL     1       8.937   1.286  21.730  0.00  0.00    +0.000 A 
ATOM     24  C   UNL     1      10.126   1.837  22.196  0.00  0.00    +0.000 A 
ATOM     25  C   UNL     1      10.348   1.945  23.566  0.00  0.00    +0.000 A 
ATOM     26  C   UNL     1       9.389   1.478  24.468  0.00  0.00    +0.005 A 
ENDBRANCH  20  21
BRANCH  20  27
ATOM     27  C   UNL     1       7.117   1.171  26.357  0.00  0.00    -0.031 A 
ATOM     28  C   UNL     1       7.351   0.503  27.574  0.00  0.00    +0.005 A 
ATOM     29  C   UNL     1       7.303   1.186  28.794  0.00  0.00    +0.000 A 
ATOM     30  C   UNL     1       7.013   2.548  28.823  0.00  0.00    +0.000 A 
ATOM     31  C   UNL     1       6.784   3.229  27.634  0.00  0.00    +0.000 A 
ATOM     32  C   UNL     1       6.852   2.550  26.413  0.00  0.00    +0.005 A 
ENDBRANCH  20  27
ENDBRANCH   3  20
TORSDOF 8
ENDMDL
MODEL 9
REMARK VINA RESULT:      -6.0      2.195      6.008
REMARK  Name = 
REMARK  9 active torsions:
REMARK  status: ('A' for Active; 'I' for Inactive)
REMARK    1  A    between atoms: C_1  and  N_2
REMARK    2  A    between atoms: N_2  and  C_3
REMARK    3  A    between atoms: C_3  and  C_5
REMARK    4  A    between atoms: C_3  and  C_13
REMARK    5  A    between atoms: C_5  and  N_6
REMARK    6  A    between atoms: C_9  and  O_11
REMARK    7  A    between atoms: C_19  and  C_21
REMARK    8  A    between atoms: C_21  and  C_22
REMARK    9  A    between atoms: C_21  and  C_28
REMARK                            x       y       z     vdW  Elec       q    Type
REMARK                         _______ _______ _______ _____ _____    ______ ____
ROOT
ATOM      1  C   UNL     1       8.533  -1.482  25.378  0.00  0.00    +0.132 C 
ATOM      2  N   UNL     1       7.317  -1.707  24.590  0.00  0.00    -0.295 N 
ATOM      3  C   UNL     1       6.038  -1.882  25.143  0.00  0.00    +0.228 C 
ATOM      4  O   UNL     1       5.037  -1.821  24.417  0.00  0.00    -0.275 OA
ENDROOT
BRANCH   2   5
ATOM      5  C   UNL     1       7.415  -1.583  23.092  0.00  0.00    +0.120 C 
BRANCH   5   6
ATOM      6  C   UNL     1       7.940  -0.211  22.638  0.00  0.00    -0.026 A 
ATOM      7  C   UNL     1       9.200  -0.038  22.044  0.00  0.00    +0.005 A 
ATOM      8  C   UNL     1       9.748   1.235  21.873  0.00  0.00    +0.000 A 
ATOM      9  C   UNL     1       9.040   2.360  22.278  0.00  0.00    +0.000 A 
ATOM     10  C   UNL     1       7.764   2.217  22.817  0.00  0.00    +0.000 A 
ATOM     11  C   UNL     1       7.212   0.945  22.984  0.00  0.00    +0.005 A 
ENDBRANCH   5   6
BRANCH   5  12
ATOM     12  C   UNL     1       8.085  -2.827  22.376  0.00  0.00    +0.111 C 
BRANCH  12  13
ATOM     13  N   UNL     1       7.414  -4.142  22.406  0.00  0.00    -0.298 NA
ATOM     14  C   UNL     1       5.987  -4.059  22.033  0.00  0.00    +0.115 C 
ATOM     15  C   UNL     1       5.250  -5.047  22.947  0.00  0.00    +0.130 C 
ATOM     16  C   UNL     1       6.365  -5.852  23.586  0.00  0.00    +0.048 C 
ATOM     17  C   UNL     1       7.489  -4.838  23.684  0.00  0.00    +0.087 C 
BRANCH  15  18
ATOM     18  O   UNL     1       4.351  -5.883  22.236  0.00  0.00    -0.390 OA
ATOM     19  H   UNL     1       4.156  -5.443  21.391  0.00  0.00    +0.210 HD
ENDBRANCH  15  18
ENDBRANCH  12  13
ENDBRANCH   5  12
ENDBRANCH   2   5
BRANCH   3  20
ATOM     20  C   UNL     1       5.886  -2.219  26.657  0.00  0.00    +0.135 C 
BRANCH  20  21
ATOM     21  C   UNL     1       5.576  -3.708  26.883  0.00  0.00    -0.031 A 
ATOM     22  C   UNL     1       4.361  -4.288  26.488  0.00  0.00    +0.005 A 
ATOM     23  C   UNL     1       4.086  -5.632  26.743  0.00  0.00    +0.000 A 
ATOM     24  C   UNL     1       5.038  -6.433  27.367  0.00  0.00    +0.000 A 
ATOM     25  C   UNL     1       6.264  -5.888  27.737  0.00  0.00    +0.000 A 
ATOM     26  C   UNL     1       6.527  -4.536  27.505  0.00  0.00    +0.005 A 
ENDBRANCH  20  21
BRANCH  20  27
ATOM     27  C   UNL     1       4.941  -1.256  27.393  0.00  0.00    -0.031 A 
ATOM     28  C   UNL     1       4.260  -1.688  28.548  0.00  0.00    +0.005 A 
ATOM     29  C   UNL     1       3.379  -0.839  29.227  0.00  0.00    +0.000 A 
ATOM     30  C   UNL     1       3.154   0.454  28.762  0.00  0.00    +0.000 A 
ATOM     31  C   UNL     1       3.819   0.904  27.628  0.00  0.00    +0.000 A 
ATOM     32  C   UNL     1       4.716   0.062  26.961  0.00  0.00    +0.005 A 
ENDBRANCH  20  27
ENDBRANCH   3  20
TORSDOF 8
ENDMDL
