MODEL 1
REMARK VINA RESULT:      -5.3      0.000      0.000
REMARK  Name = 
REMARK  2 active torsions:
REMARK  status: ('A' for Active; 'I' for Inactive)
REMARK    1  A    between atoms: N_1  and  C_2
REMARK    2  A    between atoms: C_2  and  C_3
REMARK                            x       y       z     vdW  Elec       q    Type
REMARK                         _______ _______ _______ _____ _____    ______ ____
ROOT
ATOM      1  C   UNL     1       8.982  -1.790  24.977  0.00  0.00    -0.002 A 
ATOM      2  C   UNL     1       9.347  -0.918  23.911  0.00  0.00    +0.087 A 
ATOM      3  C   UNL     1       9.535   0.344  24.424  0.00  0.00    +0.147 A 
ATOM      4  N   UNL     1       9.858   1.476  23.757  0.00  0.00    -0.198 NA
ATOM      5  C   UNL     1       9.987   1.302  22.470  0.00  0.00    +0.195 A 
ATOM      6  N   UNL     1       9.846   0.083  21.842  0.00  0.00    -0.295 N 
ATOM      7  H   UNL     1       9.919   0.019  20.842  0.00  0.00    +0.172 HD
ATOM      8  N   UNL     1      10.287   2.356  21.670  0.00  0.00    -0.329 N 
ATOM      9  H   UNL     1      10.828   2.176  20.836  0.00  0.00    +0.145 HD
ATOM     10  H   UNL     1      10.604   3.164  22.195  0.00  0.00    +0.145 HD
ATOM     11  N   UNL     1       9.309   0.289  25.767  0.00  0.00    -0.345 N 
ATOM     12  H   UNL     1       9.367   1.084  26.388  0.00  0.00    +0.167 HD
ATOM     13  C   UNL     1       9.510  -1.092  22.490  0.00  0.00    +0.262 A 
ATOM     14  O   UNL     1       9.361  -2.156  21.896  0.00  0.00    -0.267 OA
ATOM     15  C   UNL     1       8.975  -0.999  26.118  0.00  0.00    +0.090 A 
ENDROOT
BRANCH   1  16
ATOM     16  C   UNL     1       8.681  -3.247  24.890  0.00  0.00    +0.115 C 
BRANCH  16  17
ATOM     17  N   UNL     1       9.886  -3.959  24.483  0.00  0.00    -0.326 NA
ATOM     18  H   UNL     1       9.774  -4.941  24.754  0.00  0.00    +0.119 HD
ATOM     19  H   UNL     1       9.927  -3.974  23.466  0.00  0.00    +0.119 HD
ENDBRANCH  16  17
ENDBRANCH   1  16
TORSDOF 2
ENDMDL
MODEL 2
REMARK VINA RESULT:      -5.3      2.824      3.425
REMARK  Name = 
REMARK  2 active torsions:
REMARK  status: ('A' for Active; 'I' for Inactive)
REMARK    1  A    between atoms: N_1  and  C_2
REMARK    2  A    between atoms: C_2  and  C_3
REMARK                            x       y       z     vdW  Elec       q    Type
REMARK                         _______ _______ _______ _____ _____    ______ ____
ROOT
ATOM      1  C   UNL     1       8.406  -0.609  22.935  0.00  0.00    -0.002 A 
ATOM      2  C   UNL     1       8.213   0.769  22.631  0.00  0.00    +0.087 A 
ATOM      3  C   UNL     1       6.890   1.082  22.841  0.00  0.00    +0.147 A 
ATOM      4  N   UNL     1       6.271   2.269  22.645  0.00  0.00    -0.198 NA
ATOM      5  C   UNL     1       7.065   3.200  22.191  0.00  0.00    +0.195 A 
ATOM      6  N   UNL     1       8.412   3.016  21.962  0.00  0.00    -0.295 N 
ATOM      7  H   UNL     1       8.964   3.761  21.574  0.00  0.00    +0.172 HD
ATOM      8  N   UNL     1       6.576   4.437  21.925  0.00  0.00    -0.329 N 
ATOM      9  H   UNL     1       7.198   5.225  22.041  0.00  0.00    +0.145 HD
ATOM     10  H   UNL     1       5.655   4.584  22.323  0.00  0.00    +0.145 HD
ATOM     11  N   UNL     1       6.256  -0.046  23.270  0.00  0.00    -0.345 N 
ATOM     12  H   UNL     1       5.271  -0.099  23.488  0.00  0.00    +0.167 HD
ATOM     13  C   UNL     1       9.075   1.817  22.145  0.00  0.00    +0.262 A 
ATOM     14  O   UNL     1      10.270   1.677  21.901  0.00  0.00    -0.267 OA
ATOM     15  C   UNL     1       7.163  -1.079  23.335  0.00  0.00    +0.090 A 
ENDROOT
BRANCH   1  16
ATOM     16  C   UNL     1       9.678  -1.382  22.851  0.00  0.00    +0.115 C 
BRANCH  16  17
ATOM     17  N   UNL     1      10.093  -1.468  21.456  0.00  0.00    -0.326 NA
ATOM     18  H   UNL     1      10.849  -2.157  21.399  0.00  0.00    +0.119 HD
ATOM     19  H   UNL     1       9.331  -1.872  20.915  0.00  0.00    +0.119 HD
ENDBRANCH  16  17
ENDBRANCH   1  16
TORSDOF 2
ENDMDL
MODEL 3
REMARK VINA RESULT:      -5.2      1.678      2.717
REMARK  Name = 
REMARK  2 active torsions:
REMARK  status: ('A' for Active; 'I' for Inactive)
REMARK    1  A    between atoms: N_1  and  C_2
REMARK    2  A    between atoms: C_2  and  C_3
REMARK                            x       y       z     vdW  Elec       q    Type
REMARK                         _______ _______ _______ _____ _____    ______ ____
ROOT
ATOM      1  C   UNL     1       9.120  -1.641  23.083  0.00  0.00    -0.002 A 
ATOM      2  C   UNL     1       9.527  -0.308  23.376  0.00  0.00    +0.087 A 
ATOM      3  C   UNL     1       9.736   0.356  22.190  0.00  0.00    +0.147 A 
ATOM      4  N   UNL     1      10.159   1.628  22.009  0.00  0.00    -0.198 NA
ATOM      5  C   UNL     1      10.395   2.262  23.126  0.00  0.00    +0.195 A 
ATOM      6  N   UNL     1      10.203   1.712  24.375  0.00  0.00    -0.295 N 
ATOM      7  H   UNL     1      10.439   2.237  25.199  0.00  0.00    +0.172 HD
ATOM      8  N   UNL     1      10.849   3.540  23.097  0.00  0.00    -0.329 N 
ATOM      9  H   UNL     1      10.586   4.150  23.858  0.00  0.00    +0.145 HD
ATOM     10  H   UNL     1      10.751   3.966  22.182  0.00  0.00    +0.145 HD
ATOM     11  N   UNL     1       9.467  -0.510  21.172  0.00  0.00    -0.345 N 
ATOM     12  H   UNL     1       9.553  -0.282  20.192  0.00  0.00    +0.167 HD
ATOM     13  C   UNL     1       9.778   0.415  24.598  0.00  0.00    +0.262 A 
ATOM     14  O   UNL     1       9.647  -0.055  25.724  0.00  0.00    -0.267 OA
ATOM     15  C   UNL     1       9.090  -1.724  21.698  0.00  0.00    +0.090 A 
ENDROOT
BRANCH   1  16
ATOM     16  C   UNL     1       8.786  -2.718  24.058  0.00  0.00    +0.115 C 
BRANCH  16  17
ATOM     17  N   UNL     1       9.956  -3.567  24.250  0.00  0.00    -0.326 NA
ATOM     18  H   UNL     1       9.695  -4.313  24.903  0.00  0.00    +0.119 HD
ATOM     19  H   UNL     1      10.156  -4.047  23.375  0.00  0.00    +0.119 HD
ENDBRANCH  16  17
ENDBRANCH   1  16
TORSDOF 2
ENDMDL
MODEL 4
REMARK VINA RESULT:      -5.2      1.947      2.518
REMARK  Name = 
REMARK  2 active torsions:
REMARK  status: ('A' for Active; 'I' for Inactive)
REMARK    1  A    between atoms: N_1  and  C_2
REMARK    2  A    between atoms: C_2  and  C_3
REMARK                            x       y       z     vdW  Elec       q    Type
REMARK                         _______ _______ _______ _____ _____    ______ ____
ROOT
ATOM      1  C   UNL     1       9.405  -0.491  23.587  0.00  0.00    -0.002 A 
ATOM      2  C   UNL     1       9.256   0.877  23.220  0.00  0.00    +0.087 A 
ATOM      3  C   UNL     1       9.445   1.653  24.341  0.00  0.00    +0.147 A 
ATOM      4  N   UNL     1       9.363   2.999  24.448  0.00  0.00    -0.198 NA
ATOM      5  C   UNL     1       9.056   3.592  23.326  0.00  0.00    +0.195 A 
ATOM      6  N   UNL     1       8.864   2.927  22.134  0.00  0.00    -0.295 N 
ATOM      7  H   UNL     1       8.590   3.435  21.311  0.00  0.00    +0.172 HD
ATOM      8  N   UNL     1       8.915   4.941  23.289  0.00  0.00    -0.329 N 
ATOM      9  H   UNL     1       9.149   5.415  22.428  0.00  0.00    +0.145 HD
ATOM     10  H   UNL     1       9.288   5.392  24.117  0.00  0.00    +0.145 HD
ATOM     11  N   UNL     1       9.712   0.820  25.386  0.00  0.00    -0.345 N 
ATOM     12  H   UNL     1       9.880   1.129  26.333  0.00  0.00    +0.167 HD
ATOM     13  C   UNL     1       8.933   1.553  21.989  0.00  0.00    +0.262 A 
ATOM     14  O   UNL     1       8.726   0.989  20.919  0.00  0.00    -0.267 OA
ATOM     15  C   UNL     1       9.694  -0.483  24.944  0.00  0.00    +0.090 A 
ENDROOT
BRANCH   1  16
ATOM     16  C   UNL     1       9.285  -1.682  22.698  0.00  0.00    +0.115 C 
BRANCH  16  17
ATOM     17  N   UNL     1      10.293  -1.596  21.648  0.00  0.00    -0.326 NA
ATOM     18  H   UNL     1      10.964  -2.356  21.798  0.00  0.00    +0.119 HD
ATOM     19  H   UNL     1       9.852  -1.811  20.756  0.00  0.00    +0.119 HD
ENDBRANCH  16  17
ENDBRANCH   1  16
TORSDOF 2
ENDMDL
MODEL 5
REMARK VINA RESULT:      -5.2      1.955      2.083
REMARK  Name = 
REMARK  2 active torsions:
REMARK  status: ('A' for Active; 'I' for Inactive)
REMARK    1  A    between atoms: N_1  and  C_2
REMARK    2  A    between atoms: C_2  and  C_3
REMARK                            x       y       z     vdW  Elec       q    Type
REMARK                         _______ _______ _______ _____ _____    ______ ____
ROOT
ATOM      1  C   UNL     1       7.659  -2.539  23.403  0.00  0.00    -0.002 A 
ATOM      2  C   UNL     1       8.444  -1.455  22.915  0.00  0.00    +0.087 A 
ATOM      3  C   UNL     1       7.636  -0.347  22.802  0.00  0.00    +0.147 A 
ATOM      4  N   UNL     1       7.966   0.884  22.349  0.00  0.00    -0.198 NA
ATOM      5  C   UNL     1       9.213   0.983  21.976  0.00  0.00    +0.195 A 
ATOM      6  N   UNL     1      10.125  -0.047  22.061  0.00  0.00    -0.295 N 
ATOM      7  H   UNL     1      11.062   0.079  21.721  0.00  0.00    +0.172 HD
ATOM      8  N   UNL     1       9.680   2.156  21.477  0.00  0.00    -0.329 N 
ATOM      9  H   UNL     1      10.652   2.381  21.636  0.00  0.00    +0.145 HD
ATOM     10  H   UNL     1       9.048   2.930  21.650  0.00  0.00    +0.145 HD
ATOM     11  N   UNL     1       6.383  -0.699  23.208  0.00  0.00    -0.345 N 
ATOM     12  H   UNL     1       5.589  -0.075  23.214  0.00  0.00    +0.167 HD
ATOM     13  C   UNL     1       9.821  -1.319  22.512  0.00  0.00    +0.262 A 
ATOM     14  O   UNL     1      10.649  -2.224  22.546  0.00  0.00    -0.267 OA
ATOM     15  C   UNL     1       6.382  -2.025  23.577  0.00  0.00    +0.090 A 
ENDROOT
BRANCH   1  16
ATOM     16  C   UNL     1       8.115  -3.931  23.678  0.00  0.00    +0.115 C 
BRANCH  16  17
ATOM     17  N   UNL     1       9.157  -3.898  24.697  0.00  0.00    -0.326 NA
ATOM     18  H   UNL     1       9.775  -3.108  24.485  0.00  0.00    +0.119 HD
ATOM     19  H   UNL     1       8.730  -3.662  25.591  0.00  0.00    +0.119 HD
ENDBRANCH  16  17
ENDBRANCH   1  16
TORSDOF 2
ENDMDL
MODEL 6
REMARK VINA RESULT:      -5.2      4.886      7.180
REMARK  Name = 
REMARK  2 active torsions:
REMARK  status: ('A' for Active; 'I' for Inactive)
REMARK    1  A    between atoms: N_1  and  C_2
REMARK    2  A    between atoms: C_2  and  C_3
REMARK                            x       y       z     vdW  Elec       q    Type
REMARK                         _______ _______ _______ _____ _____    ______ ____
ROOT
ATOM      1  C   UNL     1       7.972  -4.567  24.294  0.00  0.00    -0.002 A 
ATOM      2  C   UNL     1       7.063  -5.264  25.141  0.00  0.00    +0.087 A 
ATOM      3  C   UNL     1       5.980  -5.656  24.389  0.00  0.00    +0.147 A 
ATOM      4  N   UNL     1       4.872  -6.315  24.801  0.00  0.00    -0.198 NA
ATOM      5  C   UNL     1       4.871  -6.581  26.079  0.00  0.00    +0.195 A 
ATOM      6  N   UNL     1       5.906  -6.260  26.931  0.00  0.00    -0.295 N 
ATOM      7  H   UNL     1       5.831  -6.457  27.913  0.00  0.00    +0.172 HD
ATOM      8  N   UNL     1       3.812  -7.219  26.638  0.00  0.00    -0.329 N 
ATOM      9  H   UNL     1       3.988  -7.817  27.432  0.00  0.00    +0.145 HD
ATOM     10  H   UNL     1       3.198  -7.632  25.944  0.00  0.00    +0.145 HD
ATOM     11  N   UNL     1       6.185  -5.237  23.108  0.00  0.00    -0.345 N 
ATOM     12  H   UNL     1       5.534  -5.383  22.349  0.00  0.00    +0.167 HD
ATOM     13  C   UNL     1       7.049  -5.582  26.546  0.00  0.00    +0.262 A 
ATOM     14  O   UNL     1       7.939  -5.284  27.337  0.00  0.00    -0.267 OA
ATOM     15  C   UNL     1       7.390  -4.577  23.035  0.00  0.00    +0.090 A 
ENDROOT
BRANCH   1  16
ATOM     16  C   UNL     1       9.280  -3.963  24.678  0.00  0.00    +0.115 C 
BRANCH  16  17
ATOM     17  N   UNL     1      10.211  -5.027  25.033  0.00  0.00    -0.326 NA
ATOM     18  H   UNL     1      10.355  -5.606  24.199  0.00  0.00    +0.119 HD
ATOM     19  H   UNL     1      11.122  -4.613  25.221  0.00  0.00    +0.119 HD
ENDBRANCH  16  17
ENDBRANCH   1  16
TORSDOF 2
ENDMDL
MODEL 7
REMARK VINA RESULT:      -5.1      1.938      2.223
REMARK  Name = 
REMARK  2 active torsions:
REMARK  status: ('A' for Active; 'I' for Inactive)
REMARK    1  A    between atoms: N_1  and  C_2
REMARK    2  A    between atoms: C_2  and  C_3
REMARK                            x       y       z     vdW  Elec       q    Type
REMARK                         _______ _______ _______ _____ _____    ______ ____
ROOT
ATOM      1  C   UNL     1       8.782  -0.689  23.784  0.00  0.00    -0.002 A 
ATOM      2  C   UNL     1       9.395   0.476  23.239  0.00  0.00    +0.087 A 
ATOM      3  C   UNL     1      10.079   1.120  24.243  0.00  0.00    +0.147 A 
ATOM      4  N   UNL     1      10.774   2.278  24.170  0.00  0.00    -0.198 NA
ATOM      5  C   UNL     1      10.758   2.820  22.983  0.00  0.00    +0.195 A 
ATOM      6  N   UNL     1      10.128   2.260  21.892  0.00  0.00    -0.295 N 
ATOM      7  H   UNL     1      10.117   2.744  21.012  0.00  0.00    +0.172 HD
ATOM      8  N   UNL     1      11.395   3.998  22.766  0.00  0.00    -0.329 N 
ATOM      9  H   UNL     1      11.780   4.164  21.848  0.00  0.00    +0.145 HD
ATOM     10  H   UNL     1      12.025   4.243  23.523  0.00  0.00    +0.145 HD
ATOM     11  N   UNL     1       9.920   0.397  25.389  0.00  0.00    -0.345 N 
ATOM     12  H   UNL     1      10.311   0.655  26.284  0.00  0.00    +0.167 HD
ATOM     13  C   UNL     1       9.403   1.083  21.932  0.00  0.00    +0.262 A 
ATOM     14  O   UNL     1       8.827   0.626  20.949  0.00  0.00    -0.267 OA
ATOM     15  C   UNL     1       9.138  -0.704  25.125  0.00  0.00    +0.090 A 
ENDROOT
BRANCH   1  16
ATOM     16  C   UNL     1       7.942  -1.688  23.064  0.00  0.00    +0.115 C 
BRANCH  16  17
ATOM     17  N   UNL     1       6.632  -1.106  22.796  0.00  0.00    -0.326 NA
ATOM     18  H   UNL     1       6.020  -1.858  22.464  0.00  0.00    +0.119 HD
ATOM     19  H   UNL     1       6.223  -0.808  23.679  0.00  0.00    +0.119 HD
ENDBRANCH  16  17
ENDBRANCH   1  16
TORSDOF 2
ENDMDL
MODEL 8
REMARK VINA RESULT:      -5.0      1.191      3.967
REMARK  Name = 
REMARK  2 active torsions:
REMARK  status: ('A' for Active; 'I' for Inactive)
REMARK    1  A    between atoms: N_1  and  C_2
REMARK    2  A    between atoms: C_2  and  C_3
REMARK                            x       y       z     vdW  Elec       q    Type
REMARK                         _______ _______ _______ _____ _____    ______ ____
ROOT
ATOM      1  C   UNL     1       9.628   0.981  23.431  0.00  0.00    -0.002 A 
ATOM      2  C   UNL     1       9.456  -0.393  23.768  0.00  0.00    +0.087 A 
ATOM      3  C   UNL     1       9.047  -0.474  25.078  0.00  0.00    +0.147 A 
ATOM      4  N   UNL     1       8.800  -1.586  25.808  0.00  0.00    -0.198 NA
ATOM      5  C   UNL     1       8.996  -2.695  25.149  0.00  0.00    +0.195 A 
ATOM      6  N   UNL     1       9.383  -2.744  23.827  0.00  0.00    -0.295 N 
ATOM      7  H   UNL     1       9.556  -3.629  23.384  0.00  0.00    +0.172 HD
ATOM      8  N   UNL     1       8.809  -3.890  25.762  0.00  0.00    -0.329 N 
ATOM      9  H   UNL     1       8.499  -4.667  25.196  0.00  0.00    +0.145 HD
ATOM     10  H   UNL     1       8.310  -3.802  26.641  0.00  0.00    +0.145 HD
ATOM     11  N   UNL     1       8.951   0.795  25.566  0.00  0.00    -0.345 N 
ATOM     12  H   UNL     1       8.681   1.024  26.513  0.00  0.00    +0.167 HD
ATOM     13  C   UNL     1       9.651  -1.629  23.053  0.00  0.00    +0.262 A 
ATOM     14  O   UNL     1      10.025  -1.707  21.886  0.00  0.00    -0.267 OA
ATOM     15  C   UNL     1       9.297   1.689  24.578  0.00  0.00    +0.090 A 
ENDROOT
BRANCH   1  16
ATOM     16  C   UNL     1      10.060   1.542  22.120  0.00  0.00    +0.115 C 
BRANCH  16  17
ATOM     17  N   UNL     1       9.020   1.295  21.129  0.00  0.00    -0.326 NA
ATOM     18  H   UNL     1       9.481   1.132  20.228  0.00  0.00    +0.119 HD
ATOM     19  H   UNL     1       8.563   0.413  21.351  0.00  0.00    +0.119 HD
ENDBRANCH  16  17
ENDBRANCH   1  16
TORSDOF 2
ENDMDL
MODEL 9
REMARK VINA RESULT:      -4.9      2.292      4.598
REMARK  Name = 
REMARK  2 active torsions:
REMARK  status: ('A' for Active; 'I' for Inactive)
REMARK    1  A    between atoms: N_1  and  C_2
REMARK    2  A    between atoms: C_2  and  C_3
REMARK                            x       y       z     vdW  Elec       q    Type
REMARK                         _______ _______ _______ _____ _____    ______ ____
ROOT
ATOM      1  C   UNL     1       8.674   0.223  22.503  0.00  0.00    -0.002 A 
ATOM      2  C   UNL     1       8.386  -1.114  22.899  0.00  0.00    +0.087 A 
ATOM      3  C   UNL     1       7.040  -1.209  23.169  0.00  0.00    +0.147 A 
ATOM      4  N   UNL     1       6.350  -2.288  23.605  0.00  0.00    -0.198 NA
ATOM      5  C   UNL     1       7.097  -3.343  23.786  0.00  0.00    +0.195 A 
ATOM      6  N   UNL     1       8.450  -3.380  23.530  0.00  0.00    -0.295 N 
ATOM      7  H   UNL     1       8.979  -4.211  23.727  0.00  0.00    +0.172 HD
ATOM      8  N   UNL     1       6.543  -4.494  24.245  0.00  0.00    -0.329 N 
ATOM      9  H   UNL     1       6.956  -5.367  23.946  0.00  0.00    +0.145 HD
ATOM     10  H   UNL     1       5.530  -4.484  24.194  0.00  0.00    +0.145 HD
ATOM     11  N   UNL     1       6.481   0.015  22.948  0.00  0.00    -0.345 N 
ATOM     12  H   UNL     1       5.503   0.228  23.083  0.00  0.00    +0.167 HD
ATOM     13  C   UNL     1       9.188  -2.296  23.091  0.00  0.00    +0.262 A 
ATOM     14  O   UNL     1      10.400  -2.352  22.902  0.00  0.00    -0.267 OA
ATOM     15  C   UNL     1       7.460   0.893  22.541  0.00  0.00    +0.090 A 
ENDROOT
BRANCH   1  16
ATOM     16  C   UNL     1      10.000   0.784  22.116  0.00  0.00    +0.115 C 
BRANCH  16  17
ATOM     17  N   UNL     1       9.809   2.116  21.556  0.00  0.00    -0.326 NA
ATOM     18  H   UNL     1       8.974   2.520  21.992  0.00  0.00    +0.119 HD
ATOM     19  H   UNL     1      10.576   2.711  21.863  0.00  0.00    +0.119 HD
ENDBRANCH  16  17
ENDBRANCH   1  16
TORSDOF 2
ENDMDL
