MODEL 1
REMARK VINA RESULT:      -5.5      0.000      0.000
REMARK  Name = 
REMARK  9 active torsions:
REMARK  status: ('A' for Active; 'I' for Inactive)
REMARK    1  A    between atoms: C_2  and  N_3
REMARK    2  A    between atoms: C_2  and  C_4
REMARK    3  A    between atoms: C_2  and  C_11
REMARK    4  A    between atoms: C_4  and  C_5
REMARK    5  A    between atoms: C_11  and  O_12
REMARK    6  A    between atoms: C_11  and  C_13
REMARK    7  A    between atoms: C_13  and  N_15
REMARK    8  A    between atoms: C_13  and  C_16
REMARK    9  A    between atoms: C_16  and  C_17
REMARK                            x       y       z     vdW  Elec       q    Type
REMARK                         _______ _______ _______ _____ _____    ______ ____
ROOT
ATOM      1  C   UNL     1       8.407  -4.421  26.655  0.00  0.00    +0.148 C 
ENDROOT
BRANCH   1   2
ATOM      2  O   UNL     1       9.574  -5.135  26.207  0.00  0.00    -0.389 OA
ATOM      3  H   UNL     1      10.210  -5.037  26.940  0.00  0.00    +0.210 HD
ENDBRANCH   1   2
BRANCH   1   4
ATOM      4  C   UNL     1       7.213  -5.421  26.791  0.00  0.00    +0.085 C 
BRANCH   4   5
ATOM      5  N   UNL     1       7.276  -6.179  28.058  0.00  0.00    -0.325 NA
ATOM      6  H   UNL     1       6.463  -6.811  28.089  0.00  0.00    +0.119 HD
ATOM      7  H   UNL     1       8.093  -6.784  28.052  0.00  0.00    +0.119 HD
ENDBRANCH   4   5
BRANCH   4   8
ATOM      8  C   UNL     1       5.860  -4.674  26.668  0.00  0.00    +0.056 C 
BRANCH   8   9
ATOM      9  C   UNL     1       4.960  -5.180  25.560  0.00  0.00    -0.046 A 
ATOM     10  C   UNL     1       4.883  -6.547  25.260  0.00  0.00    +0.004 A 
ATOM     11  C   UNL     1       4.035  -7.004  24.249  0.00  0.00    +0.000 A 
ATOM     12  C   UNL     1       3.260  -6.100  23.523  0.00  0.00    +0.000 A 
ATOM     13  C   UNL     1       3.335  -4.738  23.806  0.00  0.00    +0.000 A 
ATOM     14  C   UNL     1       4.180  -4.280  24.817  0.00  0.00    +0.004 A 
ENDBRANCH   8   9
ENDBRANCH   4   8
ENDBRANCH   1   4
BRANCH   1  15
ATOM     15  C   UNL     1       8.185  -3.225  25.677  0.00  0.00    +0.085 C 
BRANCH  15  16
ATOM     16  N   UNL     1       8.667  -1.953  26.286  0.00  0.00    -0.325 NA
ATOM     17  H   UNL     1       9.538  -2.141  26.792  0.00  0.00    +0.119 HD
ATOM     18  H   UNL     1       8.956  -1.330  25.529  0.00  0.00    +0.119 HD
ENDBRANCH  15  16
BRANCH  15  19
ATOM     19  C   UNL     1       8.801  -3.498  24.285  0.00  0.00    +0.056 C 
BRANCH  19  20
ATOM     20  C   UNL     1       7.832  -4.079  23.278  0.00  0.00    -0.046 A 
ATOM     21  C   UNL     1       6.978  -3.257  22.529  0.00  0.00    +0.004 A 
ATOM     22  C   UNL     1       6.117  -3.810  21.580  0.00  0.00    +0.000 A 
ATOM     23  C   UNL     1       6.088  -5.189  21.381  0.00  0.00    +0.000 A 
ATOM     24  C   UNL     1       6.921  -6.018  22.130  0.00  0.00    +0.000 A 
ATOM     25  C   UNL     1       7.788  -5.467  23.075  0.00  0.00    +0.004 A 
ENDBRANCH  19  20
ENDBRANCH  15  19
ENDBRANCH   1  15
TORSDOF 9
ENDMDL
MODEL 2
REMARK VINA RESULT:      -5.5      4.410      6.713
REMARK  Name = 
REMARK  9 active torsions:
REMARK  status: ('A' for Active; 'I' for Inactive)
REMARK    1  A    between atoms: C_2  and  N_3
REMARK    2  A    between atoms: C_2  and  C_4
REMARK    3  A    between atoms: C_2  and  C_11
REMARK    4  A    between atoms: C_4  and  C_5
REMARK    5  A    between atoms: C_11  and  O_12
REMARK    6  A    between atoms: C_11  and  C_13
REMARK    7  A    between atoms: C_13  and  N_15
REMARK    8  A    between atoms: C_13  and  C_16
REMARK    9  A    between atoms: C_16  and  C_17
REMARK                            x       y       z     vdW  Elec       q    Type
REMARK                         _______ _______ _______ _____ _____    ______ ____
ROOT
ATOM      1  C   UNL     1       8.496  -1.982  25.492  0.00  0.00    +0.148 C 
ENDROOT
BRANCH   1   2
ATOM      2  O   UNL     1       8.680  -2.912  26.575  0.00  0.00    -0.389 OA
ATOM      3  H   UNL     1       9.039  -2.368  27.300  0.00  0.00    +0.210 HD
ENDBRANCH   1   2
BRANCH   1   4
ATOM      4  C   UNL     1       9.271  -2.496  24.235  0.00  0.00    +0.085 C 
BRANCH   4   5
ATOM      5  N   UNL     1       9.749  -3.881  24.415  0.00  0.00    -0.325 NA
ATOM      6  H   UNL     1       9.940  -4.023  25.418  0.00  0.00    +0.119 HD
ATOM      7  H   UNL     1       9.001  -4.532  24.185  0.00  0.00    +0.119 HD
ENDBRANCH   4   5
BRANCH   4   8
ATOM      8  C   UNL     1       8.387  -2.383  22.966  0.00  0.00    +0.056 C 
BRANCH   8   9
ATOM      9  C   UNL     1       8.217  -0.973  22.440  0.00  0.00    -0.046 A 
ATOM     10  C   UNL     1       7.097  -0.204  22.785  0.00  0.00    +0.004 A 
ATOM     11  C   UNL     1       6.960   1.102  22.311  0.00  0.00    +0.000 A 
ATOM     12  C   UNL     1       7.937   1.651  21.481  0.00  0.00    +0.000 A 
ATOM     13  C   UNL     1       9.050   0.894  21.124  0.00  0.00    +0.000 A 
ATOM     14  C   UNL     1       9.189  -0.411  21.600  0.00  0.00    +0.004 A 
ENDBRANCH   8   9
ENDBRANCH   4   8
ENDBRANCH   1   4
BRANCH   1  15
ATOM     15  C   UNL     1       8.904  -0.568  26.013  0.00  0.00    +0.085 C 
BRANCH  15  16
ATOM     16  N   UNL     1       9.127  -0.597  27.486  0.00  0.00    -0.325 NA
ATOM     17  H   UNL     1       9.554  -1.494  27.737  0.00  0.00    +0.119 HD
ATOM     18  H   UNL     1       9.853   0.088  27.709  0.00  0.00    +0.119 HD
ENDBRANCH  15  16
BRANCH  15  19
ATOM     19  C   UNL     1      10.110   0.006  25.233  0.00  0.00    +0.056 C 
BRANCH  19  20
ATOM     20  C   UNL     1       9.907   1.417  24.725  0.00  0.00    -0.046 A 
ATOM     21  C   UNL     1       8.776   2.165  25.084  0.00  0.00    +0.004 A 
ATOM     22  C   UNL     1       8.626   3.478  24.634  0.00  0.00    +0.000 A 
ATOM     23  C   UNL     1       9.593   4.052  23.811  0.00  0.00    +0.000 A 
ATOM     24  C   UNL     1      10.714   3.313  23.437  0.00  0.00    +0.000 A 
ATOM     25  C   UNL     1      10.871   2.003  23.890  0.00  0.00    +0.004 A 
ENDBRANCH  19  20
ENDBRANCH  15  19
ENDBRANCH   1  15
TORSDOF 9
ENDMDL
MODEL 3
REMARK VINA RESULT:      -5.5      1.194      3.640
REMARK  Name = 
REMARK  9 active torsions:
REMARK  status: ('A' for Active; 'I' for Inactive)
REMARK    1  A    between atoms: C_2  and  N_3
REMARK    2  A    between atoms: C_2  and  C_4
REMARK    3  A    between atoms: C_2  and  C_11
REMARK    4  A    between atoms: C_4  and  C_5
REMARK    5  A    between atoms: C_11  and  O_12
REMARK    6  A    between atoms: C_11  and  C_13
REMARK    7  A    between atoms: C_13  and  N_15
REMARK    8  A    between atoms: C_13  and  C_16
REMARK    9  A    between atoms: C_16  and  C_17
REMARK                            x       y       z     vdW  Elec       q    Type
REMARK                         _______ _______ _______ _____ _____    ______ ____
ROOT
ATOM      1  C   UNL     1       8.418  -4.557  26.532  0.00  0.00    +0.148 C 
ENDROOT
BRANCH   1   2
ATOM      2  O   UNL     1       7.964  -3.192  26.540  0.00  0.00    -0.389 OA
ATOM      3  H   UNL     1       8.761  -2.676  26.764  0.00  0.00    +0.210 HD
ENDBRANCH   1   2
BRANCH   1   4
ATOM      4  C   UNL     1       9.195  -4.832  25.203  0.00  0.00    +0.085 C 
BRANCH   4   5
ATOM      5  N   UNL     1      10.556  -5.345  25.459  0.00  0.00    -0.325 NA
ATOM      6  H   UNL     1      10.825  -5.064  26.413  0.00  0.00    +0.119 HD
ATOM      7  H   UNL     1      10.540  -6.362  25.468  0.00  0.00    +0.119 HD
ENDBRANCH   4   5
BRANCH   4   8
ATOM      8  C   UNL     1       8.402  -5.815  24.302  0.00  0.00    +0.056 C 
BRANCH   8   9
ATOM      9  C   UNL     1       7.592  -5.152  23.207  0.00  0.00    -0.046 A 
ATOM     10  C   UNL     1       6.942  -5.914  22.227  0.00  0.00    +0.004 A 
ATOM     11  C   UNL     1       6.182  -5.293  21.234  0.00  0.00    +0.000 A 
ATOM     12  C   UNL     1       6.068  -3.904  21.206  0.00  0.00    +0.000 A 
ATOM     13  C   UNL     1       6.716  -3.135  22.169  0.00  0.00    +0.000 A 
ATOM     14  C   UNL     1       7.474  -3.754  23.164  0.00  0.00    +0.004 A 
ENDBRANCH   8   9
ENDBRANCH   4   8
ENDBRANCH   1   4
BRANCH   1  15
ATOM     15  C   UNL     1       7.178  -5.467  26.796  0.00  0.00    +0.085 C 
BRANCH  15  16
ATOM     16  N   UNL     1       7.325  -6.191  28.091  0.00  0.00    -0.325 NA
ATOM     17  H   UNL     1       8.298  -6.111  28.403  0.00  0.00    +0.119 HD
ATOM     18  H   UNL     1       6.799  -5.677  28.801  0.00  0.00    +0.119 HD
ENDBRANCH  15  16
BRANCH  15  19
ATOM     19  C   UNL     1       5.853  -4.677  26.695  0.00  0.00    +0.056 C 
BRANCH  19  20
ATOM     20  C   UNL     1       4.942  -5.130  25.574  0.00  0.00    -0.046 A 
ATOM     21  C   UNL     1       4.233  -4.207  24.792  0.00  0.00    +0.004 A 
ATOM     22  C   UNL     1       3.426  -4.644  23.740  0.00  0.00    +0.000 A 
ATOM     23  C   UNL     1       3.307  -6.005  23.468  0.00  0.00    +0.000 A 
ATOM     24  C   UNL     1       3.995  -6.933  24.248  0.00  0.00    +0.000 A 
ATOM     25  C   UNL     1       4.808  -6.499  25.296  0.00  0.00    +0.004 A 
ENDBRANCH  19  20
ENDBRANCH  15  19
ENDBRANCH   1  15
TORSDOF 9
ENDMDL
MODEL 4
REMARK VINA RESULT:      -5.4      4.352      6.997
REMARK  Name = 
REMARK  9 active torsions:
REMARK  status: ('A' for Active; 'I' for Inactive)
REMARK    1  A    between atoms: C_2  and  N_3
REMARK    2  A    between atoms: C_2  and  C_4
REMARK    3  A    between atoms: C_2  and  C_11
REMARK    4  A    between atoms: C_4  and  C_5
REMARK    5  A    between atoms: C_11  and  O_12
REMARK    6  A    between atoms: C_11  and  C_13
REMARK    7  A    between atoms: C_13  and  N_15
REMARK    8  A    between atoms: C_13  and  C_16
REMARK    9  A    between atoms: C_16  and  C_17
REMARK                            x       y       z     vdW  Elec       q    Type
REMARK                         _______ _______ _______ _____ _____    ______ ____
ROOT
ATOM      1  C   UNL     1       8.059  -2.909  22.772  0.00  0.00    +0.148 C 
ENDROOT
BRANCH   1   2
ATOM      2  O   UNL     1       7.582  -4.245  23.013  0.00  0.00    -0.389 OA
ATOM      3  H   UNL     1       7.685  -4.694  22.153  0.00  0.00    +0.210 HD
ENDBRANCH   1   2
BRANCH   1   4
ATOM      4  C   UNL     1       9.250  -2.607  23.739  0.00  0.00    +0.085 C 
BRANCH   4   5
ATOM      5  N   UNL     1       9.746  -3.832  24.397  0.00  0.00    -0.325 NA
ATOM      6  H   UNL     1       9.329  -3.879  25.337  0.00  0.00    +0.119 HD
ATOM      7  H   UNL     1       9.395  -4.649  23.902  0.00  0.00    +0.119 HD
ENDBRANCH   4   5
BRANCH   4   8
ATOM      8  C   UNL     1      10.398  -1.889  22.983  0.00  0.00    +0.056 C 
BRANCH   8   9
ATOM      9  C   UNL     1      10.312  -0.377  22.995  0.00  0.00    -0.046 A 
ATOM     10  C   UNL     1      10.696   0.359  24.124  0.00  0.00    +0.004 A 
ATOM     11  C   UNL     1      10.632   1.754  24.118  0.00  0.00    +0.000 A 
ATOM     12  C   UNL     1      10.176   2.427  22.986  0.00  0.00    +0.000 A 
ATOM     13  C   UNL     1       9.782   1.707  21.860  0.00  0.00    +0.000 A 
ATOM     14  C   UNL     1       9.848   0.313  21.865  0.00  0.00    +0.004 A 
ENDBRANCH   8   9
ENDBRANCH   4   8
ENDBRANCH   1   4
BRANCH   1  15
ATOM     15  C   UNL     1       6.835  -1.946  22.878  0.00  0.00    +0.085 C 
BRANCH  15  16
ATOM     16  N   UNL     1       5.586  -2.638  22.451  0.00  0.00    -0.325 NA
ATOM     17  H   UNL     1       5.838  -3.524  22.002  0.00  0.00    +0.119 HD
ATOM     18  H   UNL     1       5.082  -2.927  23.293  0.00  0.00    +0.119 HD
ENDBRANCH  15  16
BRANCH  15  19
ATOM     19  C   UNL     1       6.723  -1.311  24.283  0.00  0.00    +0.056 C 
BRANCH  19  20
ATOM     20  C   UNL     1       6.803   0.200  24.292  0.00  0.00    -0.046 A 
ATOM     21  C   UNL     1       6.443   0.955  23.166  0.00  0.00    +0.004 A 
ATOM     22  C   UNL     1       6.491   2.350  23.206  0.00  0.00    +0.000 A 
ATOM     23  C   UNL     1       6.912   3.003  24.363  0.00  0.00    +0.000 A 
ATOM     24  C   UNL     1       7.286   2.263  25.483  0.00  0.00    +0.000 A 
ATOM     25  C   UNL     1       7.233   0.869  25.448  0.00  0.00    +0.004 A 
ENDBRANCH  19  20
ENDBRANCH  15  19
ENDBRANCH   1  15
TORSDOF 9
ENDMDL
MODEL 5
REMARK VINA RESULT:      -5.2      4.474      6.509
REMARK  Name = 
REMARK  9 active torsions:
REMARK  status: ('A' for Active; 'I' for Inactive)
REMARK    1  A    between atoms: C_2  and  N_3
REMARK    2  A    between atoms: C_2  and  C_4
REMARK    3  A    between atoms: C_2  and  C_11
REMARK    4  A    between atoms: C_4  and  C_5
REMARK    5  A    between atoms: C_11  and  O_12
REMARK    6  A    between atoms: C_11  and  C_13
REMARK    7  A    between atoms: C_13  and  N_15
REMARK    8  A    between atoms: C_13  and  C_16
REMARK    9  A    between atoms: C_16  and  C_17
REMARK                            x       y       z     vdW  Elec       q    Type
REMARK                         _______ _______ _______ _____ _____    ______ ____
ROOT
ATOM      1  C   UNL     1       7.728  -2.968  23.653  0.00  0.00    +0.148 C 
ENDROOT
BRANCH   1   2
ATOM      2  O   UNL     1       7.698  -4.039  22.692  0.00  0.00    -0.389 OA
ATOM      3  H   UNL     1       8.620  -4.357  22.660  0.00  0.00    +0.210 HD
ENDBRANCH   1   2
BRANCH   1   4
ATOM      4  C   UNL     1       6.824  -1.797  23.145  0.00  0.00    +0.085 C 
BRANCH   4   5
ATOM      5  N   UNL     1       5.619  -2.297  22.452  0.00  0.00    -0.325 NA
ATOM      6  H   UNL     1       4.827  -2.234  23.108  0.00  0.00    +0.119 HD
ATOM      7  H   UNL     1       5.386  -1.673  21.683  0.00  0.00    +0.119 HD
ENDBRANCH   4   5
BRANCH   4   8
ATOM      8  C   UNL     1       6.431  -0.864  24.320  0.00  0.00    +0.056 C 
BRANCH   8   9
ATOM      9  C   UNL     1       6.624   0.613  24.043  0.00  0.00    -0.046 A 
ATOM     10  C   UNL     1       6.974   1.500  25.070  0.00  0.00    +0.004 A 
ATOM     11  C   UNL     1       7.170   2.856  24.799  0.00  0.00    +0.000 A 
ATOM     12  C   UNL     1       7.011   3.340  23.502  0.00  0.00    +0.000 A 
ATOM     13  C   UNL     1       6.656   2.470  22.474  0.00  0.00    +0.000 A 
ATOM     14  C   UNL     1       6.462   1.114  22.742  0.00  0.00    +0.004 A 
ENDBRANCH   8   9
ENDBRANCH   4   8
ENDBRANCH   1   4
BRANCH   1  15
ATOM     15  C   UNL     1       9.225  -2.609  23.911  0.00  0.00    +0.085 C 
BRANCH  15  16
ATOM     16  N   UNL     1       9.981  -3.810  24.366  0.00  0.00    -0.325 NA
ATOM     17  H   UNL     1      10.830  -3.898  23.798  0.00  0.00    +0.119 HD
ATOM     18  H   UNL     1      10.336  -3.622  25.306  0.00  0.00    +0.119 HD
ENDBRANCH  15  16
BRANCH  15  19
ATOM     19  C   UNL     1       9.870  -1.919  22.686  0.00  0.00    +0.056 C 
BRANCH  19  20
ATOM     20  C   UNL     1      10.085  -0.430  22.853  0.00  0.00    -0.046 A 
ATOM     21  C   UNL     1       9.903   0.457  21.782  0.00  0.00    +0.004 A 
ATOM     22  C   UNL     1      10.071   1.831  21.965  0.00  0.00    +0.000 A 
ATOM     23  C   UNL     1      10.438   2.330  23.214  0.00  0.00    +0.000 A 
ATOM     24  C   UNL     1      10.636   1.457  24.281  0.00  0.00    +0.000 A 
ATOM     25  C   UNL     1      10.462   0.084  24.103  0.00  0.00    +0.004 A 
ENDBRANCH  19  20
ENDBRANCH  15  19
ENDBRANCH   1  15
TORSDOF 9
ENDMDL
MODEL 6
REMARK VINA RESULT:      -5.2      2.780      4.523
REMARK  Name = 
REMARK  9 active torsions:
REMARK  status: ('A' for Active; 'I' for Inactive)
REMARK    1  A    between atoms: C_2  and  N_3
REMARK    2  A    between atoms: C_2  and  C_4
REMARK    3  A    between atoms: C_2  and  C_11
REMARK    4  A    between atoms: C_4  and  C_5
REMARK    5  A    between atoms: C_11  and  O_12
REMARK    6  A    between atoms: C_11  and  C_13
REMARK    7  A    between atoms: C_13  and  N_15
REMARK    8  A    between atoms: C_13  and  C_16
REMARK    9  A    between atoms: C_16  and  C_17
REMARK                            x       y       z     vdW  Elec       q    Type
REMARK                         _______ _______ _______ _____ _____    ______ ____
ROOT
ATOM      1  C   UNL     1       8.198  -4.391  26.528  0.00  0.00    +0.148 C 
ENDROOT
BRANCH   1   2
ATOM      2  O   UNL     1       8.323  -5.658  27.197  0.00  0.00    -0.389 OA
ATOM      3  H   UNL     1       9.235  -5.942  27.003  0.00  0.00    +0.210 HD
ENDBRANCH   1   2
BRANCH   1   4
ATOM      4  C   UNL     1       6.700  -4.159  26.142  0.00  0.00    +0.085 C 
BRANCH   4   5
ATOM      5  N   UNL     1       5.864  -5.334  26.460  0.00  0.00    -0.325 NA
ATOM      6  H   UNL     1       5.014  -4.999  26.936  0.00  0.00    +0.119 HD
ATOM      7  H   UNL     1       5.542  -5.766  25.598  0.00  0.00    +0.119 HD
ENDBRANCH   4   5
BRANCH   4   8
ATOM      8  C   UNL     1       6.148  -2.889  26.841  0.00  0.00    +0.056 C 
BRANCH   8   9
ATOM      9  C   UNL     1       6.488  -1.588  26.145  0.00  0.00    -0.046 A 
ATOM     10  C   UNL     1       5.941  -1.274  24.893  0.00  0.00    +0.004 A 
ATOM     11  C   UNL     1       6.247  -0.063  24.269  0.00  0.00    +0.000 A 
ATOM     12  C   UNL     1       7.106   0.844  24.886  0.00  0.00    +0.000 A 
ATOM     13  C   UNL     1       7.663   0.540  26.127  0.00  0.00    +0.000 A 
ATOM     14  C   UNL     1       7.357  -0.669  26.752  0.00  0.00    +0.004 A 
ENDBRANCH   8   9
ENDBRANCH   4   8
ENDBRANCH   1   4
BRANCH   1  15
ATOM     15  C   UNL     1       9.215  -4.381  25.345  0.00  0.00    +0.085 C 
BRANCH  15  16
ATOM     16  N   UNL     1       9.907  -5.696  25.238  0.00  0.00    -0.325 NA
ATOM     17  H   UNL     1       9.330  -6.327  24.673  0.00  0.00    +0.119 HD
ATOM     18  H   UNL     1      10.749  -5.565  24.672  0.00  0.00    +0.119 HD
ENDBRANCH  15  16
BRANCH  15  19
ATOM     19  C   UNL     1       8.551  -3.941  24.019  0.00  0.00    +0.056 C 
BRANCH  19  20
ATOM     20  C   UNL     1       9.013  -2.592  23.509  0.00  0.00    -0.046 A 
ATOM     21  C   UNL     1       9.866  -1.779  24.270  0.00  0.00    +0.004 A 
ATOM     22  C   UNL     1      10.310  -0.555  23.766  0.00  0.00    +0.000 A 
ATOM     23  C   UNL     1       9.896  -0.125  22.507  0.00  0.00    +0.000 A 
ATOM     24  C   UNL     1       9.037  -0.918  21.748  0.00  0.00    +0.000 A 
ATOM     25  C   UNL     1       8.597  -2.145  22.247  0.00  0.00    +0.004 A 
ENDBRANCH  19  20
ENDBRANCH  15  19
ENDBRANCH   1  15
TORSDOF 9
ENDMDL
MODEL 7
REMARK VINA RESULT:      -5.2      2.074      3.905
REMARK  Name = 
REMARK  9 active torsions:
REMARK  status: ('A' for Active; 'I' for Inactive)
REMARK    1  A    between atoms: C_2  and  N_3
REMARK    2  A    between atoms: C_2  and  C_4
REMARK    3  A    between atoms: C_2  and  C_11
REMARK    4  A    between atoms: C_4  and  C_5
REMARK    5  A    between atoms: C_11  and  O_12
REMARK    6  A    between atoms: C_11  and  C_13
REMARK    7  A    between atoms: C_13  and  N_15
REMARK    8  A    between atoms: C_13  and  C_16
REMARK    9  A    between atoms: C_16  and  C_17
REMARK                            x       y       z     vdW  Elec       q    Type
REMARK                         _______ _______ _______ _____ _____    ______ ____
ROOT
ATOM      1  C   UNL     1       4.887  -6.390  27.468  0.00  0.00    +0.148 C 
ENDROOT
BRANCH   1   2
ATOM      2  O   UNL     1       5.275  -7.621  28.104  0.00  0.00    -0.389 OA
ATOM      3  H   UNL     1       4.943  -8.315  27.505  0.00  0.00    +0.210 HD
ENDBRANCH   1   2
BRANCH   1   4
ATOM      4  C   UNL     1       4.741  -6.631  25.930  0.00  0.00    +0.085 C 
BRANCH   4   5
ATOM      5  N   UNL     1       3.894  -7.804  25.636  0.00  0.00    -0.325 NA
ATOM      6  H   UNL     1       4.467  -8.650  25.768  0.00  0.00    +0.119 HD
ATOM      7  H   UNL     1       3.151  -7.869  26.328  0.00  0.00    +0.119 HD
ENDBRANCH   4   5
BRANCH   4   8
ATOM      8  C   UNL     1       4.182  -5.365  25.231  0.00  0.00    +0.056 C 
BRANCH   8   9
ATOM      9  C   UNL     1       5.044  -4.835  24.104  0.00  0.00    -0.046 A 
ATOM     10  C   UNL     1       5.945  -5.671  23.430  0.00  0.00    +0.004 A 
ATOM     11  C   UNL     1       6.720  -5.177  22.379  0.00  0.00    +0.000 A 
ATOM     12  C   UNL     1       6.608  -3.841  21.995  0.00  0.00    +0.000 A 
ATOM     13  C   UNL     1       5.722  -2.999  22.662  0.00  0.00    +0.000 A 
ATOM     14  C   UNL     1       4.945  -3.491  23.711  0.00  0.00    +0.004 A 
ENDBRANCH   8   9
ENDBRANCH   4   8
ENDBRANCH   1   4
BRANCH   1  15
ATOM     15  C   UNL     1       5.915  -5.296  27.892  0.00  0.00    +0.085 C 
BRANCH  15  16
ATOM     16  N   UNL     1       5.924  -5.130  29.372  0.00  0.00    -0.325 NA
ATOM     17  H   UNL     1       5.649  -6.017  29.804  0.00  0.00    +0.119 HD
ATOM     18  H   UNL     1       6.894  -5.005  29.671  0.00  0.00    +0.119 HD
ENDBRANCH  15  16
BRANCH  15  19
ATOM     19  C   UNL     1       7.321  -5.572  27.308  0.00  0.00    +0.056 C 
BRANCH  19  20
ATOM     20  C   UNL     1       7.855  -4.467  26.423  0.00  0.00    -0.046 A 
ATOM     21  C   UNL     1       8.854  -4.715  25.470  0.00  0.00    +0.004 A 
ATOM     22  C   UNL     1       9.307  -3.690  24.638  0.00  0.00    +0.000 A 
ATOM     23  C   UNL     1       8.780  -2.405  24.759  0.00  0.00    +0.000 A 
ATOM     24  C   UNL     1       7.797  -2.144  25.712  0.00  0.00    +0.000 A 
ATOM     25  C   UNL     1       7.338  -3.168  26.541  0.00  0.00    +0.004 A 
ENDBRANCH  19  20
ENDBRANCH  15  19
ENDBRANCH   1  15
TORSDOF 9
ENDMDL
MODEL 8
REMARK VINA RESULT:      -5.2      4.409      6.457
REMARK  Name = 
REMARK  9 active torsions:
REMARK  status: ('A' for Active; 'I' for Inactive)
REMARK    1  A    between atoms: C_2  and  N_3
REMARK    2  A    between atoms: C_2  and  C_4
REMARK    3  A    between atoms: C_2  and  C_11
REMARK    4  A    between atoms: C_4  and  C_5
REMARK    5  A    between atoms: C_11  and  O_12
REMARK    6  A    between atoms: C_11  and  C_13
REMARK    7  A    between atoms: C_13  and  N_15
REMARK    8  A    between atoms: C_13  and  C_16
REMARK    9  A    between atoms: C_16  and  C_17
REMARK                            x       y       z     vdW  Elec       q    Type
REMARK                         _______ _______ _______ _____ _____    ______ ____
ROOT
ATOM      1  C   UNL     1       7.719  -2.876  23.413  0.00  0.00    +0.148 C 
ENDROOT
BRANCH   1   2
ATOM      2  O   UNL     1       7.764  -2.861  21.975  0.00  0.00    -0.389 OA
ATOM      3  H   UNL     1       7.111  -3.534  21.708  0.00  0.00    +0.210 HD
ENDBRANCH   1   2
BRANCH   1   4
ATOM      4  C   UNL     1       6.623  -1.875  23.903  0.00  0.00    +0.085 C 
BRANCH   4   5
ATOM      5  N   UNL     1       5.359  -2.565  24.234  0.00  0.00    -0.325 NA
ATOM      6  H   UNL     1       4.640  -2.246  23.569  0.00  0.00    +0.119 HD
ATOM      7  H   UNL     1       5.462  -3.563  24.065  0.00  0.00    +0.119 HD
ENDBRANCH   4   5
BRANCH   4   8
ATOM      8  C   UNL     1       7.134  -1.059  25.119  0.00  0.00    +0.056 C 
BRANCH   8   9
ATOM      9  C   UNL     1       7.112   0.442  24.924  0.00  0.00    -0.046 A 
ATOM     10  C   UNL     1       6.619   1.010  23.741  0.00  0.00    +0.004 A 
ATOM     11  C   UNL     1       6.585   2.396  23.580  0.00  0.00    +0.000 A 
ATOM     12  C   UNL     1       7.050   3.230  24.596  0.00  0.00    +0.000 A 
ATOM     13  C   UNL     1       7.550   2.678  25.773  0.00  0.00    +0.000 A 
ATOM     14  C   UNL     1       7.582   1.293  25.937  0.00  0.00    +0.004 A 
ENDBRANCH   8   9
ENDBRANCH   4   8
ENDBRANCH   1   4
BRANCH   1  15
ATOM     15  C   UNL     1       9.166  -2.608  23.932  0.00  0.00    +0.085 C 
BRANCH  15  16
ATOM     16  N   UNL     1       9.761  -3.854  24.493  0.00  0.00    -0.325 NA
ATOM     17  H   UNL     1       9.242  -4.114  25.338  0.00  0.00    +0.119 HD
ATOM     18  H   UNL     1       9.565  -4.618  23.843  0.00  0.00    +0.119 HD
ENDBRANCH  15  16
BRANCH  15  19
ATOM     19  C   UNL     1      10.054  -1.952  22.848  0.00  0.00    +0.056 C 
BRANCH  19  20
ATOM     20  C   UNL     1      10.136  -0.444  22.941  0.00  0.00    -0.046 A 
ATOM     21  C   UNL     1      10.627   0.190  24.092  0.00  0.00    +0.004 A 
ATOM     22  C   UNL     1      10.728   1.581  24.144  0.00  0.00    +0.000 A 
ATOM     23  C   UNL     1      10.327   2.354  23.055  0.00  0.00    +0.000 A 
ATOM     24  C   UNL     1       9.825   1.735  21.911  0.00  0.00    +0.000 A 
ATOM     25  C   UNL     1       9.728   0.344  21.854  0.00  0.00    +0.004 A 
ENDBRANCH  19  20
ENDBRANCH  15  19
ENDBRANCH   1  15
TORSDOF 9
ENDMDL
MODEL 9
REMARK VINA RESULT:      -5.0      3.998      6.218
REMARK  Name = 
REMARK  9 active torsions:
REMARK  status: ('A' for Active; 'I' for Inactive)
REMARK    1  A    between atoms: C_2  and  N_3
REMARK    2  A    between atoms: C_2  and  C_4
REMARK    3  A    between atoms: C_2  and  C_11
REMARK    4  A    between atoms: C_4  and  C_5
REMARK    5  A    between atoms: C_11  and  O_12
REMARK    6  A    between atoms: C_11  and  C_13
REMARK    7  A    between atoms: C_13  and  N_15
REMARK    8  A    between atoms: C_13  and  C_16
REMARK    9  A    between atoms: C_16  and  C_17
REMARK                            x       y       z     vdW  Elec       q    Type
REMARK                         _______ _______ _______ _____ _____    ______ ____
ROOT
ATOM      1  C   UNL     1       9.807   1.307  23.862  0.00  0.00    +0.148 C 
ENDROOT
BRANCH   1   2
ATOM      2  O   UNL     1      10.491   2.571  23.781  0.00  0.00    -0.389 OA
ATOM      3  H   UNL     1      10.823   2.721  24.686  0.00  0.00    +0.210 HD
ENDBRANCH   1   2
BRANCH   1   4
ATOM      4  C   UNL     1       9.369   0.867  22.426  0.00  0.00    +0.085 C 
BRANCH   4   5
ATOM      5  N   UNL     1       9.650   1.914  21.423  0.00  0.00    -0.325 NA
ATOM      6  H   UNL     1      10.592   1.745  21.043  0.00  0.00    +0.119 HD
ATOM      7  H   UNL     1       9.015   1.809  20.635  0.00  0.00    +0.119 HD
ENDBRANCH   4   5
BRANCH   4   8
ATOM      8  C   UNL     1      10.057  -0.466  22.032  0.00  0.00    +0.056 C 
BRANCH   8   9
ATOM      9  C   UNL     1       9.436  -1.702  22.648  0.00  0.00    -0.046 A 
ATOM     10  C   UNL     1      10.022  -2.327  23.758  0.00  0.00    +0.004 A 
ATOM     11  C   UNL     1       9.429  -3.454  24.331  0.00  0.00    +0.000 A 
ATOM     12  C   UNL     1       8.250  -3.972  23.798  0.00  0.00    +0.000 A 
ATOM     13  C   UNL     1       7.663  -3.365  22.690  0.00  0.00    +0.000 A 
ATOM     14  C   UNL     1       8.252  -2.237  22.118  0.00  0.00    +0.004 A 
ENDBRANCH   8   9
ENDBRANCH   4   8
ENDBRANCH   1   4
BRANCH   1  15
ATOM     15  C   UNL     1       8.658   1.460  24.907  0.00  0.00    +0.085 C 
BRANCH  15  16
ATOM     16  N   UNL     1       8.550   2.874  25.365  0.00  0.00    -0.325 NA
ATOM     17  H   UNL     1       8.254   3.453  24.573  0.00  0.00    +0.119 HD
ATOM     18  H   UNL     1       7.766   2.935  26.018  0.00  0.00    +0.119 HD
ENDBRANCH  15  16
BRANCH  15  19
ATOM     19  C   UNL     1       7.320   0.894  24.377  0.00  0.00    +0.056 C 
BRANCH  19  20
ATOM     20  C   UNL     1       6.863  -0.374  25.066  0.00  0.00    -0.046 A 
ATOM     21  C   UNL     1       7.566  -0.903  26.157  0.00  0.00    +0.004 A 
ATOM     22  C   UNL     1       7.109  -2.054  26.801  0.00  0.00    +0.000 A 
ATOM     23  C   UNL     1       5.954  -2.695  26.354  0.00  0.00    +0.000 A 
ATOM     24  C   UNL     1       5.255  -2.185  25.262  0.00  0.00    +0.000 A 
ATOM     25  C   UNL     1       5.707  -1.031  24.620  0.00  0.00    +0.004 A 
ENDBRANCH  19  20
ENDBRANCH  15  19
ENDBRANCH   1  15
TORSDOF 9
ENDMDL
