MODEL 1
REMARK VINA RESULT:      -8.8      0.000      0.000
REMARK  Name = 
REMARK  2 active torsions:
REMARK  status: ('A' for Active; 'I' for Inactive)
REMARK    1  A    between atoms: C_7  and  C_8
REMARK    2  A    between atoms: C_8  and  N_9
REMARK                            x       y       z     vdW  Elec       q    Type
REMARK                         _______ _______ _______ _____ _____    ______ ____
ROOT
ATOM      1  N   UNL     1      10.607   3.137  22.997  0.00  0.00    -0.327 N 
ATOM      2  H   UNL     1      10.499   3.414  22.032  0.00  0.00    +0.145 HD
ATOM      3  H   UNL     1      10.235   3.753  23.706  0.00  0.00    +0.145 HD
ATOM      4  C   UNL     1      10.159   1.848  23.191  0.00  0.00    +0.216 A 
ATOM      5  N   UNL     1      10.151   1.035  22.140  0.00  0.00    -0.198 NA
ATOM      6  C   UNL     1       9.760  -0.229  22.368  0.00  0.00    +0.149 A 
ATOM      7  N   UNL     1       9.688  -1.048  21.228  0.00  0.00    -0.341 N 
ATOM      8  H   UNL     1      10.139  -0.580  20.449  0.00  0.00    +0.144 HD
ATOM      9  H   UNL     1      10.027  -1.985  21.421  0.00  0.00    +0.144 HD
ATOM     10  C   UNL     1       9.370  -0.720  23.613  0.00  0.00    +0.148 A 
ATOM     11  N   UNL     1       9.053  -2.034  23.851  0.00  0.00    -0.242 NA
ATOM     12  C   UNL     1       8.684  -2.351  25.117  0.00  0.00    +0.078 A 
ATOM     13  C   UNL     1       8.637  -1.368  26.090  0.00  0.00    +0.138 A 
ATOM     14  N   UNL     1       8.988  -0.078  25.852  0.00  0.00    -0.232 NA
ATOM     15  C   UNL     1       9.373   0.256  24.615  0.00  0.00    +0.185 A 
ATOM     16  N   UNL     1       9.758   1.513  24.412  0.00  0.00    -0.193 NA
ENDROOT
BRANCH  12  17
ATOM     17  C   UNL     1       8.429  -3.806  25.472  0.00  0.00    +0.168 C 
BRANCH  17  18
ATOM     18  N   UNL     1       7.034  -4.247  25.252  0.00  0.00    -0.293 N 
ATOM     19  C   UNL     1       6.346  -4.766  26.391  0.00  0.00    +0.042 A 
ATOM     20  C   UNL     1       4.930  -4.754  26.450  0.00  0.00    -0.004 A 
ATOM     21  C   UNL     1       4.259  -5.368  27.524  0.00  0.00    +0.010 A 
ATOM     22  C   UNL     1       4.968  -5.994  28.546  0.00  0.00    +0.001 A 
ATOM     23  C   UNL     1       6.356  -5.983  28.521  0.00  0.00    +0.002 A 
ATOM     24  C   UNL     1       4.092  -4.047  25.469  0.00  0.00    +0.010 C 
ATOM     25  C   UNL     1       4.307  -3.991  24.148  0.00  0.00    +0.010 C 
ATOM     26  C   UNL     1       5.408  -4.658  23.438  0.00  0.00    -0.004 A 
ATOM     27  C   UNL     1       5.116  -5.161  22.156  0.00  0.00    +0.010 A 
ATOM     28  C   UNL     1       6.092  -5.807  21.401  0.00  0.00    +0.001 A 
ATOM     29  C   UNL     1       7.370  -5.957  21.919  0.00  0.00    +0.002 A 
ATOM     30  C   UNL     1       7.677  -5.442  23.181  0.00  0.00    +0.024 A 
ATOM     31  C   UNL     1       7.034  -5.375  27.460  0.00  0.00    +0.024 A 
ATOM     32  C   UNL     1       6.718  -4.764  23.960  0.00  0.00    +0.042 A 
ENDBRANCH  17  18
ENDBRANCH  12  17
TORSDOF 2
ENDMDL
MODEL 2
REMARK VINA RESULT:      -8.4      0.791      1.730
REMARK  Name = 
REMARK  2 active torsions:
REMARK  status: ('A' for Active; 'I' for Inactive)
REMARK    1  A    between atoms: C_7  and  C_8
REMARK    2  A    between atoms: C_8  and  N_9
REMARK                            x       y       z     vdW  Elec       q    Type
REMARK                         _______ _______ _______ _____ _____    ______ ____
ROOT
ATOM      1  N   UNL     1       9.797   3.028  22.610  0.00  0.00    -0.327 N 
ATOM      2  H   UNL     1       9.781   3.849  23.198  0.00  0.00    +0.145 HD
ATOM      3  H   UNL     1      10.600   2.896  22.012  0.00  0.00    +0.145 HD
ATOM      4  C   UNL     1       9.549   1.891  23.349  0.00  0.00    +0.216 A 
ATOM      5  N   UNL     1       8.869   2.029  24.482  0.00  0.00    -0.198 NA
ATOM      6  C   UNL     1       8.597   0.900  25.155  0.00  0.00    +0.149 A 
ATOM      7  N   UNL     1       7.943   1.080  26.386  0.00  0.00    -0.341 N 
ATOM      8  H   UNL     1       7.615   2.037  26.456  0.00  0.00    +0.144 HD
ATOM      9  H   UNL     1       7.233   0.370  26.537  0.00  0.00    +0.144 HD
ATOM     10  C   UNL     1       8.982  -0.374  24.742  0.00  0.00    +0.148 A 
ATOM     11  N   UNL     1       8.626  -1.529  25.393  0.00  0.00    -0.242 NA
ATOM     12  C   UNL     1       9.088  -2.691  24.868  0.00  0.00    +0.078 A 
ATOM     13  C   UNL     1       9.881  -2.670  23.735  0.00  0.00    +0.138 A 
ATOM     14  N   UNL     1      10.198  -1.525  23.077  0.00  0.00    -0.232 NA
ATOM     15  C   UNL     1       9.738  -0.367  23.565  0.00  0.00    +0.185 A 
ATOM     16  N   UNL     1      10.018   0.739  22.882  0.00  0.00    -0.193 NA
ENDROOT
BRANCH  12  17
ATOM     17  C   UNL     1       8.639  -4.009  25.476  0.00  0.00    +0.168 C 
BRANCH  17  18
ATOM     18  N   UNL     1       7.205  -4.311  25.272  0.00  0.00    -0.293 N 
ATOM     19  C   UNL     1       6.484  -4.771  26.416  0.00  0.00    +0.042 A 
ATOM     20  C   UNL     1       5.077  -4.623  26.494  0.00  0.00    -0.004 A 
ATOM     21  C   UNL     1       4.363  -5.178  27.573  0.00  0.00    +0.010 A 
ATOM     22  C   UNL     1       5.021  -5.878  28.580  0.00  0.00    +0.001 A 
ATOM     23  C   UNL     1       6.403  -6.002  28.537  0.00  0.00    +0.002 A 
ATOM     24  C   UNL     1       4.299  -3.829  25.530  0.00  0.00    +0.010 C 
ATOM     25  C   UNL     1       4.501  -3.784  24.206  0.00  0.00    +0.010 C 
ATOM     26  C   UNL     1       5.523  -4.548  23.477  0.00  0.00    -0.004 A 
ATOM     27  C   UNL     1       5.168  -5.010  22.195  0.00  0.00    +0.010 A 
ATOM     28  C   UNL     1       6.067  -5.740  21.423  0.00  0.00    +0.001 A 
ATOM     29  C   UNL     1       7.331  -6.017  21.922  0.00  0.00    +0.002 A 
ATOM     30  C   UNL     1       7.703  -5.545  23.183  0.00  0.00    +0.024 A 
ATOM     31  C   UNL     1       7.123  -5.453  27.471  0.00  0.00    +0.024 A 
ATOM     32  C   UNL     1       6.823  -4.784  23.981  0.00  0.00    +0.042 A 
ENDBRANCH  17  18
ENDBRANCH  12  17
TORSDOF 2
ENDMDL
MODEL 3
REMARK VINA RESULT:      -8.4      1.419      4.074
REMARK  Name = 
REMARK  2 active torsions:
REMARK  status: ('A' for Active; 'I' for Inactive)
REMARK    1  A    between atoms: C_7  and  C_8
REMARK    2  A    between atoms: C_8  and  N_9
REMARK                            x       y       z     vdW  Elec       q    Type
REMARK                         _______ _______ _______ _____ _____    ______ ____
ROOT
ATOM      1  N   UNL     1      10.913   3.238  22.982  0.00  0.00    -0.327 N 
ATOM      2  H   UNL     1      11.354   3.336  22.079  0.00  0.00    +0.145 HD
ATOM      3  H   UNL     1      10.514   4.065  23.402  0.00  0.00    +0.145 HD
ATOM      4  C   UNL     1       9.995   2.209  22.971  0.00  0.00    +0.216 A 
ATOM      5  N   UNL     1      10.164   1.244  22.073  0.00  0.00    -0.198 NA
ATOM      6  C   UNL     1       9.288   0.229  22.117  0.00  0.00    +0.149 A 
ATOM      7  N   UNL     1       9.442  -0.740  21.111  0.00  0.00    -0.341 N 
ATOM      8  H   UNL     1      10.327  -0.595  20.637  0.00  0.00    +0.144 HD
ATOM      9  H   UNL     1       9.296  -1.678  21.471  0.00  0.00    +0.144 HD
ATOM     10  C   UNL     1       8.237   0.136  23.029  0.00  0.00    +0.148 A 
ATOM     11  N   UNL     1       7.398  -0.947  23.120  0.00  0.00    -0.242 NA
ATOM     12  C   UNL     1       6.418  -0.880  24.055  0.00  0.00    +0.078 A 
ATOM     13  C   UNL     1       6.300   0.244  24.853  0.00  0.00    +0.138 A 
ATOM     14  N   UNL     1       7.157   1.295  24.779  0.00  0.00    -0.232 NA
ATOM     15  C   UNL     1       8.144   1.244  23.878  0.00  0.00    +0.185 A 
ATOM     16  N   UNL     1       9.002   2.260  23.851  0.00  0.00    -0.193 NA
ENDROOT
BRANCH  12  17
ATOM     17  C   UNL     1       5.527  -2.090  24.283  0.00  0.00    +0.168 C 
BRANCH  17  18
ATOM     18  N   UNL     1       6.266  -3.343  24.548  0.00  0.00    -0.293 N 
ATOM     19  C   UNL     1       6.511  -4.186  23.422  0.00  0.00    +0.042 A 
ATOM     20  C   UNL     1       7.581  -5.114  23.429  0.00  0.00    -0.004 A 
ATOM     21  C   UNL     1       7.746  -6.017  22.362  0.00  0.00    +0.010 A 
ATOM     22  C   UNL     1       6.866  -6.017  21.283  0.00  0.00    +0.001 A 
ATOM     23  C   UNL     1       5.833  -5.090  21.244  0.00  0.00    +0.002 A 
ATOM     24  C   UNL     1       8.614  -5.139  24.477  0.00  0.00    +0.010 C 
ATOM     25  C   UNL     1       8.407  -4.957  25.788  0.00  0.00    +0.010 C 
ATOM     26  C   UNL     1       7.098  -4.730  26.417  0.00  0.00    -0.004 A 
ATOM     27  C   UNL     1       6.904  -5.302  27.689  0.00  0.00    +0.010 A 
ATOM     28  C   UNL     1       5.699  -5.141  28.369  0.00  0.00    +0.001 A 
ATOM     29  C   UNL     1       4.677  -4.407  27.787  0.00  0.00    +0.002 A 
ATOM     30  C   UNL     1       4.866  -3.816  26.535  0.00  0.00    +0.024 A 
ATOM     31  C   UNL     1       5.660  -4.187  22.297  0.00  0.00    +0.024 A 
ATOM     32  C   UNL     1       6.081  -3.941  25.831  0.00  0.00    +0.042 A 
ENDBRANCH  17  18
ENDBRANCH  12  17
TORSDOF 2
ENDMDL
MODEL 4
REMARK VINA RESULT:      -7.7      1.957      3.757
REMARK  Name = 
REMARK  2 active torsions:
REMARK  status: ('A' for Active; 'I' for Inactive)
REMARK    1  A    between atoms: C_7  and  C_8
REMARK    2  A    between atoms: C_8  and  N_9
REMARK                            x       y       z     vdW  Elec       q    Type
REMARK                         _______ _______ _______ _____ _____    ______ ____
ROOT
ATOM      1  N   UNL     1      10.946   3.619  22.816  0.00  0.00    -0.327 N 
ATOM      2  H   UNL     1      11.330   4.194  23.552  0.00  0.00    +0.145 HD
ATOM      3  H   UNL     1      11.595   3.154  22.197  0.00  0.00    +0.145 HD
ATOM      4  C   UNL     1      10.032   2.720  23.323  0.00  0.00    +0.216 A 
ATOM      5  N   UNL     1       9.432   3.033  24.467  0.00  0.00    -0.198 NA
ATOM      6  C   UNL     1       8.509   2.166  24.912  0.00  0.00    +0.149 A 
ATOM      7  N   UNL     1       7.944   2.481  26.160  0.00  0.00    -0.341 N 
ATOM      8  H   UNL     1       8.200   3.428  26.416  0.00  0.00    +0.144 HD
ATOM      9  H   UNL     1       6.948   2.287  26.177  0.00  0.00    +0.144 HD
ATOM     10  C   UNL     1       8.157   0.987  24.257  0.00  0.00    +0.148 A 
ATOM     11  N   UNL     1       7.153   0.150  24.677  0.00  0.00    -0.242 NA
ATOM     12  C   UNL     1       6.939  -0.964  23.934  0.00  0.00    +0.078 A 
ATOM     13  C   UNL     1       7.720  -1.212  22.819  0.00  0.00    +0.138 A 
ATOM     14  N   UNL     1       8.688  -0.360  22.392  0.00  0.00    -0.232 NA
ATOM     15  C   UNL     1       8.904   0.756  23.098  0.00  0.00    +0.185 A 
ATOM     16  N   UNL     1       9.823   1.602  22.639  0.00  0.00    -0.193 NA
ENDROOT
BRANCH  12  17
ATOM     17  C   UNL     1       5.770  -1.872  24.279  0.00  0.00    +0.168 C 
BRANCH  17  18
ATOM     18  N   UNL     1       6.027  -3.308  24.031  0.00  0.00    -0.293 N 
ATOM     19  C   UNL     1       4.880  -4.127  23.797  0.00  0.00    +0.042 A 
ATOM     20  C   UNL     1       4.992  -5.346  23.085  0.00  0.00    -0.004 A 
ATOM     21  C   UNL     1       3.879  -6.199  22.957  0.00  0.00    +0.010 A 
ATOM     22  C   UNL     1       2.653  -5.863  23.522  0.00  0.00    +0.001 A 
ATOM     23  C   UNL     1       2.516  -4.655  24.193  0.00  0.00    +0.002 A 
ATOM     24  C   UNL     1       6.217  -5.753  22.379  0.00  0.00    +0.010 C 
ATOM     25  C   UNL     1       7.471  -5.582  22.819  0.00  0.00    +0.010 C 
ATOM     26  C   UNL     1       7.844  -4.981  24.107  0.00  0.00    -0.004 A 
ATOM     27  C   UNL     1       8.971  -5.525  24.752  0.00  0.00    +0.010 A 
ATOM     28  C   UNL     1       9.407  -5.025  25.976  0.00  0.00    +0.001 A 
ATOM     29  C   UNL     1       8.722  -3.974  26.569  0.00  0.00    +0.002 A 
ATOM     30  C   UNL     1       7.616  -3.411  25.928  0.00  0.00    +0.024 A 
ATOM     31  C   UNL     1       3.614  -3.798  24.325  0.00  0.00    +0.024 A 
ATOM     32  C   UNL     1       7.163  -3.881  24.678  0.00  0.00    +0.042 A 
ENDBRANCH  17  18
ENDBRANCH  12  17
TORSDOF 2
ENDMDL
MODEL 5
REMARK VINA RESULT:      -7.6      2.693      7.179
REMARK  Name = 
REMARK  2 active torsions:
REMARK  status: ('A' for Active; 'I' for Inactive)
REMARK    1  A    between atoms: C_7  and  C_8
REMARK    2  A    between atoms: C_8  and  N_9
REMARK                            x       y       z     vdW  Elec       q    Type
REMARK                         _______ _______ _______ _____ _____    ______ ____
ROOT
ATOM      1  N   UNL     1       2.462  -6.669  30.175  0.00  0.00    -0.327 N 
ATOM      2  H   UNL     1       2.637  -7.304  30.941  0.00  0.00    +0.145 HD
ATOM      3  H   UNL     1       1.859  -5.878  30.351  0.00  0.00    +0.145 HD
ATOM      4  C   UNL     1       3.644  -6.260  29.596  0.00  0.00    +0.216 A 
ATOM      5  N   UNL     1       4.700  -7.056  29.728  0.00  0.00    -0.198 NA
ATOM      6  C   UNL     1       5.825  -6.660  29.111  0.00  0.00    +0.149 A 
ATOM      7  N   UNL     1       6.947  -7.478  29.328  0.00  0.00    -0.341 N 
ATOM      8  H   UNL     1       6.652  -8.345  29.764  0.00  0.00    +0.144 HD
ATOM      9  H   UNL     1       7.496  -7.589  28.481  0.00  0.00    +0.144 HD
ATOM     10  C   UNL     1       5.941  -5.490  28.362  0.00  0.00    +0.148 A 
ATOM     11  N   UNL     1       7.070  -5.136  27.666  0.00  0.00    -0.242 NA
ATOM     12  C   UNL     1       7.027  -3.961  26.992  0.00  0.00    +0.078 A 
ATOM     13  C   UNL     1       5.885  -3.182  27.034  0.00  0.00    +0.138 A 
ATOM     14  N   UNL     1       4.760  -3.557  27.697  0.00  0.00    -0.232 NA
ATOM     15  C   UNL     1       4.772  -4.722  28.354  0.00  0.00    +0.185 A 
ATOM     16  N   UNL     1       3.647  -5.097  28.957  0.00  0.00    -0.193 NA
ENDROOT
BRANCH  12  17
ATOM     17  C   UNL     1       8.202  -3.567  26.112  0.00  0.00    +0.168 C 
BRANCH  17  18
ATOM     18  N   UNL     1       7.813  -2.985  24.809  0.00  0.00    -0.293 N 
ATOM     19  C   UNL     1       7.469  -3.912  23.778  0.00  0.00    +0.042 A 
ATOM     20  C   UNL     1       6.638  -3.521  22.699  0.00  0.00    -0.004 A 
ATOM     21  C   UNL     1       6.397  -4.406  21.631  0.00  0.00    +0.010 A 
ATOM     22  C   UNL     1       6.965  -5.676  21.614  0.00  0.00    +0.001 A 
ATOM     23  C   UNL     1       7.753  -6.088  22.680  0.00  0.00    +0.002 A 
ATOM     24  C   UNL     1       5.922  -2.236  22.663  0.00  0.00    +0.010 C 
ATOM     25  C   UNL     1       6.406  -1.056  23.071  0.00  0.00    +0.010 C 
ATOM     26  C   UNL     1       7.758  -0.830  23.601  0.00  0.00    -0.004 A 
ATOM     27  C   UNL     1       8.370   0.393  23.267  0.00  0.00    +0.010 A 
ATOM     28  C   UNL     1       9.648   0.703  23.722  0.00  0.00    +0.001 A 
ATOM     29  C   UNL     1      10.330  -0.205  24.518  0.00  0.00    +0.002 A 
ATOM     30  C   UNL     1       9.725  -1.413  24.875  0.00  0.00    +0.024 A 
ATOM     31  C   UNL     1       7.999  -5.218  23.748  0.00  0.00    +0.024 A 
ATOM     32  C   UNL     1       8.423  -1.747  24.448  0.00  0.00    +0.042 A 
ENDBRANCH  17  18
ENDBRANCH  12  17
TORSDOF 2
ENDMDL
MODEL 6
REMARK VINA RESULT:      -7.6      2.448      7.034
REMARK  Name = 
REMARK  2 active torsions:
REMARK  status: ('A' for Active; 'I' for Inactive)
REMARK    1  A    between atoms: C_7  and  C_8
REMARK    2  A    between atoms: C_8  and  N_9
REMARK                            x       y       z     vdW  Elec       q    Type
REMARK                         _______ _______ _______ _____ _____    ______ ____
ROOT
ATOM      1  N   UNL     1       4.225  -7.533  29.229  0.00  0.00    -0.327 N 
ATOM      2  H   UNL     1       4.897  -8.227  29.522  0.00  0.00    +0.145 HD
ATOM      3  H   UNL     1       3.529  -7.242  29.900  0.00  0.00    +0.145 HD
ATOM      4  C   UNL     1       4.858  -6.437  28.681  0.00  0.00    +0.216 A 
ATOM      5  N   UNL     1       6.070  -6.622  28.166  0.00  0.00    -0.198 NA
ATOM      6  C   UNL     1       6.642  -5.551  27.593  0.00  0.00    +0.149 A 
ATOM      7  N   UNL     1       7.952  -5.752  27.124  0.00  0.00    -0.341 N 
ATOM      8  H   UNL     1       8.162  -6.744  27.129  0.00  0.00    +0.144 HD
ATOM      9  H   UNL     1       8.104  -5.285  26.235  0.00  0.00    +0.144 HD
ATOM     10  C   UNL     1       6.051  -4.291  27.514  0.00  0.00    +0.148 A 
ATOM     11  N   UNL     1       6.609  -3.225  26.853  0.00  0.00    -0.242 NA
ATOM     12  C   UNL     1       5.912  -2.062  26.875  0.00  0.00    +0.078 A 
ATOM     13  C   UNL     1       4.705  -1.993  27.547  0.00  0.00    +0.138 A 
ATOM     14  N   UNL     1       4.144  -3.063  28.168  0.00  0.00    -0.232 NA
ATOM     15  C   UNL     1       4.804  -4.226  28.144  0.00  0.00    +0.185 A 
ATOM     16  N   UNL     1       4.219  -5.275  28.717  0.00  0.00    -0.193 NA
ENDROOT
BRANCH  12  17
ATOM     17  C   UNL     1       6.419  -0.878  26.068  0.00  0.00    +0.168 C 
BRANCH  17  18
ATOM     18  N   UNL     1       7.464  -1.224  25.079  0.00  0.00    -0.293 N 
ATOM     19  C   UNL     1       8.440  -0.217  24.809  0.00  0.00    +0.042 A 
ATOM     20  C   UNL     1       9.715  -0.563  24.298  0.00  0.00    -0.004 A 
ATOM     21  C   UNL     1      10.629   0.443  23.929  0.00  0.00    +0.010 A 
ATOM     22  C   UNL     1      10.301   1.789  24.060  0.00  0.00    +0.001 A 
ATOM     23  C   UNL     1       9.069   2.145  24.592  0.00  0.00    +0.002 A 
ATOM     24  C   UNL     1      10.192  -1.951  24.201  0.00  0.00    +0.010 C 
ATOM     25  C   UNL     1       9.458  -3.009  23.830  0.00  0.00    +0.010 C 
ATOM     26  C   UNL     1       8.047  -2.963  23.422  0.00  0.00    -0.004 A 
ATOM     27  C   UNL     1       7.657  -3.850  22.401  0.00  0.00    +0.010 A 
ATOM     28  C   UNL     1       6.342  -3.885  21.946  0.00  0.00    +0.001 A 
ATOM     29  C   UNL     1       5.401  -3.034  22.506  0.00  0.00    +0.002 A 
ATOM     30  C   UNL     1       5.771  -2.164  23.535  0.00  0.00    +0.024 A 
ATOM     31  C   UNL     1       8.153   1.155  24.964  0.00  0.00    +0.024 A 
ATOM     32  C   UNL     1       7.089  -2.120  24.033  0.00  0.00    +0.042 A 
ENDBRANCH  17  18
ENDBRANCH  12  17
TORSDOF 2
ENDMDL
MODEL 7
REMARK VINA RESULT:      -7.5      1.398      1.672
REMARK  Name = 
REMARK  2 active torsions:
REMARK  status: ('A' for Active; 'I' for Inactive)
REMARK    1  A    between atoms: C_7  and  C_8
REMARK    2  A    between atoms: C_8  and  N_9
REMARK                            x       y       z     vdW  Elec       q    Type
REMARK                         _______ _______ _______ _____ _____    ______ ____
ROOT
ATOM      1  N   UNL     1       8.539   4.210  22.989  0.00  0.00    -0.327 N 
ATOM      2  H   UNL     1       9.431   4.560  22.671  0.00  0.00    +0.145 HD
ATOM      3  H   UNL     1       7.741   4.340  22.384  0.00  0.00    +0.145 HD
ATOM      4  C   UNL     1       8.640   2.893  23.382  0.00  0.00    +0.216 A 
ATOM      5  N   UNL     1       9.835   2.456  23.766  0.00  0.00    -0.198 NA
ATOM      6  C   UNL     1       9.895   1.184  24.193  0.00  0.00    +0.149 A 
ATOM      7  N   UNL     1      11.182   0.724  24.523  0.00  0.00    -0.341 N 
ATOM      8  H   UNL     1      11.821   1.511  24.563  0.00  0.00    +0.144 HD
ATOM      9  H   UNL     1      11.167   0.140  25.353  0.00  0.00    +0.144 HD
ATOM     10  C   UNL     1       8.802   0.321  24.251  0.00  0.00    +0.148 A 
ATOM     11  N   UNL     1       8.858  -0.950  24.767  0.00  0.00    -0.242 NA
ATOM     12  C   UNL     1       7.708  -1.667  24.744  0.00  0.00    +0.078 A 
ATOM     13  C   UNL     1       6.558  -1.112  24.211  0.00  0.00    +0.138 A 
ATOM     14  N   UNL     1       6.504   0.159  23.735  0.00  0.00    -0.232 NA
ATOM     15  C   UNL     1       7.622   0.893  23.765  0.00  0.00    +0.185 A 
ATOM     16  N   UNL     1       7.540   2.151  23.339  0.00  0.00    -0.193 NA
ENDROOT
BRANCH  12  17
ATOM     17  C   UNL     1       7.675  -3.037  25.401  0.00  0.00    +0.168 C 
BRANCH  17  18
ATOM     18  N   UNL     1       6.442  -3.809  25.130  0.00  0.00    -0.293 N 
ATOM     19  C   UNL     1       5.724  -4.280  26.270  0.00  0.00    +0.042 A 
ATOM     20  C   UNL     1       4.342  -4.577  26.185  0.00  0.00    -0.004 A 
ATOM     21  C   UNL     1       3.669  -5.147  27.283  0.00  0.00    +0.010 A 
ATOM     22  C   UNL     1       4.343  -5.427  28.468  0.00  0.00    +0.001 A 
ATOM     23  C   UNL     1       5.690  -5.109  28.580  0.00  0.00    +0.002 A 
ATOM     24  C   UNL     1       3.520  -4.242  25.012  0.00  0.00    +0.010 C 
ATOM     25  C   UNL     1       3.898  -4.352  23.731  0.00  0.00    +0.010 C 
ATOM     26  C   UNL     1       5.198  -4.858  23.270  0.00  0.00    -0.004 A 
ATOM     27  C   UNL     1       5.194  -5.612  22.081  0.00  0.00    +0.010 A 
ATOM     28  C   UNL     1       6.375  -6.134  21.560  0.00  0.00    +0.001 A 
ATOM     29  C   UNL     1       7.573  -5.909  22.221  0.00  0.00    +0.002 A 
ATOM     30  C   UNL     1       7.593  -5.143  23.389  0.00  0.00    +0.024 A 
ATOM     31  C   UNL     1       6.369  -4.541  27.497  0.00  0.00    +0.024 A 
ATOM     32  C   UNL     1       6.418  -4.582  23.931  0.00  0.00    +0.042 A 
ENDBRANCH  17  18
ENDBRANCH  12  17
TORSDOF 2
ENDMDL
MODEL 8
REMARK VINA RESULT:      -7.3      2.558      7.346
REMARK  Name = 
REMARK  2 active torsions:
REMARK  status: ('A' for Active; 'I' for Inactive)
REMARK    1  A    between atoms: C_7  and  C_8
REMARK    2  A    between atoms: C_8  and  N_9
REMARK                            x       y       z     vdW  Elec       q    Type
REMARK                         _______ _______ _______ _____ _____    ______ ____
ROOT
ATOM      1  N   UNL     1       1.586  -7.286  24.883  0.00  0.00    -0.327 N 
ATOM      2  H   UNL     1       0.780  -6.922  25.372  0.00  0.00    +0.145 HD
ATOM      3  H   UNL     1       1.421  -7.905  24.102  0.00  0.00    +0.145 HD
ATOM      4  C   UNL     1       2.441  -6.267  24.521  0.00  0.00    +0.216 A 
ATOM      5  N   UNL     1       2.397  -5.145  25.233  0.00  0.00    -0.198 NA
ATOM      6  C   UNL     1       3.276  -4.189  24.893  0.00  0.00    +0.149 A 
ATOM      7  N   UNL     1       3.159  -2.986  25.609  0.00  0.00    -0.341 N 
ATOM      8  H   UNL     1       2.544  -3.126  26.404  0.00  0.00    +0.144 HD
ATOM      9  H   UNL     1       4.069  -2.597  25.834  0.00  0.00    +0.144 HD
ATOM     10  C   UNL     1       4.205  -4.306  23.860  0.00  0.00    +0.148 A 
ATOM     11  N   UNL     1       5.154  -3.356  23.575  0.00  0.00    -0.242 NA
ATOM     12  C   UNL     1       5.980  -3.616  22.531  0.00  0.00    +0.078 A 
ATOM     13  C   UNL     1       5.836  -4.788  21.811  0.00  0.00    +0.138 A 
ATOM     14  N   UNL     1       4.917  -5.738  22.123  0.00  0.00    -0.232 NA
ATOM     15  C   UNL     1       4.103  -5.513  23.161  0.00  0.00    +0.185 A 
ATOM     16  N   UNL     1       3.240  -6.474  23.482  0.00  0.00    -0.193 NA
ENDROOT
BRANCH  12  17
ATOM     17  C   UNL     1       7.123  -2.659  22.235  0.00  0.00    +0.168 C 
BRANCH  17  18
ATOM     18  N   UNL     1       7.767  -2.094  23.442  0.00  0.00    -0.293 N 
ATOM     19  C   UNL     1       8.470  -0.863  23.269  0.00  0.00    +0.042 A 
ATOM     20  C   UNL     1       8.691   0.006  24.365  0.00  0.00    -0.004 A 
ATOM     21  C   UNL     1       9.481   1.161  24.208  0.00  0.00    +0.010 A 
ATOM     22  C   UNL     1      10.055   1.472  22.980  0.00  0.00    +0.001 A 
ATOM     23  C   UNL     1       9.818   0.651  21.886  0.00  0.00    +0.002 A 
ATOM     24  C   UNL     1       8.061  -0.186  25.681  0.00  0.00    +0.010 C 
ATOM     25  C   UNL     1       7.878  -1.360  26.300  0.00  0.00    +0.010 C 
ATOM     26  C   UNL     1       8.305  -2.668  25.784  0.00  0.00    -0.004 A 
ATOM     27  C   UNL     1       8.757  -3.603  26.735  0.00  0.00    +0.010 A 
ATOM     28  C   UNL     1       9.181  -4.871  26.347  0.00  0.00    +0.001 A 
ATOM     29  C   UNL     1       9.158  -5.219  25.005  0.00  0.00    +0.002 A 
ATOM     30  C   UNL     1       8.691  -4.308  24.054  0.00  0.00    +0.024 A 
ATOM     31  C   UNL     1       9.034  -0.499  22.029  0.00  0.00    +0.024 A 
ATOM     32  C   UNL     1       8.235  -3.024  24.417  0.00  0.00    +0.042 A 
ENDBRANCH  17  18
ENDBRANCH  12  17
TORSDOF 2
ENDMDL
MODEL 9
REMARK VINA RESULT:      -7.2      2.652      7.323
REMARK  Name = 
REMARK  2 active torsions:
REMARK  status: ('A' for Active; 'I' for Inactive)
REMARK    1  A    between atoms: C_7  and  C_8
REMARK    2  A    between atoms: C_8  and  N_9
REMARK                            x       y       z     vdW  Elec       q    Type
REMARK                         _______ _______ _______ _____ _____    ______ ____
ROOT
ATOM      1  N   UNL     1       3.796  -6.785  23.206  0.00  0.00    -0.327 N 
ATOM      2  H   UNL     1       3.635  -6.860  22.212  0.00  0.00    +0.145 HD
ATOM      3  H   UNL     1       4.069  -7.622  23.702  0.00  0.00    +0.145 HD
ATOM      4  C   UNL     1       4.665  -5.751  23.485  0.00  0.00    +0.216 A 
ATOM      5  N   UNL     1       4.748  -4.763  22.601  0.00  0.00    -0.198 NA
ATOM      6  C   UNL     1       5.562  -3.744  22.921  0.00  0.00    +0.149 A 
ATOM      7  N   UNL     1       5.691  -2.748  21.938  0.00  0.00    -0.341 N 
ATOM      8  H   UNL     1       4.981  -2.885  21.226  0.00  0.00    +0.144 HD
ATOM      9  H   UNL     1       5.714  -1.821  22.349  0.00  0.00    +0.144 HD
ATOM     10  C   UNL     1       6.305  -3.672  24.098  0.00  0.00    +0.148 A 
ATOM     11  N   UNL     1       7.069  -2.588  24.455  0.00  0.00    -0.242 NA
ATOM     12  C   UNL     1       7.740  -2.676  25.629  0.00  0.00    +0.078 A 
ATOM     13  C   UNL     1       7.639  -3.821  26.399  0.00  0.00    +0.138 A 
ATOM     14  N   UNL     1       6.853  -4.874  26.055  0.00  0.00    -0.232 NA
ATOM     15  C   UNL     1       6.166  -4.803  24.909  0.00  0.00    +0.185 A 
ATOM     16  N   UNL     1       5.364  -5.822  24.611  0.00  0.00    -0.193 NA
ENDROOT
BRANCH  12  17
ATOM     17  C   UNL     1       8.512  -1.468  26.134  0.00  0.00    +0.168 C 
BRANCH  17  18
ATOM     18  N   UNL     1       7.990  -0.171  25.651  0.00  0.00    -0.293 N 
ATOM     19  C   UNL     1       8.851   0.581  24.796  0.00  0.00    +0.042 A 
ATOM     20  C   UNL     1       8.324   1.543  23.899  0.00  0.00    -0.004 A 
ATOM     21  C   UNL     1       9.188   2.358  23.143  0.00  0.00    +0.010 A 
ATOM     22  C   UNL     1      10.569   2.234  23.257  0.00  0.00    +0.001 A 
ATOM     23  C   UNL     1      11.102   1.272  24.105  0.00  0.00    +0.002 A 
ATOM     24  C   UNL     1       6.883   1.694  23.640  0.00  0.00    +0.010 C 
ATOM     25  C   UNL     1       5.909   1.617  24.556  0.00  0.00    +0.010 C 
ATOM     26  C   UNL     1       6.111   1.397  25.995  0.00  0.00    -0.004 A 
ATOM     27  C   UNL     1       5.230   2.068  26.865  0.00  0.00    +0.010 A 
ATOM     28  C   UNL     1       5.338   1.924  28.245  0.00  0.00    +0.001 A 
ATOM     29  C   UNL     1       6.327   1.108  28.773  0.00  0.00    +0.002 A 
ATOM     30  C   UNL     1       7.193   0.419  27.920  0.00  0.00    +0.024 A 
ATOM     31  C   UNL     1      10.255   0.456  24.860  0.00  0.00    +0.024 A 
ATOM     32  C   UNL     1       7.096   0.527  26.517  0.00  0.00    +0.042 A 
ENDBRANCH  17  18
ENDBRANCH  12  17
TORSDOF 2
ENDMDL
