MODEL 1
REMARK VINA RESULT:      -6.2      0.000      0.000
REMARK  Name = 
REMARK  5 active torsions:
REMARK  status: ('A' for Active; 'I' for Inactive)
REMARK    1  A    between atoms: C_7  and  C_9
REMARK    2  A    between atoms: C_9  and  O_10
REMARK    3  A    between atoms: C_12  and  C_13
REMARK    4  A    between atoms: C_12  and  C_14
REMARK    5  A    between atoms: C_14  and  N_15
REMARK                            x       y       z     vdW  Elec       q    Type
REMARK                         _______ _______ _______ _____ _____    ______ ____
ROOT
ATOM      1  C   UNL     1       6.688  -5.380  25.483  0.00  0.00    +0.229 C 
ATOM      2  S   UNL     1       5.747  -3.944  24.928  0.00  0.00    -0.002 S 
ATOM      3  O   UNL     1       4.480  -4.411  24.401  0.00  0.00    -0.172 OA
ATOM      4  O   UNL     1       5.792  -2.914  25.946  0.00  0.00    -0.172 OA
ATOM      5  C   UNL     1       6.805  -3.431  23.515  0.00  0.00    +0.135 C 
ATOM      6  C   UNL     1       5.922  -2.712  22.477  0.00  0.00    +0.040 C 
ATOM      7  C   UNL     1       7.437  -4.798  23.123  0.00  0.00    +0.215 C 
ATOM      8  N   UNL     1       7.680  -5.546  24.384  0.00  0.00    -0.263 N 
ATOM      9  C   UNL     1       8.742  -5.216  25.188  0.00  0.00    +0.221 C 
ATOM     10  O   UNL     1       9.846  -4.829  24.889  0.00  0.00    -0.275 OA
ATOM     11  C   UNL     1       7.869  -5.195  26.440  0.00  0.00    +0.142 C 
ENDROOT
BRANCH   7  12
ATOM     12  C   UNL     1       6.575  -5.706  22.219  0.00  0.00    +0.328 C 
ATOM     13  O   UNL     1       6.621  -5.731  21.002  0.00  0.00    -0.249 OA
BRANCH  12  14
ATOM     14  O   UNL     1       5.785  -6.568  22.910  0.00  0.00    -0.479 OA
ATOM     15  H   UNL     1       6.316  -7.176  23.464  0.00  0.00    +0.295 HD
ENDBRANCH  12  14
ENDBRANCH   7  12
BRANCH   5  16
ATOM     16  C   UNL     1       7.817  -2.387  24.069  0.00  0.00    +0.177 C 
BRANCH  16  17
ATOM     17  N   UNL     1       8.746  -1.792  23.131  0.00  0.00    -0.250 N 
ATOM     18  N   UNL     1       9.912  -2.376  22.822  0.00  0.00    -0.066 NA
ATOM     19  N   UNL     1      10.573  -1.558  22.021  0.00  0.00    -0.138 NA
ATOM     20  C   UNL     1       9.791  -0.464  21.800  0.00  0.00    +0.156 A 
ATOM     21  C   UNL     1       8.605  -0.603  22.478  0.00  0.00    +0.130 A 
ENDBRANCH  16  17
ENDBRANCH   5  16
TORSDOF 4
ENDMDL
MODEL 2
REMARK VINA RESULT:      -6.2      3.339      5.441
REMARK  Name = 
REMARK  5 active torsions:
REMARK  status: ('A' for Active; 'I' for Inactive)
REMARK    1  A    between atoms: C_7  and  C_9
REMARK    2  A    between atoms: C_9  and  O_10
REMARK    3  A    between atoms: C_12  and  C_13
REMARK    4  A    between atoms: C_12  and  C_14
REMARK    5  A    between atoms: C_14  and  N_15
REMARK                            x       y       z     vdW  Elec       q    Type
REMARK                         _______ _______ _______ _____ _____    ______ ____
ROOT
ATOM      1  C   UNL     1       9.208   0.968  23.423  0.00  0.00    +0.229 C 
ATOM      2  S   UNL     1       7.416   0.834  23.580  0.00  0.00    -0.002 S 
ATOM      3  O   UNL     1       7.023   1.470  24.821  0.00  0.00    -0.172 OA
ATOM      4  O   UNL     1       6.792   1.205  22.326  0.00  0.00    -0.172 OA
ATOM      5  C   UNL     1       7.279  -0.987  23.797  0.00  0.00    +0.135 C 
ATOM      6  C   UNL     1       6.013  -1.288  24.621  0.00  0.00    +0.040 C 
ATOM      7  C   UNL     1       8.664  -1.302  24.432  0.00  0.00    +0.215 C 
ATOM      8  N   UNL     1       9.657  -0.406  23.785  0.00  0.00    -0.263 N 
ATOM      9  C   UNL     1      10.109  -0.676  22.518  0.00  0.00    +0.221 C 
ATOM     10  O   UNL     1      10.319  -1.739  21.984  0.00  0.00    -0.275 OA
ATOM     11  C   UNL     1       9.872   0.760  22.059  0.00  0.00    +0.142 C 
ENDROOT
BRANCH   7  12
ATOM     12  C   UNL     1       8.775  -1.074  25.955  0.00  0.00    +0.328 C 
ATOM     13  O   UNL     1       8.411  -1.861  26.810  0.00  0.00    -0.249 OA
BRANCH  12  14
ATOM     14  O   UNL     1       9.408   0.081  26.287  0.00  0.00    -0.479 OA
ATOM     15  H   UNL     1       9.048   0.462  27.114  0.00  0.00    +0.295 HD
ENDBRANCH  12  14
ENDBRANCH   7  12
BRANCH   5  16
ATOM     16  C   UNL     1       7.067  -1.592  22.379  0.00  0.00    +0.177 C 
BRANCH  16  17
ATOM     17  N   UNL     1       6.671  -2.982  22.296  0.00  0.00    -0.250 N 
ATOM     18  N   UNL     1       5.464  -3.349  21.843  0.00  0.00    -0.066 NA
ATOM     19  N   UNL     1       5.366  -4.661  21.972  0.00  0.00    -0.138 NA
ATOM     20  C   UNL     1       6.544  -5.122  22.481  0.00  0.00    +0.156 A 
ATOM     21  C   UNL     1       7.404  -4.069  22.671  0.00  0.00    +0.130 A 
ENDBRANCH  16  17
ENDBRANCH   5  16
TORSDOF 4
ENDMDL
MODEL 3
REMARK VINA RESULT:      -6.1      2.290      4.948
REMARK  Name = 
REMARK  5 active torsions:
REMARK  status: ('A' for Active; 'I' for Inactive)
REMARK    1  A    between atoms: C_7  and  C_9
REMARK    2  A    between atoms: C_9  and  O_10
REMARK    3  A    between atoms: C_12  and  C_13
REMARK    4  A    between atoms: C_12  and  C_14
REMARK    5  A    between atoms: C_14  and  N_15
REMARK                            x       y       z     vdW  Elec       q    Type
REMARK                         _______ _______ _______ _____ _____    ______ ____
ROOT
ATOM      1  C   UNL     1       8.079  -3.182  22.888  0.00  0.00    +0.229 C 
ATOM      2  S   UNL     1       7.983  -4.793  23.695  0.00  0.00    -0.002 S 
ATOM      3  O   UNL     1       7.655  -5.782  22.689  0.00  0.00    -0.172 OA
ATOM      4  O   UNL     1       9.133  -4.968  24.561  0.00  0.00    -0.172 OA
ATOM      5  C   UNL     1       6.494  -4.510  24.734  0.00  0.00    +0.135 C 
ATOM      6  C   UNL     1       5.798  -5.863  24.972  0.00  0.00    +0.040 C 
ATOM      7  C   UNL     1       5.752  -3.440  23.882  0.00  0.00    +0.215 C 
ATOM      8  N   UNL     1       6.788  -2.554  23.290  0.00  0.00    -0.263 N 
ATOM      9  C   UNL     1       7.403  -1.601  24.062  0.00  0.00    +0.221 C 
ATOM     10  O   UNL     1       6.956  -0.927  24.959  0.00  0.00    -0.275 OA
ATOM     11  C   UNL     1       8.792  -2.020  23.586  0.00  0.00    +0.142 C 
ENDROOT
BRANCH   7  12
ATOM     12  C   UNL     1       4.901  -3.981  22.712  0.00  0.00    +0.328 C 
ATOM     13  O   UNL     1       3.813  -4.516  22.826  0.00  0.00    -0.249 OA
BRANCH  12  14
ATOM     14  O   UNL     1       5.439  -3.735  21.489  0.00  0.00    -0.479 OA
ATOM     15  H   UNL     1       5.029  -2.954  21.068  0.00  0.00    +0.295 HD
ENDBRANCH  12  14
ENDBRANCH   7  12
BRANCH   5  16
ATOM     16  C   UNL     1       7.001  -3.997  26.114  0.00  0.00    +0.177 C 
BRANCH  16  17
ATOM     17  N   UNL     1       6.669  -4.783  27.283  0.00  0.00    -0.250 N 
ATOM     18  N   UNL     1       7.417  -5.826  27.670  0.00  0.00    -0.066 NA
ATOM     19  N   UNL     1       6.817  -6.392  28.703  0.00  0.00    -0.138 NA
ATOM     20  C   UNL     1       5.696  -5.669  28.985  0.00  0.00    +0.156 A 
ATOM     21  C   UNL     1       5.595  -4.619  28.107  0.00  0.00    +0.130 A 
ENDBRANCH  16  17
ENDBRANCH   5  16
TORSDOF 4
ENDMDL
MODEL 4
REMARK VINA RESULT:      -5.9      2.283      5.265
REMARK  Name = 
REMARK  5 active torsions:
REMARK  status: ('A' for Active; 'I' for Inactive)
REMARK    1  A    between atoms: C_7  and  C_9
REMARK    2  A    between atoms: C_9  and  O_10
REMARK    3  A    between atoms: C_12  and  C_13
REMARK    4  A    between atoms: C_12  and  C_14
REMARK    5  A    between atoms: C_14  and  N_15
REMARK                            x       y       z     vdW  Elec       q    Type
REMARK                         _______ _______ _______ _____ _____    ______ ____
ROOT
ATOM      1  C   UNL     1       7.374  -3.391  22.604  0.00  0.00    +0.229 C 
ATOM      2  S   UNL     1       7.017  -2.485  24.123  0.00  0.00    -0.002 S 
ATOM      3  O   UNL     1       8.165  -1.656  24.433  0.00  0.00    -0.172 OA
ATOM      4  O   UNL     1       5.689  -1.912  24.042  0.00  0.00    -0.172 OA
ATOM      5  C   UNL     1       6.988  -3.895  25.302  0.00  0.00    +0.135 C 
ATOM      6  C   UNL     1       7.395  -3.377  26.695  0.00  0.00    +0.040 C 
ATOM      7  C   UNL     1       7.940  -4.890  24.579  0.00  0.00    +0.215 C 
ATOM      8  N   UNL     1       7.693  -4.752  23.120  0.00  0.00    -0.263 N 
ATOM      9  C   UNL     1       6.577  -5.314  22.553  0.00  0.00    +0.221 C 
ATOM     10  O   UNL     1       6.008  -6.344  22.825  0.00  0.00    -0.275 OA
ATOM     11  C   UNL     1       6.231  -4.027  21.808  0.00  0.00    +0.142 C 
ENDROOT
BRANCH   7  12
ATOM     12  C   UNL     1       9.451  -4.662  24.804  0.00  0.00    +0.328 C 
ATOM     13  O   UNL     1      10.111  -3.780  24.286  0.00  0.00    -0.249 OA
BRANCH  12  14
ATOM     14  O   UNL     1       9.997  -5.502  25.721  0.00  0.00    -0.479 OA
ATOM     15  H   UNL     1       9.321  -6.084  26.122  0.00  0.00    +0.295 HD
ENDBRANCH  12  14
ENDBRANCH   7  12
BRANCH   5  16
ATOM     16  C   UNL     1       5.508  -4.369  25.395  0.00  0.00    +0.177 C 
BRANCH  16  17
ATOM     17  N   UNL     1       5.164  -5.282  26.465  0.00  0.00    -0.250 N 
ATOM     18  N   UNL     1       5.790  -6.457  26.622  0.00  0.00    -0.066 NA
ATOM     19  N   UNL     1       5.200  -7.099  27.616  0.00  0.00    -0.138 NA
ATOM     20  C   UNL     1       4.215  -6.295  28.109  0.00  0.00    +0.156 A 
ATOM     21  C   UNL     1       4.191  -5.116  27.406  0.00  0.00    +0.130 A 
ENDBRANCH  16  17
ENDBRANCH   5  16
TORSDOF 4
ENDMDL
MODEL 5
REMARK VINA RESULT:      -5.9      2.575      4.245
REMARK  Name = 
REMARK  5 active torsions:
REMARK  status: ('A' for Active; 'I' for Inactive)
REMARK    1  A    between atoms: C_7  and  C_9
REMARK    2  A    between atoms: C_9  and  O_10
REMARK    3  A    between atoms: C_12  and  C_13
REMARK    4  A    between atoms: C_12  and  C_14
REMARK    5  A    between atoms: C_14  and  N_15
REMARK                            x       y       z     vdW  Elec       q    Type
REMARK                         _______ _______ _______ _____ _____    ______ ____
ROOT
ATOM      1  C   UNL     1       7.781  -5.276  23.342  0.00  0.00    +0.229 C 
ATOM      2  S   UNL     1       8.402  -3.645  23.799  0.00  0.00    -0.002 S 
ATOM      3  O   UNL     1       9.648  -3.821  24.518  0.00  0.00    -0.172 OA
ATOM      4  O   UNL     1       8.326  -2.761  22.654  0.00  0.00    -0.172 OA
ATOM      5  C   UNL     1       7.102  -3.166  25.008  0.00  0.00    +0.135 C 
ATOM      6  C   UNL     1       7.717  -2.192  26.030  0.00  0.00    +0.040 C 
ATOM      7  C   UNL     1       6.649  -4.569  25.508  0.00  0.00    +0.215 C 
ATOM      8  N   UNL     1       6.693  -5.486  24.340  0.00  0.00    -0.263 N 
ATOM      9  C   UNL     1       5.706  -5.440  23.388  0.00  0.00    +0.221 C 
ATOM     10  O   UNL     1       4.525  -5.219  23.510  0.00  0.00    -0.275 OA
ATOM     11  C   UNL     1       6.719  -5.409  22.247  0.00  0.00    +0.142 C 
ENDROOT
BRANCH   7  12
ATOM     12  C   UNL     1       7.520  -5.204  26.613  0.00  0.00    +0.328 C 
ATOM     13  O   UNL     1       7.296  -5.136  27.808  0.00  0.00    -0.249 OA
BRANCH  12  14
ATOM     14  O   UNL     1       8.554  -5.944  26.133  0.00  0.00    -0.479 OA
ATOM     15  H   UNL     1       8.734  -6.719  26.702  0.00  0.00    +0.295 HD
ENDBRANCH  12  14
ENDBRANCH   7  12
BRANCH   5  16
ATOM     16  C   UNL     1       6.017  -2.384  24.212  0.00  0.00    +0.177 C 
BRANCH  16  17
ATOM     17  N   UNL     1       5.859  -0.975  24.503  0.00  0.00    -0.250 N 
ATOM     18  N   UNL     1       4.944  -0.530  25.376  0.00  0.00    -0.066 NA
ATOM     19  N   UNL     1       4.979   0.791  25.360  0.00  0.00    -0.138 NA
ATOM     20  C   UNL     1       5.955   1.174  24.489  0.00  0.00    +0.156 A 
ATOM     21  C   UNL     1       6.550   0.061  23.949  0.00  0.00    +0.130 A 
ENDBRANCH  16  17
ENDBRANCH   5  16
TORSDOF 4
ENDMDL
MODEL 6
REMARK VINA RESULT:      -5.8      2.594      5.444
REMARK  Name = 
REMARK  5 active torsions:
REMARK  status: ('A' for Active; 'I' for Inactive)
REMARK    1  A    between atoms: C_7  and  C_9
REMARK    2  A    between atoms: C_9  and  O_10
REMARK    3  A    between atoms: C_12  and  C_13
REMARK    4  A    between atoms: C_12  and  C_14
REMARK    5  A    between atoms: C_14  and  N_15
REMARK                            x       y       z     vdW  Elec       q    Type
REMARK                         _______ _______ _______ _____ _____    ______ ____
ROOT
ATOM      1  C   UNL     1       7.817  -3.200  24.010  0.00  0.00    +0.229 C 
ATOM      2  S   UNL     1       6.435  -2.735  25.072  0.00  0.00    -0.002 S 
ATOM      3  O   UNL     1       6.972  -2.114  26.266  0.00  0.00    -0.172 OA
ATOM      4  O   UNL     1       5.422  -2.066  24.280  0.00  0.00    -0.172 OA
ATOM      5  C   UNL     1       5.831  -4.413  25.516  0.00  0.00    +0.135 C 
ATOM      6  C   UNL     1       5.151  -4.340  26.897  0.00  0.00    +0.040 C 
ATOM      7  C   UNL     1       7.147  -5.232  25.386  0.00  0.00    +0.215 C 
ATOM      8  N   UNL     1       7.900  -4.671  24.234  0.00  0.00    -0.263 N 
ATOM      9  C   UNL     1       7.518  -4.966  22.949  0.00  0.00    +0.221 C 
ATOM     10  O   UNL     1       7.056  -5.986  22.496  0.00  0.00    -0.275 OA
ATOM     11  C   UNL     1       7.574  -3.500  22.529  0.00  0.00    +0.142 C 
ENDROOT
BRANCH   7  12
ATOM     12  C   UNL     1       8.092  -5.190  26.606  0.00  0.00    +0.328 C 
ATOM     13  O   UNL     1       9.067  -4.467  26.712  0.00  0.00    -0.249 OA
BRANCH  12  14
ATOM     14  O   UNL     1       7.697  -5.990  27.629  0.00  0.00    -0.479 OA
ATOM     15  H   UNL     1       7.125  -5.509  28.261  0.00  0.00    +0.295 HD
ENDBRANCH  12  14
ENDBRANCH   7  12
BRANCH   5  16
ATOM     16  C   UNL     1       4.734  -4.784  24.476  0.00  0.00    +0.177 C 
BRANCH  16  17
ATOM     17  N   UNL     1       3.945  -5.971  24.729  0.00  0.00    -0.250 N 
ATOM     18  N   UNL     1       4.433  -7.202  24.523  0.00  0.00    -0.066 NA
ATOM     19  N   UNL     1       3.460  -8.066  24.753  0.00  0.00    -0.138 NA
ATOM     20  C   UNL     1       2.358  -7.363  25.142  0.00  0.00    +0.156 A 
ATOM     21  C   UNL     1       2.653  -6.023  25.160  0.00  0.00    +0.130 A 
ENDBRANCH  16  17
ENDBRANCH   5  16
TORSDOF 4
ENDMDL
MODEL 7
REMARK VINA RESULT:      -5.8      1.898      3.426
REMARK  Name = 
REMARK  5 active torsions:
REMARK  status: ('A' for Active; 'I' for Inactive)
REMARK    1  A    between atoms: C_7  and  C_9
REMARK    2  A    between atoms: C_9  and  O_10
REMARK    3  A    between atoms: C_12  and  C_13
REMARK    4  A    between atoms: C_12  and  C_14
REMARK    5  A    between atoms: C_14  and  N_15
REMARK                            x       y       z     vdW  Elec       q    Type
REMARK                         _______ _______ _______ _____ _____    ______ ____
ROOT
ATOM      1  C   UNL     1       6.107  -5.542  23.609  0.00  0.00    +0.229 C 
ATOM      2  S   UNL     1       7.490  -4.847  24.537  0.00  0.00    -0.002 S 
ATOM      3  O   UNL     1       7.184  -4.954  25.950  0.00  0.00    -0.172 OA
ATOM      4  O   UNL     1       8.735  -5.364  24.007  0.00  0.00    -0.172 OA
ATOM      5  C   UNL     1       7.317  -3.086  24.042  0.00  0.00    +0.135 C 
ATOM      6  C   UNL     1       7.879  -2.201  25.171  0.00  0.00    +0.040 C 
ATOM      7  C   UNL     1       5.791  -3.021  23.746  0.00  0.00    +0.215 C 
ATOM      8  N   UNL     1       5.410  -4.316  23.125  0.00  0.00    -0.263 N 
ATOM      9  C   UNL     1       5.715  -4.568  21.811  0.00  0.00    +0.221 C 
ATOM     10  O   UNL     1       5.742  -3.816  20.867  0.00  0.00    -0.275 OA
ATOM     11  C   UNL     1       6.296  -5.940  22.143  0.00  0.00    +0.142 C 
ENDROOT
BRANCH   7  12
ATOM     12  C   UNL     1       4.875  -2.823  24.973  0.00  0.00    +0.328 C 
ATOM     13  O   UNL     1       4.554  -1.746  25.442  0.00  0.00    -0.249 OA
BRANCH  12  14
ATOM     14  O   UNL     1       4.364  -3.982  25.464  0.00  0.00    -0.479 OA
ATOM     15  H   UNL     1       3.413  -4.073  25.253  0.00  0.00    +0.295 HD
ENDBRANCH  12  14
ENDBRANCH   7  12
BRANCH   5  16
ATOM     16  C   UNL     1       8.225  -2.881  22.794  0.00  0.00    +0.177 C 
BRANCH  16  17
ATOM     17  N   UNL     1       8.706  -1.541  22.529  0.00  0.00    -0.250 N 
ATOM     18  N   UNL     1       7.872  -0.496  22.433  0.00  0.00    -0.066 NA
ATOM     19  N   UNL     1       8.589   0.563  22.098  0.00  0.00    -0.138 NA
ATOM     20  C   UNL     1       9.895   0.178  22.019  0.00  0.00    +0.156 A 
ATOM     21  C   UNL     1       9.997  -1.158  22.316  0.00  0.00    +0.130 A 
ENDBRANCH  16  17
ENDBRANCH   5  16
TORSDOF 4
ENDMDL
MODEL 8
REMARK VINA RESULT:      -5.8      2.980      5.226
REMARK  Name = 
REMARK  5 active torsions:
REMARK  status: ('A' for Active; 'I' for Inactive)
REMARK    1  A    between atoms: C_7  and  C_9
REMARK    2  A    between atoms: C_9  and  O_10
REMARK    3  A    between atoms: C_12  and  C_13
REMARK    4  A    between atoms: C_12  and  C_14
REMARK    5  A    between atoms: C_14  and  N_15
REMARK                            x       y       z     vdW  Elec       q    Type
REMARK                         _______ _______ _______ _____ _____    ______ ____
ROOT
ATOM      1  C   UNL     1       9.813   0.166  23.475  0.00  0.00    +0.229 C 
ATOM      2  S   UNL     1       9.810  -1.373  22.533  0.00  0.00    -0.002 S 
ATOM      3  O   UNL     1       9.204  -1.112  21.243  0.00  0.00    -0.172 OA
ATOM      4  O   UNL     1      11.113  -1.999  22.627  0.00  0.00    -0.172 OA
ATOM      5  C   UNL     1       8.614  -2.333  23.547  0.00  0.00    +0.135 C 
ATOM      6  C   UNL     1       7.913  -3.360  22.638  0.00  0.00    +0.040 C 
ATOM      7  C   UNL     1       7.761  -1.179  24.148  0.00  0.00    +0.215 C 
ATOM      8  N   UNL     1       8.686  -0.049  24.426  0.00  0.00    -0.263 N 
ATOM      9  C   UNL     1       9.514  -0.087  25.519  0.00  0.00    +0.221 C 
ATOM     10  O   UNL     1       9.323  -0.552  26.617  0.00  0.00    -0.275 OA
ATOM     11  C   UNL     1      10.731   0.315  24.691  0.00  0.00    +0.142 C 
ENDROOT
BRANCH   7  12
ATOM     12  C   UNL     1       6.637  -0.629  23.244  0.00  0.00    +0.328 C 
ATOM     13  O   UNL     1       6.635   0.469  22.717  0.00  0.00    -0.249 OA
BRANCH  12  14
ATOM     14  O   UNL     1       5.646  -1.526  23.002  0.00  0.00    -0.479 OA
ATOM     15  H   UNL     1       5.166  -1.760  23.822  0.00  0.00    +0.295 HD
ENDBRANCH  12  14
ENDBRANCH   7  12
BRANCH   5  16
ATOM     16  C   UNL     1       9.450  -3.128  24.592  0.00  0.00    +0.177 C 
BRANCH  16  17
ATOM     17  N   UNL     1       8.734  -3.996  25.502  0.00  0.00    -0.250 N 
ATOM     18  N   UNL     1       8.864  -5.330  25.459  0.00  0.00    -0.066 NA
ATOM     19  N   UNL     1       8.025  -5.846  26.341  0.00  0.00    -0.138 NA
ATOM     20  C   UNL     1       7.388  -4.816  26.967  0.00  0.00    +0.156 A 
ATOM     21  C   UNL     1       7.845  -3.622  26.466  0.00  0.00    +0.130 A 
ENDBRANCH  16  17
ENDBRANCH   5  16
TORSDOF 4
ENDMDL
MODEL 9
REMARK VINA RESULT:      -5.7      4.119      5.749
REMARK  Name = 
REMARK  5 active torsions:
REMARK  status: ('A' for Active; 'I' for Inactive)
REMARK    1  A    between atoms: C_7  and  C_9
REMARK    2  A    between atoms: C_9  and  O_10
REMARK    3  A    between atoms: C_12  and  C_13
REMARK    4  A    between atoms: C_12  and  C_14
REMARK    5  A    between atoms: C_14  and  N_15
REMARK                            x       y       z     vdW  Elec       q    Type
REMARK                         _______ _______ _______ _____ _____    ______ ____
ROOT
ATOM      1  C   UNL     1       9.570  -1.396  23.716  0.00  0.00    +0.229 C 
ATOM      2  S   UNL     1       9.630  -0.180  25.047  0.00  0.00    -0.002 S 
ATOM      3  O   UNL     1       9.039  -0.776  26.229  0.00  0.00    -0.172 OA
ATOM      4  O   UNL     1      10.951   0.415  25.098  0.00  0.00    -0.172 OA
ATOM      5  C   UNL     1       8.447   1.052  24.369  0.00  0.00    +0.135 C 
ATOM      6  C   UNL     1       7.794   1.803  25.545  0.00  0.00    +0.040 C 
ATOM      7  C   UNL     1       7.549   0.133  23.493  0.00  0.00    +0.215 C 
ATOM      8  N   UNL     1       8.434  -0.898  22.889  0.00  0.00    -0.263 N 
ATOM      9  C   UNL     1       9.245  -0.577  21.829  0.00  0.00    +0.221 C 
ATOM     10  O   UNL     1       9.049   0.180  20.909  0.00  0.00    -0.275 OA
ATOM     11  C   UNL     1      10.463  -1.224  22.484  0.00  0.00    +0.142 C 
ENDROOT
BRANCH   7  12
ATOM     12  C   UNL     1       6.425  -0.619  24.237  0.00  0.00    +0.328 C 
ATOM     13  O   UNL     1       6.489  -1.772  24.624  0.00  0.00    -0.249 OA
BRANCH  12  14
ATOM     14  O   UNL     1       5.342   0.154  24.511  0.00  0.00    -0.479 OA
ATOM     15  H   UNL     1       5.458   1.066  24.176  0.00  0.00    +0.295 HD
ENDBRANCH  12  14
ENDBRANCH   7  12
BRANCH   5  16
ATOM     16  C   UNL     1       9.290   2.086  23.566  0.00  0.00    +0.177 C 
BRANCH  16  17
ATOM     17  N   UNL     1       8.628   3.301  23.138  0.00  0.00    -0.250 N 
ATOM     18  N   UNL     1       8.974   4.503  23.621  0.00  0.00    -0.066 NA
ATOM     19  N   UNL     1       8.139   5.396  23.117  0.00  0.00    -0.138 NA
ATOM     20  C   UNL     1       7.283   4.744  22.280  0.00  0.00    +0.156 A 
ATOM     21  C   UNL     1       7.593   3.407  22.257  0.00  0.00    +0.130 A 
ENDBRANCH  16  17
ENDBRANCH   5  16
TORSDOF 4
ENDMDL
