MODEL 1
REMARK VINA RESULT:      -5.6      0.000      0.000
REMARK  Name = 
REMARK  10 active torsions:
REMARK  status: ('A' for Active; 'I' for Inactive)
REMARK    1  A    between atoms: O_1  and  C_2
REMARK    2  A    between atoms: C_2  and  C_4
REMARK    3  A    between atoms: C_4  and  C_5
REMARK    4  A    between atoms: C_5  and  C_6
REMARK    5  A    between atoms: C_6  and  C_7
REMARK    6  A    between atoms: C_10  and  N_13
REMARK    7  A    between atoms: N_13  and  C_14
REMARK    8  A    between atoms: N_13  and  C_17
REMARK    9  A    between atoms: C_14  and  C_15
REMARK   10  A    between atoms: C_17  and  C_18
REMARK                            x       y       z     vdW  Elec       q    Type
REMARK                         _______ _______ _______ _____ _____    ______ ____
ROOT
ATOM      1  C   UNL     1       9.748  -0.544  23.019  0.00  0.00    -0.047 A 
ATOM      2  C   UNL     1       9.668   0.321  21.928  0.00  0.00    +0.005 A 
ATOM      3  C   UNL     1       9.993   1.677  22.071  0.00  0.00    +0.023 A 
ATOM      4  C   UNL     1      10.398   2.226  23.299  0.00  0.00    +0.030 A 
ATOM      5  C   UNL     1      10.528   1.329  24.367  0.00  0.00    +0.023 A 
ATOM      6  C   UNL     1      10.207  -0.030  24.234  0.00  0.00    +0.005 A 
ENDROOT
BRANCH   1   7
ATOM      7  C   UNL     1       9.351  -1.996  22.886  0.00  0.00    +0.035 C 
BRANCH   7   8
ATOM      8  C   UNL     1       9.853  -2.848  24.057  0.00  0.00    +0.016 C 
BRANCH   8   9
ATOM      9  C   UNL     1       8.876  -3.971  24.406  0.00  0.00    +0.121 C 
BRANCH   9  10
ATOM     10  C   UNL     1       9.337  -4.756  25.613  0.00  0.00    +0.305 C 
ATOM     11  O   UNL     1       8.864  -4.674  26.734  0.00  0.00    -0.251 OA
BRANCH  10  12
ATOM     12  O   UNL     1      10.361  -5.590  25.322  0.00  0.00    -0.481 OA
ATOM     13  H   UNL     1      11.243  -5.182  25.408  0.00  0.00    +0.295 HD
ENDBRANCH  10  12
ENDBRANCH   9  10
ENDBRANCH   8   9
ENDBRANCH   7   8
ENDBRANCH   1   7
BRANCH   4  14
ATOM     14  N   UNL     1      10.633   3.597  23.418  0.00  0.00    -0.328 N 
BRANCH  14  15
ATOM     15  C   UNL     1       9.595   4.401  24.101  0.00  0.00    +0.121 C 
BRANCH  15  16
ATOM     16  C   UNL     1       8.400   4.780  23.216  0.00  0.00    +0.127 C 
ATOM     17 CL   UNL     1       7.082   3.579  23.285  0.00  0.00    -0.124 Cl
ENDBRANCH  15  16
ENDBRANCH  14  15
BRANCH  14  18
ATOM     18  C   UNL     1      12.001   4.151  23.443  0.00  0.00    +0.121 C 
BRANCH  18  19
ATOM     19  C   UNL     1      12.071   5.611  22.984  0.00  0.00    +0.127 C 
ATOM     20 CL   UNL     1      13.470   5.919  21.918  0.00  0.00    -0.124 Cl
ENDBRANCH  18  19
ENDBRANCH  14  18
ENDBRANCH   4  14
TORSDOF 10
ENDMDL
MODEL 2
REMARK VINA RESULT:      -5.5      5.247      7.798
REMARK  Name = 
REMARK  10 active torsions:
REMARK  status: ('A' for Active; 'I' for Inactive)
REMARK    1  A    between atoms: O_1  and  C_2
REMARK    2  A    between atoms: C_2  and  C_4
REMARK    3  A    between atoms: C_4  and  C_5
REMARK    4  A    between atoms: C_5  and  C_6
REMARK    5  A    between atoms: C_6  and  C_7
REMARK    6  A    between atoms: C_10  and  N_13
REMARK    7  A    between atoms: N_13  and  C_14
REMARK    8  A    between atoms: N_13  and  C_17
REMARK    9  A    between atoms: C_14  and  C_15
REMARK   10  A    between atoms: C_17  and  C_18
REMARK                            x       y       z     vdW  Elec       q    Type
REMARK                         _______ _______ _______ _____ _____    ______ ____
ROOT
ATOM      1  C   UNL     1      10.169   0.065  24.168  0.00  0.00    -0.047 A 
ATOM      2  C   UNL     1       9.409  -0.387  25.246  0.00  0.00    +0.005 A 
ATOM      3  C   UNL     1       8.838  -1.667  25.227  0.00  0.00    +0.023 A 
ATOM      4  C   UNL     1       8.990  -2.540  24.137  0.00  0.00    +0.030 A 
ATOM      5  C   UNL     1       9.805  -2.090  23.090  0.00  0.00    +0.023 A 
ATOM      6  C   UNL     1      10.383  -0.811  23.101  0.00  0.00    +0.005 A 
ENDROOT
BRANCH   1   7
ATOM      7  C   UNL     1      10.745   1.462  24.158  0.00  0.00    +0.035 C 
BRANCH   7   8
ATOM      8  C   UNL     1      10.318   2.261  22.923  0.00  0.00    +0.016 C 
BRANCH   8   9
ATOM      9  C   UNL     1       8.877   2.761  23.038  0.00  0.00    +0.121 C 
BRANCH   9  10
ATOM     10  C   UNL     1       8.022   2.264  21.894  0.00  0.00    +0.305 C 
ATOM     11  O   UNL     1       6.826   2.469  21.763  0.00  0.00    -0.251 OA
BRANCH  10  12
ATOM     12  O   UNL     1       8.732   1.545  20.996  0.00  0.00    -0.481 OA
ATOM     13  H   UNL     1       8.601   1.825  20.071  0.00  0.00    +0.295 HD
ENDBRANCH  10  12
ENDBRANCH   9  10
ENDBRANCH   8   9
ENDBRANCH   7   8
ENDBRANCH   1   7
BRANCH   4  14
ATOM     14  N   UNL     1       8.338  -3.773  24.122  0.00  0.00    -0.328 N 
BRANCH  14  15
ATOM     15  C   UNL     1       7.458  -4.056  22.965  0.00  0.00    +0.121 C 
BRANCH  15  16
ATOM     16  C   UNL     1       7.334  -5.544  22.611  0.00  0.00    +0.127 C 
ATOM     17 CL   UNL     1       6.383  -5.824  21.127  0.00  0.00    -0.124 Cl
ENDBRANCH  15  16
ENDBRANCH  14  15
BRANCH  14  18
ATOM     18  C   UNL     1       8.889  -4.953  24.818  0.00  0.00    +0.121 C 
BRANCH  18  19
ATOM     19  C   UNL     1       8.337  -5.133  26.236  0.00  0.00    +0.127 C 
ATOM     20 CL   UNL     1       6.603  -5.558  26.237  0.00  0.00    -0.124 Cl
ENDBRANCH  18  19
ENDBRANCH  14  18
ENDBRANCH   4  14
TORSDOF 10
ENDMDL
MODEL 3
REMARK VINA RESULT:      -5.5      5.155      7.862
REMARK  Name = 
REMARK  10 active torsions:
REMARK  status: ('A' for Active; 'I' for Inactive)
REMARK    1  A    between atoms: O_1  and  C_2
REMARK    2  A    between atoms: C_2  and  C_4
REMARK    3  A    between atoms: C_4  and  C_5
REMARK    4  A    between atoms: C_5  and  C_6
REMARK    5  A    between atoms: C_6  and  C_7
REMARK    6  A    between atoms: C_10  and  N_13
REMARK    7  A    between atoms: N_13  and  C_14
REMARK    8  A    between atoms: N_13  and  C_17
REMARK    9  A    between atoms: C_14  and  C_15
REMARK   10  A    between atoms: C_17  and  C_18
REMARK                            x       y       z     vdW  Elec       q    Type
REMARK                         _______ _______ _______ _____ _____    ______ ____
ROOT
ATOM      1  C   UNL     1       9.694   1.846  23.224  0.00  0.00    -0.047 A 
ATOM      2  C   UNL     1       9.758   1.080  22.060  0.00  0.00    +0.005 A 
ATOM      3  C   UNL     1       9.440  -0.285  22.088  0.00  0.00    +0.023 A 
ATOM      4  C   UNL     1       9.059  -0.942  23.270  0.00  0.00    +0.030 A 
ATOM      5  C   UNL     1       8.944  -0.143  24.415  0.00  0.00    +0.023 A 
ATOM      6  C   UNL     1       9.258   1.224  24.397  0.00  0.00    +0.005 A 
ENDROOT
BRANCH   1   7
ATOM      7  C   UNL     1      10.084   3.305  23.213  0.00  0.00    +0.035 C 
BRANCH   7   8
ATOM      8  C   UNL     1      11.590   3.509  23.405  0.00  0.00    +0.016 C 
BRANCH   8   9
ATOM      9  C   UNL     1      11.964   4.991  23.461  0.00  0.00    +0.121 C 
BRANCH   9  10
ATOM     10  C   UNL     1      13.193   5.287  22.633  0.00  0.00    +0.305 C 
ATOM     11  O   UNL     1      13.191   5.697  21.484  0.00  0.00    -0.251 OA
BRANCH  10  12
ATOM     12  O   UNL     1      14.339   5.047  23.310  0.00  0.00    -0.481 OA
ATOM     13  H   UNL     1      15.083   5.620  23.046  0.00  0.00    +0.295 HD
ENDBRANCH  10  12
ENDBRANCH   9  10
ENDBRANCH   8   9
ENDBRANCH   7   8
ENDBRANCH   1   7
BRANCH   4  14
ATOM     14  N   UNL     1       8.830  -2.319  23.272  0.00  0.00    -0.328 N 
BRANCH  14  15
ATOM     15  C   UNL     1       9.280  -3.075  24.463  0.00  0.00    +0.121 C 
BRANCH  15  16
ATOM     16  C   UNL     1       8.764  -4.518  24.531  0.00  0.00    +0.127 C 
ATOM     17 CL   UNL     1       8.508  -5.081  26.205  0.00  0.00    -0.124 Cl
ENDBRANCH  15  16
ENDBRANCH  14  15
BRANCH  14  18
ATOM     18  C   UNL     1       7.726  -2.925  22.501  0.00  0.00    +0.121 C 
BRANCH  18  19
ATOM     19  C   UNL     1       6.384  -2.216  22.708  0.00  0.00    +0.127 C 
ATOM     20 CL   UNL     1       5.665  -2.578  24.301  0.00  0.00    -0.124 Cl
ENDBRANCH  18  19
ENDBRANCH  14  18
ENDBRANCH   4  14
TORSDOF 10
ENDMDL
MODEL 4
REMARK VINA RESULT:      -5.5      5.428      7.992
REMARK  Name = 
REMARK  10 active torsions:
REMARK  status: ('A' for Active; 'I' for Inactive)
REMARK    1  A    between atoms: O_1  and  C_2
REMARK    2  A    between atoms: C_2  and  C_4
REMARK    3  A    between atoms: C_4  and  C_5
REMARK    4  A    between atoms: C_5  and  C_6
REMARK    5  A    between atoms: C_6  and  C_7
REMARK    6  A    between atoms: C_10  and  N_13
REMARK    7  A    between atoms: N_13  and  C_14
REMARK    8  A    between atoms: N_13  and  C_17
REMARK    9  A    between atoms: C_14  and  C_15
REMARK   10  A    between atoms: C_17  and  C_18
REMARK                            x       y       z     vdW  Elec       q    Type
REMARK                         _______ _______ _______ _____ _____    ______ ____
ROOT
ATOM      1  C   UNL     1       9.529   2.120  24.198  0.00  0.00    -0.047 A 
ATOM      2  C   UNL     1      10.476   1.111  24.374  0.00  0.00    +0.005 A 
ATOM      3  C   UNL     1      10.074  -0.217  24.565  0.00  0.00    +0.023 A 
ATOM      4  C   UNL     1       8.721  -0.594  24.599  0.00  0.00    +0.030 A 
ATOM      5  C   UNL     1       7.787   0.423  24.362  0.00  0.00    +0.023 A 
ATOM      6  C   UNL     1       8.180   1.756  24.168  0.00  0.00    +0.005 A 
ENDROOT
BRANCH   1   7
ATOM      7  C   UNL     1       9.952   3.561  24.041  0.00  0.00    +0.035 C 
BRANCH   7   8
ATOM      8  C   UNL     1      11.323   3.697  23.369  0.00  0.00    +0.016 C 
BRANCH   8   9
ATOM      9  C   UNL     1      11.852   5.130  23.437  0.00  0.00    +0.121 C 
BRANCH   9  10
ATOM     10  C   UNL     1      13.132   5.290  22.648  0.00  0.00    +0.305 C 
ATOM     11  O   UNL     1      13.209   5.678  21.494  0.00  0.00    -0.251 OA
BRANCH  10  12
ATOM     12  O   UNL     1      14.224   4.949  23.368  0.00  0.00    -0.481 OA
ATOM     13  H   UNL     1      15.069   5.100  22.903  0.00  0.00    +0.295 HD
ENDBRANCH  10  12
ENDBRANCH   9  10
ENDBRANCH   8   9
ENDBRANCH   7   8
ENDBRANCH   1   7
BRANCH   4  14
ATOM     14  N   UNL     1       8.360  -1.914  24.874  0.00  0.00    -0.328 N 
BRANCH  14  15
ATOM     15  C   UNL     1       8.564  -2.393  26.260  0.00  0.00    +0.121 C 
BRANCH  15  16
ATOM     16  C   UNL     1       8.338  -3.899  26.451  0.00  0.00    +0.127 C 
ATOM     17 CL   UNL     1       9.647  -4.887  25.749  0.00  0.00    -0.124 Cl
ENDBRANCH  15  16
ENDBRANCH  14  15
BRANCH  14  18
ATOM     18  C   UNL     1       7.320  -2.614  24.095  0.00  0.00    +0.121 C 
BRANCH  18  19
ATOM     19  C   UNL     1       7.863  -3.297  22.835  0.00  0.00    +0.127 C 
ATOM     20 CL   UNL     1       7.422  -5.024  22.758  0.00  0.00    -0.124 Cl
ENDBRANCH  18  19
ENDBRANCH  14  18
ENDBRANCH   4  14
TORSDOF 10
ENDMDL
MODEL 5
REMARK VINA RESULT:      -5.4      5.013      7.788
REMARK  Name = 
REMARK  10 active torsions:
REMARK  status: ('A' for Active; 'I' for Inactive)
REMARK    1  A    between atoms: O_1  and  C_2
REMARK    2  A    between atoms: C_2  and  C_4
REMARK    3  A    between atoms: C_4  and  C_5
REMARK    4  A    between atoms: C_5  and  C_6
REMARK    5  A    between atoms: C_6  and  C_7
REMARK    6  A    between atoms: C_10  and  N_13
REMARK    7  A    between atoms: N_13  and  C_14
REMARK    8  A    between atoms: N_13  and  C_17
REMARK    9  A    between atoms: C_14  and  C_15
REMARK   10  A    between atoms: C_17  and  C_18
REMARK                            x       y       z     vdW  Elec       q    Type
REMARK                         _______ _______ _______ _____ _____    ______ ____
ROOT
ATOM      1  C   UNL     1       9.932   1.606  22.942  0.00  0.00    -0.047 A 
ATOM      2  C   UNL     1       9.740   1.079  24.219  0.00  0.00    +0.005 A 
ATOM      3  C   UNL     1       9.359  -0.260  24.386  0.00  0.00    +0.023 A 
ATOM      4  C   UNL     1       9.145  -1.120  23.296  0.00  0.00    +0.030 A 
ATOM      5  C   UNL     1       9.400  -0.588  22.026  0.00  0.00    +0.023 A 
ATOM      6  C   UNL     1       9.783   0.749  21.848  0.00  0.00    +0.005 A 
ENDROOT
BRANCH   1   7
ATOM      7  C   UNL     1      10.293   3.060  22.751  0.00  0.00    +0.035 C 
BRANCH   7   8
ATOM      8  C   UNL     1      11.617   3.426  23.431  0.00  0.00    +0.016 C 
BRANCH   8   9
ATOM      9  C   UNL     1      11.875   4.933  23.401  0.00  0.00    +0.121 C 
BRANCH   9  10
ATOM     10  C   UNL     1      13.141   5.267  22.644  0.00  0.00    +0.305 C 
ATOM     11  O   UNL     1      13.190   5.807  21.551  0.00  0.00    -0.251 OA
BRANCH  10  12
ATOM     12  O   UNL     1      14.254   4.899  23.316  0.00  0.00    -0.481 OA
ATOM     13  H   UNL     1      14.478   3.953  23.226  0.00  0.00    +0.295 HD
ENDBRANCH  10  12
ENDBRANCH   9  10
ENDBRANCH   8   9
ENDBRANCH   7   8
ENDBRANCH   1   7
BRANCH   4  14
ATOM     14  N   UNL     1       8.687  -2.422  23.503  0.00  0.00    -0.328 N 
BRANCH  14  15
ATOM     15  C   UNL     1       7.845  -3.017  22.439  0.00  0.00    +0.121 C 
BRANCH  15  16
ATOM     16  C   UNL     1       6.337  -2.812  22.634  0.00  0.00    +0.127 C 
ATOM     17 CL   UNL     1       5.948  -1.952  24.148  0.00  0.00    -0.124 Cl
ENDBRANCH  15  16
ENDBRANCH  14  15
BRANCH  14  18
ATOM     18  C   UNL     1       9.420  -3.378  24.357  0.00  0.00    +0.121 C 
BRANCH  18  19
ATOM     19  C   UNL     1       8.662  -3.752  25.635  0.00  0.00    +0.127 C 
ATOM     20 CL   UNL     1       7.606  -5.172  25.405  0.00  0.00    -0.124 Cl
ENDBRANCH  18  19
ENDBRANCH  14  18
ENDBRANCH   4  14
TORSDOF 10
ENDMDL
MODEL 6
REMARK VINA RESULT:      -5.4      4.795      7.645
REMARK  Name = 
REMARK  10 active torsions:
REMARK  status: ('A' for Active; 'I' for Inactive)
REMARK    1  A    between atoms: O_1  and  C_2
REMARK    2  A    between atoms: C_2  and  C_4
REMARK    3  A    between atoms: C_4  and  C_5
REMARK    4  A    between atoms: C_5  and  C_6
REMARK    5  A    between atoms: C_6  and  C_7
REMARK    6  A    between atoms: C_10  and  N_13
REMARK    7  A    between atoms: N_13  and  C_14
REMARK    8  A    between atoms: N_13  and  C_17
REMARK    9  A    between atoms: C_14  and  C_15
REMARK   10  A    between atoms: C_17  and  C_18
REMARK                            x       y       z     vdW  Elec       q    Type
REMARK                         _______ _______ _______ _____ _____    ______ ____
ROOT
ATOM      1  C   UNL     1       9.267  -1.044  22.342  0.00  0.00    -0.047 A 
ATOM      2  C   UNL     1       7.916  -1.388  22.284  0.00  0.00    +0.005 A 
ATOM      3  C   UNL     1       7.435  -2.498  22.993  0.00  0.00    +0.023 A 
ATOM      4  C   UNL     1       8.274  -3.311  23.772  0.00  0.00    +0.030 A 
ATOM      5  C   UNL     1       9.614  -2.914  23.864  0.00  0.00    +0.023 A 
ATOM      6  C   UNL     1      10.105  -1.804  23.161  0.00  0.00    +0.005 A 
ENDROOT
BRANCH   1   7
ATOM      7  C   UNL     1       9.803   0.121  21.542  0.00  0.00    +0.035 C 
BRANCH   7   8
ATOM      8  C   UNL     1       9.260   1.466  22.035  0.00  0.00    +0.016 C 
BRANCH   8   9
ATOM      9  C   UNL     1      10.178   2.104  23.079  0.00  0.00    +0.121 C 
BRANCH   9  10
ATOM     10  C   UNL     1       9.582   2.029  24.466  0.00  0.00    +0.305 C 
ATOM     11  O   UNL     1       8.720   2.771  24.907  0.00  0.00    -0.251 OA
BRANCH  10  12
ATOM     12  O   UNL     1      10.112   1.025  25.200  0.00  0.00    -0.481 OA
ATOM     13  H   UNL     1      10.701   1.325  25.917  0.00  0.00    +0.295 HD
ENDBRANCH  10  12
ENDBRANCH   9  10
ENDBRANCH   8   9
ENDBRANCH   7   8
ENDBRANCH   1   7
BRANCH   4  14
ATOM     14  N   UNL     1       7.771  -4.455  24.395  0.00  0.00    -0.328 N 
BRANCH  14  15
ATOM     15  C   UNL     1       6.754  -5.234  23.652  0.00  0.00    +0.121 C 
BRANCH  15  16
ATOM     16  C   UNL     1       7.297  -5.976  22.423  0.00  0.00    +0.127 C 
ATOM     17 CL   UNL     1       6.338  -5.664  20.951  0.00  0.00    -0.124 Cl
ENDBRANCH  15  16
ENDBRANCH  14  15
BRANCH  14  18
ATOM     18  C   UNL     1       8.556  -5.205  25.395  0.00  0.00    +0.121 C 
BRANCH  18  19
ATOM     19  C   UNL     1       7.928  -5.192  26.792  0.00  0.00    +0.127 C 
ATOM     20 CL   UNL     1       6.856  -3.787  27.039  0.00  0.00    -0.124 Cl
ENDBRANCH  18  19
ENDBRANCH  14  18
ENDBRANCH   4  14
TORSDOF 10
ENDMDL
MODEL 7
REMARK VINA RESULT:      -5.4      5.349      7.845
REMARK  Name = 
REMARK  10 active torsions:
REMARK  status: ('A' for Active; 'I' for Inactive)
REMARK    1  A    between atoms: O_1  and  C_2
REMARK    2  A    between atoms: C_2  and  C_4
REMARK    3  A    between atoms: C_4  and  C_5
REMARK    4  A    between atoms: C_5  and  C_6
REMARK    5  A    between atoms: C_6  and  C_7
REMARK    6  A    between atoms: C_10  and  N_13
REMARK    7  A    between atoms: N_13  and  C_14
REMARK    8  A    between atoms: N_13  and  C_17
REMARK    9  A    between atoms: C_14  and  C_15
REMARK   10  A    between atoms: C_17  and  C_18
REMARK                            x       y       z     vdW  Elec       q    Type
REMARK                         _______ _______ _______ _____ _____    ______ ____
ROOT
ATOM      1  C   UNL     1      10.107  -0.207  24.308  0.00  0.00    -0.047 A 
ATOM      2  C   UNL     1      10.216  -0.935  23.123  0.00  0.00    +0.005 A 
ATOM      3  C   UNL     1       9.580  -2.178  22.991  0.00  0.00    +0.023 A 
ATOM      4  C   UNL     1       8.825  -2.747  24.029  0.00  0.00    +0.030 A 
ATOM      5  C   UNL     1       8.679  -1.974  25.188  0.00  0.00    +0.023 A 
ATOM      6  C   UNL     1       9.309  -0.728  25.329  0.00  0.00    +0.005 A 
ENDROOT
BRANCH   1   7
ATOM      7  C   UNL     1      10.830   1.109  24.476  0.00  0.00    +0.035 C 
BRANCH   7   8
ATOM      8  C   UNL     1      10.454   2.124  23.391  0.00  0.00    +0.016 C 
BRANCH   8   9
ATOM      9  C   UNL     1       8.985   2.538  23.481  0.00  0.00    +0.121 C 
BRANCH   9  10
ATOM     10  C   UNL     1       8.301   2.460  22.136  0.00  0.00    +0.305 C 
ATOM     11  O   UNL     1       7.153   2.806  21.903  0.00  0.00    -0.251 OA
BRANCH  10  12
ATOM     12  O   UNL     1       9.108   1.954  21.177  0.00  0.00    -0.481 OA
ATOM     13  H   UNL     1       9.651   1.199  21.472  0.00  0.00    +0.295 HD
ENDBRANCH  10  12
ENDBRANCH   9  10
ENDBRANCH   8   9
ENDBRANCH   7   8
ENDBRANCH   1   7
BRANCH   4  14
ATOM     14  N   UNL     1       8.277  -4.023  23.887  0.00  0.00    -0.328 N 
BRANCH  14  15
ATOM     15  C   UNL     1       8.380  -4.934  25.050  0.00  0.00    +0.121 C 
BRANCH  15  16
ATOM     16  C   UNL     1       7.042  -5.246  25.733  0.00  0.00    +0.127 C 
ATOM     17 CL   UNL     1       7.204  -5.480  27.494  0.00  0.00    -0.124 Cl
ENDBRANCH  15  16
ENDBRANCH  14  15
BRANCH  14  18
ATOM     18  C   UNL     1       7.166  -4.293  22.953  0.00  0.00    +0.121 C 
BRANCH  18  19
ATOM     19  C   UNL     1       7.398  -5.529  22.077  0.00  0.00    +0.127 C 
ATOM     20 CL   UNL     1       6.060  -5.804  20.928  0.00  0.00    -0.124 Cl
ENDBRANCH  18  19
ENDBRANCH  14  18
ENDBRANCH   4  14
TORSDOF 10
ENDMDL
MODEL 8
REMARK VINA RESULT:      -5.4      1.205      2.870
REMARK  Name = 
REMARK  10 active torsions:
REMARK  status: ('A' for Active; 'I' for Inactive)
REMARK    1  A    between atoms: O_1  and  C_2
REMARK    2  A    between atoms: C_2  and  C_4
REMARK    3  A    between atoms: C_4  and  C_5
REMARK    4  A    between atoms: C_5  and  C_6
REMARK    5  A    between atoms: C_6  and  C_7
REMARK    6  A    between atoms: C_10  and  N_13
REMARK    7  A    between atoms: N_13  and  C_14
REMARK    8  A    between atoms: N_13  and  C_17
REMARK    9  A    between atoms: C_14  and  C_15
REMARK   10  A    between atoms: C_17  and  C_18
REMARK                            x       y       z     vdW  Elec       q    Type
REMARK                         _______ _______ _______ _____ _____    ______ ____
ROOT
ATOM      1  C   UNL     1       9.842  -1.122  23.857  0.00  0.00    -0.047 A 
ATOM      2  C   UNL     1      10.261  -0.361  22.766  0.00  0.00    +0.005 A 
ATOM      3  C   UNL     1      10.217   1.039  22.817  0.00  0.00    +0.023 A 
ATOM      4  C   UNL     1       9.746   1.734  23.943  0.00  0.00    +0.030 A 
ATOM      5  C   UNL     1       9.386   0.954  25.049  0.00  0.00    +0.023 A 
ATOM      6  C   UNL     1       9.428  -0.448  25.009  0.00  0.00    +0.005 A 
ENDROOT
BRANCH   1   7
ATOM      7  C   UNL     1       9.839  -2.631  23.792  0.00  0.00    +0.035 C 
BRANCH   7   8
ATOM      8  C   UNL     1       8.446  -3.223  24.035  0.00  0.00    +0.016 C 
BRANCH   8   9
ATOM      9  C   UNL     1       8.517  -4.683  24.483  0.00  0.00    +0.121 C 
BRANCH   9  10
ATOM     10  C   UNL     1       9.369  -4.846  25.721  0.00  0.00    +0.305 C 
ATOM     11  O   UNL     1       9.111  -4.390  26.823  0.00  0.00    -0.251 OA
BRANCH  10  12
ATOM     12  O   UNL     1      10.485  -5.571  25.485  0.00  0.00    -0.481 OA
ATOM     13  H   UNL     1      10.799  -6.080  26.256  0.00  0.00    +0.295 HD
ENDBRANCH  10  12
ENDBRANCH   9  10
ENDBRANCH   8   9
ENDBRANCH   7   8
ENDBRANCH   1   7
BRANCH   4  14
ATOM     14  N   UNL     1       9.641   3.126  23.923  0.00  0.00    -0.328 N 
BRANCH  14  15
ATOM     15  C   UNL     1      10.832   3.885  23.478  0.00  0.00    +0.121 C 
BRANCH  15  16
ATOM     16  C   UNL     1      10.754   5.396  23.734  0.00  0.00    +0.127 C 
ATOM     17 CL   UNL     1      12.312   6.088  24.260  0.00  0.00    -0.124 Cl
ENDBRANCH  15  16
ENDBRANCH  14  15
BRANCH  14  18
ATOM     18  C   UNL     1       8.341   3.805  23.750  0.00  0.00    +0.121 C 
BRANCH  18  19
ATOM     19  C   UNL     1       7.694   3.537  22.388  0.00  0.00    +0.127 C 
ATOM     20 CL   UNL     1       6.548   2.170  22.440  0.00  0.00    -0.124 Cl
ENDBRANCH  18  19
ENDBRANCH  14  18
ENDBRANCH   4  14
TORSDOF 10
ENDMDL
MODEL 9
REMARK VINA RESULT:      -5.3      4.842      7.828
REMARK  Name = 
REMARK  10 active torsions:
REMARK  status: ('A' for Active; 'I' for Inactive)
REMARK    1  A    between atoms: O_1  and  C_2
REMARK    2  A    between atoms: C_2  and  C_4
REMARK    3  A    between atoms: C_4  and  C_5
REMARK    4  A    between atoms: C_5  and  C_6
REMARK    5  A    between atoms: C_6  and  C_7
REMARK    6  A    between atoms: C_10  and  N_13
REMARK    7  A    between atoms: N_13  and  C_14
REMARK    8  A    between atoms: N_13  and  C_17
REMARK    9  A    between atoms: C_14  and  C_15
REMARK   10  A    between atoms: C_17  and  C_18
REMARK                            x       y       z     vdW  Elec       q    Type
REMARK                         _______ _______ _______ _____ _____    ______ ____
ROOT
ATOM      1  C   UNL     1       9.779  -0.765  24.865  0.00  0.00    -0.047 A 
ATOM      2  C   UNL     1       9.787  -1.872  24.017  0.00  0.00    +0.005 A 
ATOM      3  C   UNL     1       9.002  -2.996  24.307  0.00  0.00    +0.023 A 
ATOM      4  C   UNL     1       8.190  -3.069  25.451  0.00  0.00    +0.030 A 
ATOM      5  C   UNL     1       8.151  -1.925  26.258  0.00  0.00    +0.023 A 
ATOM      6  C   UNL     1       8.932  -0.794  25.976  0.00  0.00    +0.005 A 
ENDROOT
BRANCH   1   7
ATOM      7  C   UNL     1      10.661   0.429  24.587  0.00  0.00    +0.035 C 
BRANCH   7   8
ATOM      8  C   UNL     1       9.854   1.719  24.403  0.00  0.00    +0.016 C 
BRANCH   8   9
ATOM      9  C   UNL     1       8.866   1.613  23.240  0.00  0.00    +0.121 C 
BRANCH   9  10
ATOM     10  C   UNL     1       9.573   1.353  21.930  0.00  0.00    +0.305 C 
ATOM     11  O   UNL     1       9.477   0.336  21.262  0.00  0.00    -0.251 OA
BRANCH  10  12
ATOM     12  O   UNL     1      10.351   2.392  21.551  0.00  0.00    -0.481 OA
ATOM     13  H   UNL     1      11.239   2.132  21.240  0.00  0.00    +0.295 HD
ENDBRANCH  10  12
ENDBRANCH   9  10
ENDBRANCH   8   9
ENDBRANCH   7   8
ENDBRANCH   1   7
BRANCH   4  14
ATOM     14  N   UNL     1       7.486  -4.238  25.746  0.00  0.00    -0.328 N 
BRANCH  14  15
ATOM     15  C   UNL     1       6.840  -4.940  24.614  0.00  0.00    +0.121 C 
BRANCH  15  16
ATOM     16  C   UNL     1       5.463  -4.384  24.226  0.00  0.00    +0.127 C 
ATOM     17 CL   UNL     1       5.547  -3.204  22.891  0.00  0.00    -0.124 Cl
ENDBRANCH  15  16
ENDBRANCH  14  15
BRANCH  14  18
ATOM     18  C   UNL     1       7.824  -5.073  26.916  0.00  0.00    +0.121 C 
BRANCH  18  19
ATOM     19  C   UNL     1       6.592  -5.603  27.657  0.00  0.00    +0.127 C 
ATOM     20 CL   UNL     1       5.472  -4.295  28.128  0.00  0.00    -0.124 Cl
ENDBRANCH  18  19
ENDBRANCH  14  18
ENDBRANCH   4  14
TORSDOF 10
ENDMDL
