MODEL 1
REMARK VINA RESULT:      -6.9      0.000      0.000
REMARK  Name = 
REMARK  3 active torsions:
REMARK  status: ('A' for Active; 'I' for Inactive)
REMARK    1  A    between atoms: C_2  and  C_3
REMARK    2  A    between atoms: C_3  and  C_4
REMARK    3  A    between atoms: C_13  and  C_15
REMARK                            x       y       z     vdW  Elec       q    Type
REMARK                         _______ _______ _______ _____ _____    ______ ____
ROOT
ATOM      1  C   UNL     1       6.271  -4.378  23.338  0.00  0.00    +0.056 C 
ATOM      2  C   UNL     1       7.174  -3.377  24.000  0.00  0.00    +0.033 A 
ATOM      3  N   UNL     1       7.646  -2.210  23.456  0.00  0.00    -0.356 N 
ATOM      4  H   UNL     1       7.446  -1.846  22.531  0.00  0.00    +0.166 HD
ATOM      5  C   UNL     1       8.524  -1.605  24.337  0.00  0.00    +0.066 A 
ATOM      6  C   UNL     1       8.545  -2.395  25.479  0.00  0.00    +0.042 A 
ATOM      7  C   UNL     1       7.710  -3.515  25.263  0.00  0.00    +0.058 A 
ATOM      8  C   UNL     1       7.440  -4.658  26.115  0.00  0.00    +0.246 C 
ATOM      9  O   UNL     1       7.924  -4.805  27.230  0.00  0.00    -0.270 OA
ATOM     10  N   UNL     1       6.602  -5.604  25.561  0.00  0.00    -0.311 N 
ATOM     11  H   UNL     1       6.343  -6.322  26.226  0.00  0.00    +0.149 HD
ATOM     12  C   UNL     1       5.706  -5.326  24.440  0.00  0.00    +0.114 C 
ENDROOT
BRANCH   5  13
ATOM     13  C   UNL     1       9.267  -0.388  24.007  0.00  0.00    +0.092 A 
ATOM     14  C   UNL     1      10.281   0.075  24.820  0.00  0.00    +0.049 A 
ATOM     15  C   UNL     1      10.922   1.208  24.388  0.00  0.00    +0.116 A 
ATOM     16  N   UNL     1      10.597   1.845  23.253  0.00  0.00    -0.223 NA
ATOM     17  C   UNL     1       9.610   1.312  22.526  0.00  0.00    +0.213 A 
ATOM     18  N   UNL     1       9.270   1.979  21.366  0.00  0.00    -0.327 N 
ATOM     19  H   UNL     1       9.584   2.940  21.434  0.00  0.00    +0.145 HD
ATOM     20  H   UNL     1       8.295   1.828  21.153  0.00  0.00    +0.145 HD
ATOM     21  N   UNL     1       8.906   0.222  22.858  0.00  0.00    -0.213 NA
ENDBRANCH   5  13
BRANCH   1  22
ATOM     22  C   UNL     1       7.035  -5.121  22.225  0.00  0.00    +0.044 C 
BRANCH  22  23
ATOM     23  C   UNL     1       6.170  -6.092  21.439  0.00  0.00    +0.214 C 
ATOM     24  F   UNL     1       6.119  -5.692  20.140  0.00  0.00    -0.249 F 
ENDBRANCH  22  23
ENDBRANCH   1  22
TORSDOF 3
ENDMDL
MODEL 2
REMARK VINA RESULT:      -6.8      2.595      3.208
REMARK  Name = 
REMARK  3 active torsions:
REMARK  status: ('A' for Active; 'I' for Inactive)
REMARK    1  A    between atoms: C_2  and  C_3
REMARK    2  A    between atoms: C_3  and  C_4
REMARK    3  A    between atoms: C_13  and  C_15
REMARK                            x       y       z     vdW  Elec       q    Type
REMARK                         _______ _______ _______ _____ _____    ______ ____
ROOT
ATOM      1  C   UNL     1       7.396  -5.177  24.247  0.00  0.00    +0.056 C 
ATOM      2  C   UNL     1       7.747  -3.878  23.582  0.00  0.00    +0.033 A 
ATOM      3  N   UNL     1       8.630  -2.933  24.038  0.00  0.00    -0.356 N 
ATOM      4  H   UNL     1       9.185  -2.978  24.885  0.00  0.00    +0.166 HD
ATOM      5  C   UNL     1       8.613  -1.833  23.199  0.00  0.00    +0.066 A 
ATOM      6  C   UNL     1       7.737  -2.137  22.167  0.00  0.00    +0.042 A 
ATOM      7  C   UNL     1       7.181  -3.414  22.413  0.00  0.00    +0.058 A 
ATOM      8  C   UNL     1       6.176  -4.155  21.673  0.00  0.00    +0.246 C 
ATOM      9  O   UNL     1       5.649  -3.747  20.646  0.00  0.00    -0.270 OA
ATOM     10  N   UNL     1       5.826  -5.366  22.233  0.00  0.00    -0.311 N 
ATOM     11  H   UNL     1       5.216  -5.905  21.631  0.00  0.00    +0.149 HD
ATOM     12  C   UNL     1       6.659  -6.073  23.205  0.00  0.00    +0.114 C 
ENDROOT
BRANCH   5  13
ATOM     13  C   UNL     1       9.382  -0.617  23.469  0.00  0.00    +0.092 A 
ATOM     14  C   UNL     1      10.050  -0.442  24.662  0.00  0.00    +0.049 A 
ATOM     15  C   UNL     1      10.760   0.725  24.784  0.00  0.00    +0.116 A 
ATOM     16  N   UNL     1      10.812   1.654  23.817  0.00  0.00    -0.223 NA
ATOM     17  C   UNL     1      10.142   1.388  22.691  0.00  0.00    +0.213 A 
ATOM     18  N   UNL     1      10.188   2.353  21.706  0.00  0.00    -0.327 N 
ATOM     19  H   UNL     1      10.429   3.243  22.126  0.00  0.00    +0.145 HD
ATOM     20  H   UNL     1       9.346   2.320  21.150  0.00  0.00    +0.145 HD
ATOM     21  N   UNL     1       9.405   0.291  22.470  0.00  0.00    -0.213 NA
ENDBRANCH   5  13
BRANCH   1  22
ATOM     22  C   UNL     1       6.568  -4.911  25.519  0.00  0.00    +0.044 C 
BRANCH  22  23
ATOM     23  C   UNL     1       7.398  -4.898  26.792  0.00  0.00    +0.214 C 
ATOM     24  F   UNL     1       8.648  -5.354  26.513  0.00  0.00    -0.249 F 
ENDBRANCH  22  23
ENDBRANCH   1  22
TORSDOF 3
ENDMDL
MODEL 3
REMARK VINA RESULT:      -6.6      1.274      1.829
REMARK  Name = 
REMARK  3 active torsions:
REMARK  status: ('A' for Active; 'I' for Inactive)
REMARK    1  A    between atoms: C_2  and  C_3
REMARK    2  A    between atoms: C_3  and  C_4
REMARK    3  A    between atoms: C_13  and  C_15
REMARK                            x       y       z     vdW  Elec       q    Type
REMARK                         _______ _______ _______ _____ _____    ______ ____
ROOT
ATOM      1  C   UNL     1       5.523  -5.377  23.918  0.00  0.00    +0.056 C 
ATOM      2  C   UNL     1       6.582  -4.367  24.255  0.00  0.00    +0.033 A 
ATOM      3  N   UNL     1       7.046  -3.362  23.445  0.00  0.00    -0.356 N 
ATOM      4  H   UNL     1       6.735  -3.147  22.504  0.00  0.00    +0.166 HD
ATOM      5  C   UNL     1       8.087  -2.700  24.071  0.00  0.00    +0.066 A 
ATOM      6  C   UNL     1       8.225  -3.278  25.325  0.00  0.00    +0.042 A 
ATOM      7  C   UNL     1       7.292  -4.334  25.437  0.00  0.00    +0.058 A 
ATOM      8  C   UNL     1       7.075  -5.281  26.514  0.00  0.00    +0.246 C 
ATOM      9  O   UNL     1       7.711  -5.278  27.561  0.00  0.00    -0.270 OA
ATOM     10  N   UNL     1       6.100  -6.225  26.264  0.00  0.00    -0.311 N 
ATOM     11  H   UNL     1       5.895  -6.789  27.080  0.00  0.00    +0.149 HD
ATOM     12  C   UNL     1       5.067  -6.062  25.243  0.00  0.00    +0.114 C 
ENDROOT
BRANCH   5  13
ATOM     13  C   UNL     1       8.854  -1.634  23.423  0.00  0.00    +0.092 A 
ATOM     14  C   UNL     1       8.800  -1.440  22.059  0.00  0.00    +0.049 A 
ATOM     15  C   UNL     1       9.537  -0.391  21.575  0.00  0.00    +0.116 A 
ATOM     16  N   UNL     1      10.276   0.408  22.360  0.00  0.00    -0.223 NA
ATOM     17  C   UNL     1      10.255   0.149  23.672  0.00  0.00    +0.213 A 
ATOM     18  N   UNL     1      11.027   0.964  24.473  0.00  0.00    -0.327 N 
ATOM     19  H   UNL     1      11.746   1.398  23.907  0.00  0.00    +0.145 HD
ATOM     20  H   UNL     1      11.330   0.458  25.292  0.00  0.00    +0.145 HD
ATOM     21  N   UNL     1       9.584  -0.856  24.250  0.00  0.00    -0.213 NA
ENDBRANCH   5  13
BRANCH   1  22
ATOM     22  C   UNL     1       6.057  -6.371  22.869  0.00  0.00    +0.044 C 
BRANCH  22  23
ATOM     23  C   UNL     1       5.988  -5.846  21.444  0.00  0.00    +0.214 C 
ATOM     24  F   UNL     1       7.247  -5.770  20.937  0.00  0.00    -0.249 F 
ENDBRANCH  22  23
ENDBRANCH   1  22
TORSDOF 3
ENDMDL
MODEL 4
REMARK VINA RESULT:      -6.5      2.939      6.442
REMARK  Name = 
REMARK  3 active torsions:
REMARK  status: ('A' for Active; 'I' for Inactive)
REMARK    1  A    between atoms: C_2  and  C_3
REMARK    2  A    between atoms: C_3  and  C_4
REMARK    3  A    between atoms: C_13  and  C_15
REMARK                            x       y       z     vdW  Elec       q    Type
REMARK                         _______ _______ _______ _____ _____    ______ ____
ROOT
ATOM      1  C   UNL     1      10.193  -0.347  22.880  0.00  0.00    +0.056 C 
ATOM      2  C   UNL     1       9.202  -1.355  23.386  0.00  0.00    +0.033 A 
ATOM      3  N   UNL     1       8.557  -2.315  22.649  0.00  0.00    -0.356 N 
ATOM      4  H   UNL     1       8.662  -2.492  21.657  0.00  0.00    +0.166 HD
ATOM      5  C   UNL     1       7.652  -2.989  23.449  0.00  0.00    +0.066 A 
ATOM      6  C   UNL     1       7.790  -2.467  24.728  0.00  0.00    +0.042 A 
ATOM      7  C   UNL     1       8.751  -1.431  24.687  0.00  0.00    +0.058 A 
ATOM      8  C   UNL     1       9.208  -0.537  25.735  0.00  0.00    +0.246 C 
ATOM      9  O   UNL     1       8.801  -0.578  26.889  0.00  0.00    -0.270 OA
ATOM     10  N   UNL     1      10.132   0.403  25.327  0.00  0.00    -0.311 N 
ATOM     11  H   UNL     1      10.514   0.926  26.105  0.00  0.00    +0.149 HD
ATOM     12  C   UNL     1      10.929   0.271  24.108  0.00  0.00    +0.114 C 
ENDROOT
BRANCH   5  13
ATOM     13  C   UNL     1       6.743  -4.013  22.931  0.00  0.00    +0.092 A 
ATOM     14  C   UNL     1       7.175  -4.965  22.032  0.00  0.00    +0.049 A 
ATOM     15  C   UNL     1       6.239  -5.889  21.644  0.00  0.00    +0.116 A 
ATOM     16  N   UNL     1       4.975  -5.884  22.095  0.00  0.00    -0.223 NA
ATOM     17  C   UNL     1       4.655  -4.929  22.975  0.00  0.00    +0.213 A 
ATOM     18  N   UNL     1       3.350  -4.920  23.426  0.00  0.00    -0.327 N 
ATOM     19  H   UNL     1       2.768  -5.415  22.761  0.00  0.00    +0.145 HD
ATOM     20  H   UNL     1       3.074  -3.979  23.668  0.00  0.00    +0.145 HD
ATOM     21  N   UNL     1       5.482  -3.970  23.410  0.00  0.00    -0.213 NA
ENDBRANCH   5  13
BRANCH   1  22
ATOM     22  C   UNL     1       9.478   0.701  22.006  0.00  0.00    +0.044 C 
BRANCH  22  23
ATOM     23  C   UNL     1       9.770   2.136  22.416  0.00  0.00    +0.214 C 
ATOM     24  F   UNL     1      10.895   2.559  21.780  0.00  0.00    -0.249 F 
ENDBRANCH  22  23
ENDBRANCH   1  22
TORSDOF 3
ENDMDL
MODEL 5
REMARK VINA RESULT:      -6.5      3.148      6.606
REMARK  Name = 
REMARK  3 active torsions:
REMARK  status: ('A' for Active; 'I' for Inactive)
REMARK    1  A    between atoms: C_2  and  C_3
REMARK    2  A    between atoms: C_3  and  C_4
REMARK    3  A    between atoms: C_13  and  C_15
REMARK                            x       y       z     vdW  Elec       q    Type
REMARK                         _______ _______ _______ _____ _____    ______ ____
ROOT
ATOM      1  C   UNL     1       8.931   1.090  21.642  0.00  0.00    +0.056 C 
ATOM      2  C   UNL     1       8.902  -0.182  22.438  0.00  0.00    +0.033 A 
ATOM      3  N   UNL     1       8.154  -1.301  22.172  0.00  0.00    -0.356 N 
ATOM      4  H   UNL     1       7.520  -1.437  21.393  0.00  0.00    +0.166 HD
ATOM      5  C   UNL     1       8.324  -2.229  23.184  0.00  0.00    +0.066 A 
ATOM      6  C   UNL     1       9.250  -1.687  24.064  0.00  0.00    +0.042 A 
ATOM      7  C   UNL     1       9.602  -0.396  23.606  0.00  0.00    +0.058 A 
ATOM      8  C   UNL     1      10.476   0.600  24.197  0.00  0.00    +0.246 C 
ATOM      9  O   UNL     1      11.089   0.432  25.244  0.00  0.00    -0.270 OA
ATOM     10  N   UNL     1      10.553   1.786  23.497  0.00  0.00    -0.311 N 
ATOM     11  H   UNL     1      11.260   2.407  23.871  0.00  0.00    +0.149 HD
ATOM     12  C   UNL     1      10.176   1.915  22.090  0.00  0.00    +0.114 C 
ENDROOT
BRANCH   5  13
ATOM     13  C   UNL     1       7.587  -3.492  23.235  0.00  0.00    +0.092 A 
ATOM     14  C   UNL     1       7.249  -4.076  24.437  0.00  0.00    +0.049 A 
ATOM     15  C   UNL     1       6.531  -5.242  24.355  0.00  0.00    +0.116 A 
ATOM     16  N   UNL     1       6.174  -5.800  23.188  0.00  0.00    -0.223 NA
ATOM     17  C   UNL     1       6.537  -5.153  22.076  0.00  0.00    +0.213 A 
ATOM     18  N   UNL     1       6.179  -5.738  20.879  0.00  0.00    -0.327 N 
ATOM     19  H   UNL     1       6.008  -6.725  21.032  0.00  0.00    +0.145 HD
ATOM     20  H   UNL     1       6.845  -5.493  20.161  0.00  0.00    +0.145 HD
ATOM     21  N   UNL     1       7.250  -4.019  22.039  0.00  0.00    -0.213 NA
ENDBRANCH   5  13
BRANCH   1  22
ATOM     22  C   UNL     1       7.602   1.850  21.813  0.00  0.00    +0.044 C 
BRANCH  22  23
ATOM     23  C   UNL     1       7.769   3.245  22.392  0.00  0.00    +0.214 C 
ATOM     24  F   UNL     1       6.917   4.095  21.758  0.00  0.00    -0.249 F 
ENDBRANCH  22  23
ENDBRANCH   1  22
TORSDOF 3
ENDMDL
MODEL 6
REMARK VINA RESULT:      -6.5      3.856      5.370
REMARK  Name = 
REMARK  3 active torsions:
REMARK  status: ('A' for Active; 'I' for Inactive)
REMARK    1  A    between atoms: C_2  and  C_3
REMARK    2  A    between atoms: C_3  and  C_4
REMARK    3  A    between atoms: C_13  and  C_15
REMARK                            x       y       z     vdW  Elec       q    Type
REMARK                         _______ _______ _______ _____ _____    ______ ____
ROOT
ATOM      1  C   UNL     1       8.834  -0.951  25.643  0.00  0.00    +0.056 C 
ATOM      2  C   UNL     1       9.424   0.040  24.682  0.00  0.00    +0.033 A 
ATOM      3  N   UNL     1       9.720   1.355  24.936  0.00  0.00    -0.356 N 
ATOM      4  H   UNL     1       9.594   1.847  25.813  0.00  0.00    +0.166 HD
ATOM      5  C   UNL     1      10.160   1.967  23.776  0.00  0.00    +0.066 A 
ATOM      6  C   UNL     1      10.190   0.984  22.798  0.00  0.00    +0.042 A 
ATOM      7  C   UNL     1       9.714  -0.223  23.360  0.00  0.00    +0.058 A 
ATOM      8  C   UNL     1       9.493  -1.518  22.745  0.00  0.00    +0.246 C 
ATOM      9  O   UNL     1       9.727  -1.762  21.568  0.00  0.00    -0.270 OA
ATOM     10  N   UNL     1       8.965  -2.474  23.589  0.00  0.00    -0.311 N 
ATOM     11  H   UNL     1       8.938  -3.390  23.160  0.00  0.00    +0.149 HD
ATOM     12  C   UNL     1       9.024  -2.379  25.047  0.00  0.00    +0.114 C 
ENDROOT
BRANCH   5  13
ATOM     13  C   UNL     1      10.468   3.396  23.701  0.00  0.00    +0.092 A 
ATOM     14  C   UNL     1       9.498   4.351  23.928  0.00  0.00    +0.049 A 
ATOM     15  C   UNL     1       9.916   5.655  23.859  0.00  0.00    +0.116 A 
ATOM     16  N   UNL     1      11.183   6.004  23.586  0.00  0.00    -0.223 NA
ATOM     17  C   UNL     1      12.053   5.007  23.394  0.00  0.00    +0.213 A 
ATOM     18  N   UNL     1      13.351   5.372  23.099  0.00  0.00    -0.327 N 
ATOM     19  H   UNL     1      13.354   6.318  22.738  0.00  0.00    +0.145 HD
ATOM     20  H   UNL     1      13.790   4.661  22.532  0.00  0.00    +0.145 HD
ATOM     21  N   UNL     1      11.752   3.702  23.422  0.00  0.00    -0.213 NA
ENDBRANCH   5  13
BRANCH   1  22
ATOM     22  C   UNL     1       7.361  -0.598  25.926  0.00  0.00    +0.044 C 
BRANCH  22  23
ATOM     23  C   UNL     1       7.147   0.091  27.263  0.00  0.00    +0.214 C 
ATOM     24  F   UNL     1       8.237  -0.115  28.049  0.00  0.00    -0.249 F 
ENDBRANCH  22  23
ENDBRANCH   1  22
TORSDOF 3
ENDMDL
MODEL 7
REMARK VINA RESULT:      -6.5      3.277      6.456
REMARK  Name = 
REMARK  3 active torsions:
REMARK  status: ('A' for Active; 'I' for Inactive)
REMARK    1  A    between atoms: C_2  and  C_3
REMARK    2  A    between atoms: C_3  and  C_4
REMARK    3  A    between atoms: C_13  and  C_15
REMARK                            x       y       z     vdW  Elec       q    Type
REMARK                         _______ _______ _______ _____ _____    ______ ____
ROOT
ATOM      1  C   UNL     1      10.280   0.906  23.279  0.00  0.00    +0.056 C 
ATOM      2  C   UNL     1       9.508   0.156  24.325  0.00  0.00    +0.033 A 
ATOM      3  N   UNL     1       9.514  -1.199  24.537  0.00  0.00    -0.356 N 
ATOM      4  H   UNL     1      10.050  -1.892  24.026  0.00  0.00    +0.166 HD
ATOM      5  C   UNL     1       8.604  -1.522  25.528  0.00  0.00    +0.066 A 
ATOM      6  C   UNL     1       8.068  -0.324  25.977  0.00  0.00    +0.042 A 
ATOM      7  C   UNL     1       8.622   0.729  25.213  0.00  0.00    +0.058 A 
ATOM      8  C   UNL     1       8.348   2.154  25.246  0.00  0.00    +0.246 C 
ATOM      9  O   UNL     1       7.549   2.675  26.014  0.00  0.00    -0.270 OA
ATOM     10  N   UNL     1       9.043   2.896  24.313  0.00  0.00    -0.311 N 
ATOM     11  H   UNL     1       8.917   3.891  24.445  0.00  0.00    +0.149 HD
ATOM     12  C   UNL     1      10.257   2.421  23.651  0.00  0.00    +0.114 C 
ENDROOT
BRANCH   5  13
ATOM     13  C   UNL     1       8.313  -2.902  25.919  0.00  0.00    +0.092 A 
ATOM     14  C   UNL     1       7.188  -3.217  26.652  0.00  0.00    +0.049 A 
ATOM     15  C   UNL     1       7.009  -4.547  26.930  0.00  0.00    +0.116 A 
ATOM     16  N   UNL     1       7.864  -5.501  26.528  0.00  0.00    -0.223 NA
ATOM     17  C   UNL     1       8.918  -5.099  25.811  0.00  0.00    +0.213 A 
ATOM     18  N   UNL     1       9.802  -6.081  25.412  0.00  0.00    -0.327 N 
ATOM     19  H   UNL     1       9.693  -6.887  26.016  0.00  0.00    +0.145 HD
ATOM     20  H   UNL     1      10.730  -5.696  25.322  0.00  0.00    +0.145 HD
ATOM     21  N   UNL     1       9.199  -3.828  25.495  0.00  0.00    -0.213 NA
ENDBRANCH   5  13
BRANCH   1  22
ATOM     22  C   UNL     1       9.699   0.612  21.883  0.00  0.00    +0.044 C 
BRANCH  22  23
ATOM     23  C   UNL     1       8.569   1.547  21.485  0.00  0.00    +0.214 C 
ATOM     24  F   UNL     1       7.400   1.074  21.995  0.00  0.00    -0.249 F 
ENDBRANCH  22  23
ENDBRANCH   1  22
TORSDOF 3
ENDMDL
MODEL 8
REMARK VINA RESULT:      -6.3      1.966      2.628
REMARK  Name = 
REMARK  3 active torsions:
REMARK  status: ('A' for Active; 'I' for Inactive)
REMARK    1  A    between atoms: C_2  and  C_3
REMARK    2  A    between atoms: C_3  and  C_4
REMARK    3  A    between atoms: C_13  and  C_15
REMARK                            x       y       z     vdW  Elec       q    Type
REMARK                         _______ _______ _______ _____ _____    ______ ____
ROOT
ATOM      1  C   UNL     1       6.682  -3.881  26.414  0.00  0.00    +0.056 C 
ATOM      2  C   UNL     1       7.499  -3.023  25.493  0.00  0.00    +0.033 A 
ATOM      3  N   UNL     1       7.148  -1.800  24.982  0.00  0.00    -0.356 N 
ATOM      4  H   UNL     1       6.290  -1.290  25.160  0.00  0.00    +0.166 HD
ATOM      5  C   UNL     1       8.119  -1.366  24.097  0.00  0.00    +0.066 A 
ATOM      6  C   UNL     1       9.123  -2.324  24.113  0.00  0.00    +0.042 A 
ATOM      7  C   UNL     1       8.729  -3.372  24.976  0.00  0.00    +0.058 A 
ATOM      8  C   UNL     1       9.389  -4.626  25.287  0.00  0.00    +0.246 C 
ATOM      9  O   UNL     1      10.471  -4.960  24.820  0.00  0.00    -0.270 OA
ATOM     10  N   UNL     1       8.687  -5.450  26.144  0.00  0.00    -0.311 N 
ATOM     11  H   UNL     1       9.229  -6.255  26.431  0.00  0.00    +0.149 HD
ATOM     12  C   UNL     1       7.616  -4.974  27.018  0.00  0.00    +0.114 C 
ENDROOT
BRANCH   5  13
ATOM     13  C   UNL     1       7.990  -0.134  23.318  0.00  0.00    +0.092 A 
ATOM     14  C   UNL     1       6.759   0.444  23.091  0.00  0.00    +0.049 A 
ATOM     15  C   UNL     1       6.770   1.612  22.373  0.00  0.00    +0.116 A 
ATOM     16  N   UNL     1       7.897   2.174  21.907  0.00  0.00    -0.223 NA
ATOM     17  C   UNL     1       9.042   1.546  22.190  0.00  0.00    +0.213 A 
ATOM     18  N   UNL     1      10.197   2.120  21.697  0.00  0.00    -0.327 N 
ATOM     19  H   UNL     1       9.959   2.723  20.919  0.00  0.00    +0.145 HD
ATOM     20  H   UNL     1      10.894   1.409  21.532  0.00  0.00    +0.145 HD
ATOM     21  N   UNL     1       9.147   0.395  22.868  0.00  0.00    -0.213 NA
ENDBRANCH   5  13
BRANCH   1  22
ATOM     22  C   UNL     1       5.471  -4.463  25.659  0.00  0.00    +0.044 C 
BRANCH  22  23
ATOM     23  C   UNL     1       5.808  -4.958  24.262  0.00  0.00    +0.214 C 
ATOM     24  F   UNL     1       5.092  -4.244  23.352  0.00  0.00    -0.249 F 
ENDBRANCH  22  23
ENDBRANCH   1  22
TORSDOF 3
ENDMDL
MODEL 9
REMARK VINA RESULT:      -6.3      2.792      3.514
REMARK  Name = 
REMARK  3 active torsions:
REMARK  status: ('A' for Active; 'I' for Inactive)
REMARK    1  A    between atoms: C_2  and  C_3
REMARK    2  A    between atoms: C_3  and  C_4
REMARK    3  A    between atoms: C_13  and  C_15
REMARK                            x       y       z     vdW  Elec       q    Type
REMARK                         _______ _______ _______ _____ _____    ______ ____
ROOT
ATOM      1  C   UNL     1       8.294  -4.833  24.033  0.00  0.00    +0.056 C 
ATOM      2  C   UNL     1       8.173  -3.428  23.519  0.00  0.00    +0.033 A 
ATOM      3  N   UNL     1       8.875  -2.331  23.952  0.00  0.00    -0.356 N 
ATOM      4  H   UNL     1       9.585  -2.311  24.674  0.00  0.00    +0.166 HD
ATOM      5  C   UNL     1       8.418  -1.198  23.303  0.00  0.00    +0.066 A 
ATOM      6  C   UNL     1       7.449  -1.621  22.404  0.00  0.00    +0.042 A 
ATOM      7  C   UNL     1       7.283  -3.018  22.549  0.00  0.00    +0.058 A 
ATOM      8  C   UNL     1       6.359  -3.923  21.892  0.00  0.00    +0.246 C 
ATOM      9  O   UNL     1       5.549  -3.571  21.044  0.00  0.00    -0.270 OA
ATOM     10  N   UNL     1       6.437  -5.234  22.316  0.00  0.00    -0.311 N 
ATOM     11  H   UNL     1       5.866  -5.853  21.755  0.00  0.00    +0.149 HD
ATOM     12  C   UNL     1       7.599  -5.785  23.012  0.00  0.00    +0.114 C 
ENDROOT
BRANCH   5  13
ATOM     13  C   UNL     1       8.906   0.147  23.615  0.00  0.00    +0.092 A 
ATOM     14  C   UNL     1       9.964   0.702  22.926  0.00  0.00    +0.049 A 
ATOM     15  C   UNL     1      10.308   1.978  23.288  0.00  0.00    +0.116 A 
ATOM     16  N   UNL     1       9.673   2.662  24.252  0.00  0.00    -0.223 NA
ATOM     17  C   UNL     1       8.651   2.045  24.854  0.00  0.00    +0.213 A 
ATOM     18  N   UNL     1       8.010   2.747  25.854  0.00  0.00    -0.327 N 
ATOM     19  H   UNL     1       8.632   3.467  26.201  0.00  0.00    +0.145 HD
ATOM     20  H   UNL     1       7.623   2.107  26.532  0.00  0.00    +0.145 HD
ATOM     21  N   UNL     1       8.239   0.797  24.591  0.00  0.00    -0.213 NA
ENDBRANCH   5  13
BRANCH   1  22
ATOM     22  C   UNL     1       7.706  -4.927  25.454  0.00  0.00    +0.044 C 
BRANCH  22  23
ATOM     23  C   UNL     1       8.756  -4.859  26.552  0.00  0.00    +0.214 C 
ATOM     24  F   UNL     1       9.989  -5.000  25.996  0.00  0.00    -0.249 F 
ENDBRANCH  22  23
ENDBRANCH   1  22
TORSDOF 3
ENDMDL
