MODEL 1
REMARK VINA RESULT:      -4.3      0.000      0.000
REMARK  Name = 
REMARK  4 active torsions:
REMARK  status: ('A' for Active; 'I' for Inactive)
REMARK    1  A    between atoms: C_1  and  C_2
REMARK    2  A    between atoms: C_2  and  C_3
REMARK    3  A    between atoms: C_5  and  C_9
REMARK    4  A    between atoms: C_9  and  O_10
REMARK                            x       y       z     vdW  Elec       q    Type
REMARK                         _______ _______ _______ _____ _____    ______ ____
ROOT
ATOM      1  C   UNK     1       8.977   2.445  24.692  0.00  0.00    +0.039 C 
ATOM      2  C   UNK     1       9.567   1.265  23.909  0.00  0.00    +0.061 C 
ATOM      3  S   UNK     1       9.890   1.792  22.205  0.00  0.00    -0.137 S 
ATOM      4  C   UNK     1       9.228   0.292  21.448  0.00  0.00    +0.101 C 
ATOM      5  C   UNK     1       8.784  -0.609  22.592  0.00  0.00    +0.174 C 
ATOM      6  N   UNK     1       8.576   0.166  23.861  0.00  0.00    -0.290 NA
ATOM      7  H   UNK     1       7.662   0.619  23.762  0.00  0.00    +0.124 HD
ATOM      8  C   UNK     1      10.882   0.827  24.564  0.00  0.00    +0.039 C 
ENDROOT
BRANCH   5   9
ATOM      9  C   UNK     1       9.729  -1.789  22.842  0.00  0.00    +0.323 C 
ATOM     10  O   UNK     1       9.638  -2.588  23.759  0.00  0.00    -0.249 OA
BRANCH   9  11
ATOM     11  O   UNK     1      10.759  -1.791  21.955  0.00  0.00    -0.480 OA
ATOM     12  H   UNK     1      10.583  -1.065  21.309  0.00  0.00    +0.295 HD
ENDBRANCH   9  11
ENDBRANCH   5   9
TORSDOF 2
ENDMDL
MODEL 2
REMARK VINA RESULT:      -4.3      4.369      5.797
REMARK  Name = 
REMARK  4 active torsions:
REMARK  status: ('A' for Active; 'I' for Inactive)
REMARK    1  A    between atoms: C_1  and  C_2
REMARK    2  A    between atoms: C_2  and  C_3
REMARK    3  A    between atoms: C_5  and  C_9
REMARK    4  A    between atoms: C_9  and  O_10
REMARK                            x       y       z     vdW  Elec       q    Type
REMARK                         _______ _______ _______ _____ _____    ______ ____
ROOT
ATOM      1  C   UNK     1       7.348  -5.875  22.209  0.00  0.00    +0.039 C 
ATOM      2  C   UNK     1       7.513  -4.940  23.414  0.00  0.00    +0.061 C 
ATOM      3  S   UNK     1       7.709  -3.240  22.816  0.00  0.00    -0.137 S 
ATOM      4  C   UNK     1       9.054  -2.829  23.950  0.00  0.00    +0.101 C 
ATOM      5  C   UNK     1       9.295  -4.068  24.800  0.00  0.00    +0.174 C 
ATOM      6  N   UNK     1       8.745  -5.304  24.150  0.00  0.00    -0.290 NA
ATOM      7  H   UNK     1       9.429  -5.568  23.434  0.00  0.00    +0.124 HD
ATOM      8  C   UNK     1       6.265  -5.027  24.299  0.00  0.00    +0.039 C 
ENDROOT
BRANCH   5   9
ATOM      9  C   UNK     1       8.761  -3.942  26.231  0.00  0.00    +0.323 C 
ATOM     10  O   UNK     1       8.005  -3.073  26.631  0.00  0.00    -0.249 OA
BRANCH   9  11
ATOM     11  O   UNK     1       9.313  -4.880  27.047  0.00  0.00    -0.480 OA
ATOM     12  H   UNK     1       8.957  -5.755  26.759  0.00  0.00    +0.295 HD
ENDBRANCH   9  11
ENDBRANCH   5   9
TORSDOF 2
ENDMDL
MODEL 3
REMARK VINA RESULT:      -4.2      2.299      2.816
REMARK  Name = 
REMARK  4 active torsions:
REMARK  status: ('A' for Active; 'I' for Inactive)
REMARK    1  A    between atoms: C_1  and  C_2
REMARK    2  A    between atoms: C_2  and  C_3
REMARK    3  A    between atoms: C_5  and  C_9
REMARK    4  A    between atoms: C_9  and  O_10
REMARK                            x       y       z     vdW  Elec       q    Type
REMARK                         _______ _______ _______ _____ _____    ______ ____
ROOT
ATOM      1  C   UNK     1       7.295   3.916  22.203  0.00  0.00    +0.039 C 
ATOM      2  C   UNK     1       8.018   2.627  22.615  0.00  0.00    +0.061 C 
ATOM      3  S   UNK     1       8.958   2.939  24.133  0.00  0.00    -0.137 S 
ATOM      4  C   UNK     1      10.439   2.064  23.584  0.00  0.00    +0.101 C 
ATOM      5  C   UNK     1      10.130   1.521  22.196  0.00  0.00    +0.174 C 
ATOM      6  N   UNK     1       8.983   2.249  21.557  0.00  0.00    -0.290 NA
ATOM      7  H   UNK     1       9.374   3.129  21.209  0.00  0.00    +0.124 HD
ATOM      8  C   UNK     1       6.985   1.525  22.874  0.00  0.00    +0.039 C 
ENDROOT
BRANCH   5   9
ATOM      9  C   UNK     1       9.876   0.010  22.175  0.00  0.00    +0.323 C 
ATOM     10  O   UNK     1      10.080  -0.757  23.100  0.00  0.00    -0.249 OA
BRANCH   9  11
ATOM     11  O   UNK     1       9.471  -0.403  20.944  0.00  0.00    -0.480 OA
ATOM     12  H   UNK     1       8.554  -0.062  20.813  0.00  0.00    +0.295 HD
ENDBRANCH   9  11
ENDBRANCH   5   9
TORSDOF 2
ENDMDL
MODEL 4
REMARK VINA RESULT:      -4.0      1.645      2.113
REMARK  Name = 
REMARK  4 active torsions:
REMARK  status: ('A' for Active; 'I' for Inactive)
REMARK    1  A    between atoms: C_1  and  C_2
REMARK    2  A    between atoms: C_2  and  C_3
REMARK    3  A    between atoms: C_5  and  C_9
REMARK    4  A    between atoms: C_9  and  O_10
REMARK                            x       y       z     vdW  Elec       q    Type
REMARK                         _______ _______ _______ _____ _____    ______ ____
ROOT
ATOM      1  C   UNK     1      10.655   2.706  23.622  0.00  0.00    +0.039 C 
ATOM      2  C   UNK     1       9.879   1.423  23.298  0.00  0.00    +0.061 C 
ATOM      3  S   UNK     1       8.456   1.299  24.413  0.00  0.00    -0.137 S 
ATOM      4  C   UNK     1       8.679  -0.460  24.757  0.00  0.00    +0.101 C 
ATOM      5  C   UNK     1       9.884  -0.910  23.944  0.00  0.00    +0.174 C 
ATOM      6  N   UNK     1      10.749   0.250  23.545  0.00  0.00    -0.290 NA
ATOM      7  H   UNK     1      11.301   0.483  24.376  0.00  0.00    +0.124 HD
ATOM      8  C   UNK     1       9.385   1.480  21.848  0.00  0.00    +0.039 C 
ENDROOT
BRANCH   5   9
ATOM      9  C   UNK     1       9.514  -1.742  22.711  0.00  0.00    +0.323 C 
ATOM     10  O   UNK     1       8.448  -2.307  22.532  0.00  0.00    -0.249 OA
BRANCH   9  11
ATOM     11  O   UNK     1      10.568  -1.856  21.860  0.00  0.00    -0.480 OA
ATOM     12  H   UNK     1      11.013  -2.713  22.068  0.00  0.00    +0.295 HD
ENDBRANCH   9  11
ENDBRANCH   5   9
TORSDOF 2
ENDMDL
MODEL 5
REMARK VINA RESULT:      -4.0      2.781      3.503
REMARK  Name = 
REMARK  4 active torsions:
REMARK  status: ('A' for Active; 'I' for Inactive)
REMARK    1  A    between atoms: C_1  and  C_2
REMARK    2  A    between atoms: C_2  and  C_3
REMARK    3  A    between atoms: C_5  and  C_9
REMARK    4  A    between atoms: C_9  and  O_10
REMARK                            x       y       z     vdW  Elec       q    Type
REMARK                         _______ _______ _______ _____ _____    ______ ____
ROOT
ATOM      1  C   UNK     1      10.013  -2.209  23.619  0.00  0.00    +0.039 C 
ATOM      2  C   UNK     1       9.545  -0.749  23.569  0.00  0.00    +0.061 C 
ATOM      3  S   UNK     1       7.825  -0.663  24.136  0.00  0.00    -0.137 S 
ATOM      4  C   UNK     1       7.288   0.470  22.837  0.00  0.00    +0.101 C 
ATOM      5  C   UNK     1       8.516   0.771  21.991  0.00  0.00    +0.174 C 
ATOM      6  N   UNK     1       9.581  -0.272  22.167  0.00  0.00    -0.290 NA
ATOM      7  H   UNK     1       9.287  -1.068  21.594  0.00  0.00    +0.124 HD
ATOM      8  C   UNK     1      10.427   0.100  24.491  0.00  0.00    +0.039 C 
ENDROOT
BRANCH   5   9
ATOM      9  C   UNK     1       9.098   2.168  22.232  0.00  0.00    +0.323 C 
ATOM     10  O   UNK     1       8.548   3.069  22.843  0.00  0.00    -0.249 OA
BRANCH   9  11
ATOM     11  O   UNK     1      10.290   2.321  21.595  0.00  0.00    -0.480 OA
ATOM     12  H   UNK     1      10.163   3.026  20.915  0.00  0.00    +0.295 HD
ENDBRANCH   9  11
ENDBRANCH   5   9
TORSDOF 2
ENDMDL
MODEL 6
REMARK VINA RESULT:      -4.0      5.601      6.275
REMARK  Name = 
REMARK  4 active torsions:
REMARK  status: ('A' for Active; 'I' for Inactive)
REMARK    1  A    between atoms: C_1  and  C_2
REMARK    2  A    between atoms: C_2  and  C_3
REMARK    3  A    between atoms: C_5  and  C_9
REMARK    4  A    between atoms: C_9  and  O_10
REMARK                            x       y       z     vdW  Elec       q    Type
REMARK                         _______ _______ _______ _____ _____    ______ ____
ROOT
ATOM      1  C   UNK     1       4.974  -3.661  24.652  0.00  0.00    +0.039 C 
ATOM      2  C   UNK     1       6.295  -4.415  24.856  0.00  0.00    +0.061 C 
ATOM      3  S   UNK     1       6.070  -5.654  26.159  0.00  0.00    -0.137 S 
ATOM      4  C   UNK     1       7.637  -5.301  26.984  0.00  0.00    +0.101 C 
ATOM      5  C   UNK     1       8.315  -4.207  26.172  0.00  0.00    +0.174 C 
ATOM      6  N   UNK     1       7.335  -3.464  25.312  0.00  0.00    -0.290 NA
ATOM      7  H   UNK     1       6.857  -2.809  25.938  0.00  0.00    +0.124 HD
ATOM      8  C   UNK     1       6.687  -5.116  23.550  0.00  0.00    +0.039 C 
ENDROOT
BRANCH   5   9
ATOM      9  C   UNK     1       9.486  -4.713  25.323  0.00  0.00    +0.323 C 
ATOM     10  O   UNK     1      10.057  -4.078  24.452  0.00  0.00    -0.249 OA
BRANCH   9  11
ATOM     11  O   UNK     1       9.765  -6.015  25.596  0.00  0.00    -0.480 OA
ATOM     12  H   UNK     1      10.478  -6.019  26.279  0.00  0.00    +0.295 HD
ENDBRANCH   9  11
ENDBRANCH   5   9
TORSDOF 2
ENDMDL
MODEL 7
REMARK VINA RESULT:      -4.0      2.769      3.115
REMARK  Name = 
REMARK  4 active torsions:
REMARK  status: ('A' for Active; 'I' for Inactive)
REMARK    1  A    between atoms: C_1  and  C_2
REMARK    2  A    between atoms: C_2  and  C_3
REMARK    3  A    between atoms: C_5  and  C_9
REMARK    4  A    between atoms: C_9  and  O_10
REMARK                            x       y       z     vdW  Elec       q    Type
REMARK                         _______ _______ _______ _____ _____    ______ ____
ROOT
ATOM      1  C   UNK     1      11.553   3.734  23.357  0.00  0.00    +0.039 C 
ATOM      2  C   UNK     1      10.393   2.729  23.364  0.00  0.00    +0.061 C 
ATOM      3  S   UNK     1      10.942   1.203  24.175  0.00  0.00    -0.137 S 
ATOM      4  C   UNK     1      10.189   0.100  22.959  0.00  0.00    +0.101 C 
ATOM      5  C   UNK     1       9.493   0.991  21.941  0.00  0.00    +0.174 C 
ATOM      6  N   UNK     1      10.030   2.392  21.968  0.00  0.00    -0.290 NA
ATOM      7  H   UNK     1      10.913   2.361  21.451  0.00  0.00    +0.124 HD
ATOM      8  C   UNK     1       9.212   3.321  24.141  0.00  0.00    +0.039 C 
ENDROOT
BRANCH   5   9
ATOM      9  C   UNK     1       7.967   1.006  22.084  0.00  0.00    +0.323 C 
ATOM     10  O   UNK     1       7.301   0.162  22.658  0.00  0.00    -0.249 OA
BRANCH   9  11
ATOM     11  O   UNK     1       7.420   2.047  21.402  0.00  0.00    -0.480 OA
ATOM     12  H   UNK     1       7.988   2.835  21.577  0.00  0.00    +0.295 HD
ENDBRANCH   9  11
ENDBRANCH   5   9
TORSDOF 2
ENDMDL
MODEL 8
REMARK VINA RESULT:      -3.9      2.594      3.152
REMARK  Name = 
REMARK  4 active torsions:
REMARK  status: ('A' for Active; 'I' for Inactive)
REMARK    1  A    between atoms: C_1  and  C_2
REMARK    2  A    between atoms: C_2  and  C_3
REMARK    3  A    between atoms: C_5  and  C_9
REMARK    4  A    between atoms: C_9  and  O_10
REMARK                            x       y       z     vdW  Elec       q    Type
REMARK                         _______ _______ _______ _____ _____    ______ ____
ROOT
ATOM      1  C   UNK     1       8.787  -0.739  26.112  0.00  0.00    +0.039 C 
ATOM      2  C   UNK     1       8.831  -0.554  24.589  0.00  0.00    +0.061 C 
ATOM      3  S   UNK     1       9.164  -2.157  23.812  0.00  0.00    -0.137 S 
ATOM      4  C   UNK     1      10.367  -1.512  22.630  0.00  0.00    +0.101 C 
ATOM      5  C   UNK     1      10.453  -0.013  22.876  0.00  0.00    +0.174 C 
ATOM      6  N   UNK     1       9.946   0.356  24.240  0.00  0.00    -0.290 NA
ATOM      7  H   UNK     1      10.705   0.128  24.889  0.00  0.00    +0.124 HD
ATOM      8  C   UNK     1       7.478  -0.023  24.102  0.00  0.00    +0.039 C 
ENDROOT
BRANCH   5   9
ATOM      9  C   UNK     1       9.746   0.825  21.805  0.00  0.00    +0.323 C 
ATOM     10  O   UNK     1       8.921   0.409  21.010  0.00  0.00    -0.249 OA
BRANCH   9  11
ATOM     11  O   UNK     1      10.225   2.098  21.781  0.00  0.00    -0.480 OA
ATOM     12  H   UNK     1      10.849   2.155  21.018  0.00  0.00    +0.295 HD
ENDBRANCH   9  11
ENDBRANCH   5   9
TORSDOF 2
ENDMDL
MODEL 9
REMARK VINA RESULT:      -3.9      2.323      2.716
REMARK  Name = 
REMARK  4 active torsions:
REMARK  status: ('A' for Active; 'I' for Inactive)
REMARK    1  A    between atoms: C_1  and  C_2
REMARK    2  A    between atoms: C_2  and  C_3
REMARK    3  A    between atoms: C_5  and  C_9
REMARK    4  A    between atoms: C_9  and  O_10
REMARK                            x       y       z     vdW  Elec       q    Type
REMARK                         _______ _______ _______ _____ _____    ______ ____
ROOT
ATOM      1  C   UNK     1       8.650  -1.610  26.368  0.00  0.00    +0.039 C 
ATOM      2  C   UNK     1       8.777  -0.924  25.002  0.00  0.00    +0.061 C 
ATOM      3  S   UNK     1       7.292   0.070  24.702  0.00  0.00    -0.137 S 
ATOM      4  C   UNK     1       7.102  -0.446  22.982  0.00  0.00    +0.101 C 
ATOM      5  C   UNK     1       8.258  -1.391  22.684  0.00  0.00    +0.174 C 
ATOM      6  N   UNK     1       8.851  -1.956  23.942  0.00  0.00    -0.290 NA
ATOM      7  H   UNK     1       8.215  -2.703  24.237  0.00  0.00    +0.124 HD
ATOM      8  C   UNK     1      10.008  -0.011  25.004  0.00  0.00    +0.039 C 
ENDROOT
BRANCH   5   9
ATOM      9  C   UNK     1       9.354  -0.762  21.818  0.00  0.00    +0.323 C 
ATOM     10  O   UNK     1       9.286   0.323  21.266  0.00  0.00    -0.249 OA
BRANCH   9  11
ATOM     11  O   UNK     1      10.403  -1.613  21.658  0.00  0.00    -0.480 OA
ATOM     12  H   UNK     1      10.877  -1.332  20.839  0.00  0.00    +0.295 HD
ENDBRANCH   9  11
ENDBRANCH   5   9
TORSDOF 2
ENDMDL
