MODEL 1
REMARK VINA RESULT:      -7.3      0.000      0.000
REMARK  Name = 
REMARK  9 active torsions:
REMARK  status: ('A' for Active; 'I' for Inactive)
REMARK    1  A    between atoms: C_1  and  C_2
REMARK    2  A    between atoms: C_2  and  C_3
REMARK    3  A    between atoms: N_5  and  C_6
REMARK    4  A    between atoms: N_5  and  C_22
REMARK    5  A    between atoms: N_9  and  C_10
REMARK    6  A    between atoms: C_10  and  C_11
REMARK    7  A    between atoms: C_11  and  O_12
REMARK    8  A    between atoms: C_11  and  C_13
REMARK    9  A    between atoms: C_20  and  C_21
REMARK                            x       y       z     vdW  Elec       q    Type
REMARK                         _______ _______ _______ _____ _____    ______ ____
ROOT
ATOM      1  C   UNL     1       8.236  -2.435  22.643  0.00  0.00    +0.087 C 
ATOM      2  C   UNL     1       9.392  -1.450  22.971  0.00  0.00    +0.021 C 
ATOM      3  C   UNL     1       9.765  -0.540  21.789  0.00  0.00    +0.010 C 
ATOM      4  C   UNL     1       9.052  -0.648  24.242  0.00  0.00    +0.089 C 
ATOM      5  N   UNL     1       7.759   0.041  24.247  0.00  0.00    -0.299 NA
ATOM      6  C   UNL     1       6.661  -0.813  23.799  0.00  0.00    +0.086 C 
ATOM      7  C   UNL     1       6.948  -1.583  22.506  0.00  0.00    +0.038 C 
ENDROOT
BRANCH   1   9
ATOM      8  C   UNL     1       9.059  -4.144  24.401  0.00  0.00    +0.220 C 
ATOM      9  N   UNL     1       8.040  -3.602  23.598  0.00  0.00    -0.268 N 
ATOM     10  O   UNL     1      10.220  -3.736  24.424  0.00  0.00    -0.275 OA
BRANCH   9  11
ATOM     11  C   UNL     1       6.858  -4.375  23.383  0.00  0.00    +0.037 A 
ATOM     12  C   UNL     1       5.746  -4.229  24.218  0.00  0.00    +0.023 A 
ATOM     13  C   UNL     1       4.572  -4.940  23.941  0.00  0.00    +0.002 A 
ATOM     14  C   UNL     1       4.519  -5.806  22.847  0.00  0.00    +0.000 A 
ATOM     15  C   UNL     1       5.626  -5.949  22.015  0.00  0.00    +0.002 A 
ATOM     16  C   UNL     1       6.787  -5.227  22.275  0.00  0.00    +0.023 A 
ENDBRANCH   9  11
BRANCH   8  18
ATOM     17  C   UNL     1       8.351  -4.840  26.729  0.00  0.00    +0.013 C 
ATOM     18  C   UNL     1       8.668  -5.307  25.315  0.00  0.00    +0.093 C 
ENDBRANCH   8  18
ENDBRANCH   1   9
BRANCH   5  19
ATOM     19  C   UNL     1       7.716   1.392  23.684  0.00  0.00    +0.120 C 
BRANCH  19  20
ATOM     20  C   UNL     1       7.974   2.572  24.662  0.00  0.00    +0.158 C 
BRANCH  20  21
ATOM     21  C   UNL     1       9.168   3.432  24.284  0.00  0.00    -0.018 A 
ATOM     22  C   UNL     1      10.318   2.885  23.688  0.00  0.00    +0.006 A 
ATOM     23  C   UNL     1      11.384   3.706  23.313  0.00  0.00    +0.000 A 
ATOM     24  C   UNL     1      11.318   5.084  23.520  0.00  0.00    +0.000 A 
ATOM     25  C   UNL     1      10.185   5.640  24.108  0.00  0.00    +0.000 A 
ATOM     26  C   UNL     1       9.123   4.822  24.494  0.00  0.00    +0.006 A 
ENDBRANCH  20  21
BRANCH  20  27
ATOM     27  O   UNL     1       8.143   2.034  25.982  0.00  0.00    -0.386 OA
ATOM     28  H   UNL     1       8.489   2.745  26.543  0.00  0.00    +0.210 HD
ENDBRANCH  20  27
ENDBRANCH  19  20
ENDBRANCH   5  19
TORSDOF 7
ENDMDL
MODEL 2
REMARK VINA RESULT:      -7.1      1.928      3.443
REMARK  Name = 
REMARK  9 active torsions:
REMARK  status: ('A' for Active; 'I' for Inactive)
REMARK    1  A    between atoms: C_1  and  C_2
REMARK    2  A    between atoms: C_2  and  C_3
REMARK    3  A    between atoms: N_5  and  C_6
REMARK    4  A    between atoms: N_5  and  C_22
REMARK    5  A    between atoms: N_9  and  C_10
REMARK    6  A    between atoms: C_10  and  C_11
REMARK    7  A    between atoms: C_11  and  O_12
REMARK    8  A    between atoms: C_11  and  C_13
REMARK    9  A    between atoms: C_20  and  C_21
REMARK                            x       y       z     vdW  Elec       q    Type
REMARK                         _______ _______ _______ _____ _____    ______ ____
ROOT
ATOM      1  C   UNL     1       6.952  -1.524  24.129  0.00  0.00    +0.087 C 
ATOM      2  C   UNL     1       6.869  -0.420  23.038  0.00  0.00    +0.021 C 
ATOM      3  C   UNL     1       6.222   0.881  23.542  0.00  0.00    +0.010 C 
ATOM      4  C   UNL     1       8.263  -0.180  22.427  0.00  0.00    +0.089 C 
ATOM      5  N   UNL     1       9.347   0.099  23.374  0.00  0.00    -0.299 NA
ATOM      6  C   UNL     1       9.367  -0.832  24.500  0.00  0.00    +0.086 C 
ATOM      7  C   UNL     1       8.004  -1.050  25.165  0.00  0.00    +0.038 C 
ENDROOT
BRANCH   1   9
ATOM      8  C   UNL     1       6.719  -3.485  22.459  0.00  0.00    +0.220 C 
ATOM      9  N   UNL     1       7.232  -2.939  23.648  0.00  0.00    -0.268 N 
ATOM     10  O   UNL     1       5.990  -2.881  21.672  0.00  0.00    -0.275 OA
BRANCH   9  11
ATOM     11  C   UNL     1       7.746  -3.830  24.640  0.00  0.00    +0.037 A 
ATOM     12  C   UNL     1       9.090  -4.214  24.629  0.00  0.00    +0.023 A 
ATOM     13  C   UNL     1       9.589  -5.025  25.655  0.00  0.00    +0.002 A 
ATOM     14  C   UNL     1       8.743  -5.464  26.676  0.00  0.00    +0.000 A 
ATOM     15  C   UNL     1       7.405  -5.078  26.688  0.00  0.00    +0.002 A 
ATOM     16  C   UNL     1       6.912  -4.254  25.681  0.00  0.00    +0.023 A 
ENDBRANCH   9  11
BRANCH   8  18
ATOM     17  C   UNL     1       6.172  -5.573  21.138  0.00  0.00    +0.013 C 
ATOM     18  C   UNL     1       7.125  -4.923  22.131  0.00  0.00    +0.093 C 
ENDBRANCH   8  18
ENDBRANCH   1   9
BRANCH   5  19
ATOM     19  C   UNL     1       9.552   1.494  23.765  0.00  0.00    +0.120 C 
BRANCH  19  20
ATOM     20  C   UNL     1      10.558   2.323  22.918  0.00  0.00    +0.158 C 
BRANCH  20  21
ATOM     21  C   UNL     1      10.729   3.754  23.397  0.00  0.00    -0.018 A 
ATOM     22  C   UNL     1       9.659   4.490  23.935  0.00  0.00    +0.006 A 
ATOM     23  C   UNL     1       9.854   5.791  24.405  0.00  0.00    +0.000 A 
ATOM     24  C   UNL     1      11.120   6.375  24.353  0.00  0.00    +0.000 A 
ATOM     25  C   UNL     1      12.190   5.658  23.824  0.00  0.00    +0.000 A 
ATOM     26  C   UNL     1      11.996   4.363  23.342  0.00  0.00    +0.006 A 
ENDBRANCH  20  21
BRANCH  20  27
ATOM     27  O   UNL     1      10.121   2.301  21.552  0.00  0.00    -0.386 OA
ATOM     28  H   UNL     1       9.267   1.843  21.527  0.00  0.00    +0.210 HD
ENDBRANCH  20  27
ENDBRANCH  19  20
ENDBRANCH   5  19
TORSDOF 7
ENDMDL
MODEL 3
REMARK VINA RESULT:      -6.9      2.061      2.915
REMARK  Name = 
REMARK  9 active torsions:
REMARK  status: ('A' for Active; 'I' for Inactive)
REMARK    1  A    between atoms: C_1  and  C_2
REMARK    2  A    between atoms: C_2  and  C_3
REMARK    3  A    between atoms: N_5  and  C_6
REMARK    4  A    between atoms: N_5  and  C_22
REMARK    5  A    between atoms: N_9  and  C_10
REMARK    6  A    between atoms: C_10  and  C_11
REMARK    7  A    between atoms: C_11  and  O_12
REMARK    8  A    between atoms: C_11  and  C_13
REMARK    9  A    between atoms: C_20  and  C_21
REMARK                            x       y       z     vdW  Elec       q    Type
REMARK                         _______ _______ _______ _____ _____    ______ ____
ROOT
ATOM      1  C   UNL     1       7.721  -2.883  25.189  0.00  0.00    +0.087 C 
ATOM      2  C   UNL     1       7.628  -1.882  26.373  0.00  0.00    +0.021 C 
ATOM      3  C   UNL     1       8.731  -0.811  26.348  0.00  0.00    +0.010 C 
ATOM      4  C   UNL     1       6.217  -1.266  26.429  0.00  0.00    +0.089 C 
ATOM      5  N   UNL     1       5.724  -0.659  25.189  0.00  0.00    -0.299 NA
ATOM      6  C   UNL     1       5.930  -1.513  24.021  0.00  0.00    +0.086 C 
ATOM      7  C   UNL     1       7.342  -2.097  23.907  0.00  0.00    +0.038 C 
ENDROOT
BRANCH   1   9
ATOM      8  C   UNL     1       6.764  -4.886  26.517  0.00  0.00    +0.220 C 
ATOM      9  N   UNL     1       6.921  -4.170  25.318  0.00  0.00    -0.268 N 
ATOM     10  O   UNL     1       7.253  -4.553  27.597  0.00  0.00    -0.275 OA
BRANCH   9  11
ATOM     11  C   UNL     1       6.628  -4.833  24.086  0.00  0.00    +0.037 A 
ATOM     12  C   UNL     1       5.318  -4.906  23.606  0.00  0.00    +0.023 A 
ATOM     13  C   UNL     1       5.066  -5.492  22.360  0.00  0.00    +0.002 A 
ATOM     14  C   UNL     1       6.118  -6.018  21.607  0.00  0.00    +0.000 A 
ATOM     15  C   UNL     1       7.424  -5.943  22.085  0.00  0.00    +0.002 A 
ATOM     16  C   UNL     1       7.679  -5.341  23.314  0.00  0.00    +0.023 A 
ENDBRANCH   9  11
BRANCH   8  18
ATOM     17  C   UNL     1       4.551  -5.954  27.120  0.00  0.00    +0.013 C 
ATOM     18  C   UNL     1       5.907  -6.151  26.456  0.00  0.00    +0.093 C 
ENDBRANCH   8  18
ENDBRANCH   1   9
BRANCH   5  19
ATOM     19  C   UNL     1       6.058   0.746  24.952  0.00  0.00    +0.120 C 
BRANCH  19  20
ATOM     20  C   UNL     1       6.364   1.160  23.485  0.00  0.00    +0.158 C 
BRANCH  20  21
ATOM     21  C   UNL     1       7.798   1.609  23.261  0.00  0.00    -0.018 A 
ATOM     22  C   UNL     1       8.498   2.362  24.220  0.00  0.00    +0.006 A 
ATOM     23  C   UNL     1       9.829   2.726  24.005  0.00  0.00    +0.000 A 
ATOM     24  C   UNL     1      10.485   2.339  22.837  0.00  0.00    +0.000 A 
ATOM     25  C   UNL     1       9.805   1.591  21.879  0.00  0.00    +0.000 A 
ATOM     26  C   UNL     1       8.472   1.236  22.085  0.00  0.00    +0.006 A 
ENDBRANCH  20  21
BRANCH  20  27
ATOM     27  O   UNL     1       5.450   2.200  23.111  0.00  0.00    -0.386 OA
ATOM     28  H   UNL     1       5.928   3.042  23.170  0.00  0.00    +0.210 HD
ENDBRANCH  20  27
ENDBRANCH  19  20
ENDBRANCH   5  19
TORSDOF 7
ENDMDL
MODEL 4
REMARK VINA RESULT:      -6.8      1.903      3.388
REMARK  Name = 
REMARK  9 active torsions:
REMARK  status: ('A' for Active; 'I' for Inactive)
REMARK    1  A    between atoms: C_1  and  C_2
REMARK    2  A    between atoms: C_2  and  C_3
REMARK    3  A    between atoms: N_5  and  C_6
REMARK    4  A    between atoms: N_5  and  C_22
REMARK    5  A    between atoms: N_9  and  C_10
REMARK    6  A    between atoms: C_10  and  C_11
REMARK    7  A    between atoms: C_11  and  O_12
REMARK    8  A    between atoms: C_11  and  C_13
REMARK    9  A    between atoms: C_20  and  C_21
REMARK                            x       y       z     vdW  Elec       q    Type
REMARK                         _______ _______ _______ _____ _____    ______ ____
ROOT
ATOM      1  C   UNL     1       6.732  -1.853  23.938  0.00  0.00    +0.087 C 
ATOM      2  C   UNL     1       7.055  -1.135  22.599  0.00  0.00    +0.021 C 
ATOM      3  C   UNL     1       6.930   0.396  22.687  0.00  0.00    +0.010 C 
ATOM      4  C   UNL     1       8.439  -1.578  22.087  0.00  0.00    +0.089 C 
ATOM      5  N   UNL     1       9.552  -1.452  23.032  0.00  0.00    -0.299 NA
ATOM      6  C   UNL     1       9.233  -1.983  24.355  0.00  0.00    +0.086 C 
ATOM      7  C   UNL     1       7.887  -1.516  24.917  0.00  0.00    +0.038 C 
ENDROOT
BRANCH   1   9
ATOM      8  C   UNL     1       5.859  -3.994  22.777  0.00  0.00    +0.220 C 
ATOM      9  N   UNL     1       6.473  -3.350  23.865  0.00  0.00    -0.268 N 
ATOM     10  O   UNL     1       5.463  -3.421  21.761  0.00  0.00    -0.275 OA
BRANCH   9  11
ATOM     11  C   UNL     1       6.549  -4.043  25.112  0.00  0.00    +0.037 A 
ATOM     12  C   UNL     1       7.654  -4.842  25.421  0.00  0.00    +0.023 A 
ATOM     13  C   UNL     1       7.742  -5.449  26.679  0.00  0.00    +0.002 A 
ATOM     14  C   UNL     1       6.721  -5.273  27.616  0.00  0.00    +0.000 A 
ATOM     15  C   UNL     1       5.622  -4.475  27.308  0.00  0.00    +0.002 A 
ATOM     16  C   UNL     1       5.543  -3.853  26.066  0.00  0.00    +0.023 A 
ENDBRANCH   9  11
BRANCH   8  18
ATOM     17  C   UNL     1       6.688  -6.248  21.983  0.00  0.00    +0.013 C 
ATOM     18  C   UNL     1       5.700  -5.511  22.876  0.00  0.00    +0.093 C 
ENDBRANCH   8  18
ENDBRANCH   1   9
BRANCH   5  19
ATOM     19  C   UNL     1      10.254  -0.168  23.072  0.00  0.00    +0.120 C 
BRANCH  19  20
ATOM     20  C   UNL     1      10.333   0.550  24.449  0.00  0.00    +0.158 C 
BRANCH  20  21
ATOM     21  C   UNL     1       9.655   1.909  24.471  0.00  0.00    -0.018 A 
ATOM     22  C   UNL     1      10.128   2.987  23.702  0.00  0.00    +0.006 A 
ATOM     23  C   UNL     1       9.462   4.214  23.711  0.00  0.00    +0.000 A 
ATOM     24  C   UNL     1       8.310   4.384  24.479  0.00  0.00    +0.000 A 
ATOM     25  C   UNL     1       7.829   3.326  25.245  0.00  0.00    +0.000 A 
ATOM     26  C   UNL     1       8.499   2.102  25.248  0.00  0.00    +0.006 A 
ENDBRANCH  20  21
BRANCH  20  27
ATOM     27  O   UNL     1      11.714   0.673  24.815  0.00  0.00    -0.386 OA
ATOM     28  H   UNL     1      11.787   0.447  25.755  0.00  0.00    +0.210 HD
ENDBRANCH  20  27
ENDBRANCH  19  20
ENDBRANCH   5  19
TORSDOF 7
ENDMDL
MODEL 5
REMARK VINA RESULT:      -6.7      1.883      2.567
REMARK  Name = 
REMARK  9 active torsions:
REMARK  status: ('A' for Active; 'I' for Inactive)
REMARK    1  A    between atoms: C_1  and  C_2
REMARK    2  A    between atoms: C_2  and  C_3
REMARK    3  A    between atoms: N_5  and  C_6
REMARK    4  A    between atoms: N_5  and  C_22
REMARK    5  A    between atoms: N_9  and  C_10
REMARK    6  A    between atoms: C_10  and  C_11
REMARK    7  A    between atoms: C_11  and  O_12
REMARK    8  A    between atoms: C_11  and  C_13
REMARK    9  A    between atoms: C_20  and  C_21
REMARK                            x       y       z     vdW  Elec       q    Type
REMARK                         _______ _______ _______ _____ _____    ______ ____
ROOT
ATOM      1  C   UNL     1       8.041  -1.938  23.454  0.00  0.00    +0.087 C 
ATOM      2  C   UNL     1       9.457  -1.364  23.176  0.00  0.00    +0.021 C 
ATOM      3  C   UNL     1       9.670  -0.964  21.706  0.00  0.00    +0.010 C 
ATOM      4  C   UNL     1       9.751  -0.203  24.146  0.00  0.00    +0.089 C 
ATOM      5  N   UNL     1       8.752   0.868  24.198  0.00  0.00    -0.299 NA
ATOM      6  C   UNL     1       7.386   0.361  24.310  0.00  0.00    +0.086 C 
ATOM      7  C   UNL     1       7.044  -0.757  23.321  0.00  0.00    +0.038 C 
ENDROOT
BRANCH   1   9
ATOM      8  C   UNL     1       8.726  -3.684  25.236  0.00  0.00    +0.220 C 
ATOM      9  N   UNL     1       7.853  -2.688  24.764  0.00  0.00    -0.268 N 
ATOM     10  O   UNL     1       9.739  -4.060  24.646  0.00  0.00    -0.275 OA
BRANCH   9  11
ATOM     11  C   UNL     1       6.546  -2.602  25.335  0.00  0.00    +0.037 A 
ATOM     12  C   UNL     1       5.448  -3.190  24.700  0.00  0.00    +0.023 A 
ATOM     13  C   UNL     1       4.191  -3.159  25.317  0.00  0.00    +0.002 A 
ATOM     14  C   UNL     1       4.031  -2.527  26.551  0.00  0.00    +0.000 A 
ATOM     15  C   UNL     1       5.126  -1.943  27.183  0.00  0.00    +0.002 A 
ATOM     16  C   UNL     1       6.381  -1.991  26.583  0.00  0.00    +0.023 A 
ENDBRANCH   9  11
BRANCH   8  18
ATOM     17  C   UNL     1       7.602  -5.613  26.427  0.00  0.00    +0.013 C 
ATOM     18  C   UNL     1       8.382  -4.316  26.586  0.00  0.00    +0.093 C 
ENDBRANCH   8  18
ENDBRANCH   1   9
BRANCH   5  19
ATOM     19  C   UNL     1       8.893   1.963  23.237  0.00  0.00    +0.120 C 
BRANCH  19  20
ATOM     20  C   UNL     1      10.337   2.448  22.927  0.00  0.00    +0.158 C 
BRANCH  20  21
ATOM     21  C   UNL     1      10.650   3.831  23.472  0.00  0.00    -0.018 A 
ATOM     22  C   UNL     1      11.931   4.400  23.362  0.00  0.00    +0.006 A 
ATOM     23  C   UNL     1      12.180   5.690  23.836  0.00  0.00    +0.000 A 
ATOM     24  C   UNL     1      11.155   6.435  24.418  0.00  0.00    +0.000 A 
ATOM     25  C   UNL     1       9.881   5.886  24.533  0.00  0.00    +0.000 A 
ATOM     26  C   UNL     1       9.631   4.593  24.072  0.00  0.00    +0.006 A 
ENDBRANCH  20  21
BRANCH  20  27
ATOM     27  O   UNL     1      10.528   2.415  21.506  0.00  0.00    -0.386 OA
ATOM     28  H   UNL     1       9.736   2.797  21.098  0.00  0.00    +0.210 HD
ENDBRANCH  20  27
ENDBRANCH  19  20
ENDBRANCH   5  19
TORSDOF 7
ENDMDL
MODEL 6
REMARK VINA RESULT:      -6.7      1.820      2.204
REMARK  Name = 
REMARK  9 active torsions:
REMARK  status: ('A' for Active; 'I' for Inactive)
REMARK    1  A    between atoms: C_1  and  C_2
REMARK    2  A    between atoms: C_2  and  C_3
REMARK    3  A    between atoms: N_5  and  C_6
REMARK    4  A    between atoms: N_5  and  C_22
REMARK    5  A    between atoms: N_9  and  C_10
REMARK    6  A    between atoms: C_10  and  C_11
REMARK    7  A    between atoms: C_11  and  O_12
REMARK    8  A    between atoms: C_11  and  C_13
REMARK    9  A    between atoms: C_20  and  C_21
REMARK                            x       y       z     vdW  Elec       q    Type
REMARK                         _______ _______ _______ _____ _____    ______ ____
ROOT
ATOM      1  C   UNL     1       8.338  -3.074  23.657  0.00  0.00    +0.087 C 
ATOM      2  C   UNL     1       9.384  -1.999  24.062  0.00  0.00    +0.021 C 
ATOM      3  C   UNL     1      10.535  -1.864  23.051  0.00  0.00    +0.010 C 
ATOM      4  C   UNL     1       8.680  -0.655  24.328  0.00  0.00    +0.089 C 
ATOM      5  N   UNL     1       7.804  -0.159  23.262  0.00  0.00    -0.299 NA
ATOM      6  C   UNL     1       6.902  -1.187  22.747  0.00  0.00    +0.086 C 
ATOM      7  C   UNL     1       7.583  -2.520  22.420  0.00  0.00    +0.038 C 
ENDROOT
BRANCH   1   9
ATOM      8  C   UNL     1       7.712  -3.628  26.105  0.00  0.00    +0.220 C 
ATOM      9  N   UNL     1       7.378  -3.536  24.742  0.00  0.00    -0.268 N 
ATOM     10  O   UNL     1       8.814  -3.344  26.573  0.00  0.00    -0.275 OA
BRANCH   9  11
ATOM     11  C   UNL     1       6.218  -4.229  24.277  0.00  0.00    +0.037 A 
ATOM     12  C   UNL     1       4.954  -3.637  24.348  0.00  0.00    +0.023 A 
ATOM     13  C   UNL     1       3.844  -4.303  23.815  0.00  0.00    +0.002 A 
ATOM     14  C   UNL     1       3.997  -5.562  23.231  0.00  0.00    +0.000 A 
ATOM     15  C   UNL     1       5.257  -6.150  23.158  0.00  0.00    +0.002 A 
ATOM     16  C   UNL     1       6.365  -5.480  23.668  0.00  0.00    +0.023 A 
ENDBRANCH   9  11
BRANCH   8  18
ATOM     17  C   UNL     1       6.865  -5.502  27.578  0.00  0.00    +0.013 C 
ATOM     18  C   UNL     1       6.607  -4.097  27.053  0.00  0.00    +0.093 C 
ENDBRANCH   8  18
ENDBRANCH   1   9
BRANCH   5  19
ATOM     19  C   UNL     1       8.421   0.656  22.213  0.00  0.00    +0.120 C 
BRANCH  19  20
ATOM     20  C   UNL     1       9.360   1.805  22.676  0.00  0.00    +0.158 C 
BRANCH  20  21
ATOM     21  C   UNL     1       8.626   2.985  23.291  0.00  0.00    -0.018 A 
ATOM     22  C   UNL     1       8.855   3.391  24.618  0.00  0.00    +0.006 A 
ATOM     23  C   UNL     1       8.196   4.504  25.145  0.00  0.00    +0.000 A 
ATOM     24  C   UNL     1       7.307   5.234  24.357  0.00  0.00    +0.000 A 
ATOM     25  C   UNL     1       7.072   4.846  23.040  0.00  0.00    +0.000 A 
ATOM     26  C   UNL     1       7.719   3.727  22.514  0.00  0.00    +0.006 A 
ENDBRANCH  20  21
BRANCH  20  27
ATOM     27  O   UNL     1      10.137   2.233  21.548  0.00  0.00    -0.386 OA
ATOM     28  H   UNL     1      10.703   2.962  21.846  0.00  0.00    +0.210 HD
ENDBRANCH  20  27
ENDBRANCH  19  20
ENDBRANCH   5  19
TORSDOF 7
ENDMDL
MODEL 7
REMARK VINA RESULT:      -6.7      1.690      2.139
REMARK  Name = 
REMARK  9 active torsions:
REMARK  status: ('A' for Active; 'I' for Inactive)
REMARK    1  A    between atoms: C_1  and  C_2
REMARK    2  A    between atoms: C_2  and  C_3
REMARK    3  A    between atoms: N_5  and  C_6
REMARK    4  A    between atoms: N_5  and  C_22
REMARK    5  A    between atoms: N_9  and  C_10
REMARK    6  A    between atoms: C_10  and  C_11
REMARK    7  A    between atoms: C_11  and  O_12
REMARK    8  A    between atoms: C_11  and  C_13
REMARK    9  A    between atoms: C_20  and  C_21
REMARK                            x       y       z     vdW  Elec       q    Type
REMARK                         _______ _______ _______ _____ _____    ______ ____
ROOT
ATOM      1  C   UNL     1       8.865  -2.125  23.809  0.00  0.00    +0.087 C 
ATOM      2  C   UNL     1       9.285  -0.775  24.453  0.00  0.00    +0.021 C 
ATOM      3  C   UNL     1      10.528  -0.152  23.795  0.00  0.00    +0.010 C 
ATOM      4  C   UNL     1       8.086   0.193  24.470  0.00  0.00    +0.089 C 
ATOM      5  N   UNL     1       7.410   0.412  23.188  0.00  0.00    -0.299 NA
ATOM      6  C   UNL     1       7.130  -0.834  22.477  0.00  0.00    +0.086 C 
ATOM      7  C   UNL     1       8.319  -1.796  22.395  0.00  0.00    +0.038 C 
ENDROOT
BRANCH   1   9
ATOM      8  C   UNL     1       7.930  -3.139  25.998  0.00  0.00    +0.220 C 
ATOM      9  N   UNL     1       7.893  -2.987  24.601  0.00  0.00    -0.268 N 
ATOM     10  O   UNL     1       8.749  -2.592  26.737  0.00  0.00    -0.275 OA
BRANCH   9  11
ATOM     11  C   UNL     1       7.153  -3.937  23.831  0.00  0.00    +0.037 A 
ATOM     12  C   UNL     1       5.791  -3.750  23.581  0.00  0.00    +0.023 A 
ATOM     13  C   UNL     1       5.106  -4.654  22.760  0.00  0.00    +0.002 A 
ATOM     14  C   UNL     1       5.776  -5.748  22.209  0.00  0.00    +0.000 A 
ATOM     15  C   UNL     1       7.133  -5.932  22.458  0.00  0.00    +0.002 A 
ATOM     16  C   UNL     1       7.822  -5.023  23.256  0.00  0.00    +0.023 A 
ENDBRANCH   9  11
BRANCH   8  18
ATOM     17  C   UNL     1       7.436  -5.346  27.132  0.00  0.00    +0.013 C 
ATOM     18  C   UNL     1       6.857  -4.034  26.621  0.00  0.00    +0.093 C 
ENDBRANCH   8  18
ENDBRANCH   1   9
BRANCH   5  19
ATOM     19  C   UNL     1       7.936   1.471  22.326  0.00  0.00    +0.120 C 
BRANCH  19  20
ATOM     20  C   UNL     1       7.067   2.752  22.175  0.00  0.00    +0.158 C 
BRANCH  20  21
ATOM     21  C   UNL     1       7.767   4.024  22.623  0.00  0.00    -0.018 A 
ATOM     22  C   UNL     1       7.314   5.297  22.235  0.00  0.00    +0.006 A 
ATOM     23  C   UNL     1       7.953   6.450  22.695  0.00  0.00    +0.000 A 
ATOM     24  C   UNL     1       9.047   6.354  23.555  0.00  0.00    +0.000 A 
ATOM     25  C   UNL     1       9.506   5.100  23.950  0.00  0.00    +0.000 A 
ATOM     26  C   UNL     1       8.878   3.945  23.483  0.00  0.00    +0.006 A 
ENDBRANCH  20  21
BRANCH  20  27
ATOM     27  O   UNL     1       5.853   2.562  22.914  0.00  0.00    -0.386 OA
ATOM     28  H   UNL     1       5.142   3.003  22.424  0.00  0.00    +0.210 HD
ENDBRANCH  20  27
ENDBRANCH  19  20
ENDBRANCH   5  19
TORSDOF 7
ENDMDL
MODEL 8
REMARK VINA RESULT:      -6.7      2.107      7.724
REMARK  Name = 
REMARK  9 active torsions:
REMARK  status: ('A' for Active; 'I' for Inactive)
REMARK    1  A    between atoms: C_1  and  C_2
REMARK    2  A    between atoms: C_2  and  C_3
REMARK    3  A    between atoms: N_5  and  C_6
REMARK    4  A    between atoms: N_5  and  C_22
REMARK    5  A    between atoms: N_9  and  C_10
REMARK    6  A    between atoms: C_10  and  C_11
REMARK    7  A    between atoms: C_11  and  O_12
REMARK    8  A    between atoms: C_11  and  C_13
REMARK    9  A    between atoms: C_20  and  C_21
REMARK                            x       y       z     vdW  Elec       q    Type
REMARK                         _______ _______ _______ _____ _____    ______ ____
ROOT
ATOM      1  C   UNL     1       6.283  -0.641  24.524  0.00  0.00    +0.087 C 
ATOM      2  C   UNL     1       5.407  -1.168  25.695  0.00  0.00    +0.021 C 
ATOM      3  C   UNL     1       4.505  -2.347  25.293  0.00  0.00    +0.010 C 
ATOM      4  C   UNL     1       6.298  -1.502  26.907  0.00  0.00    +0.089 C 
ATOM      5  N   UNL     1       7.429  -2.398  26.654  0.00  0.00    -0.299 NA
ATOM      6  C   UNL     1       8.195  -2.022  25.467  0.00  0.00    +0.086 C 
ATOM      7  C   UNL     1       7.340  -1.737  24.228  0.00  0.00    +0.038 C 
ENDROOT
BRANCH   1   9
ATOM      8  C   UNL     1       6.345   1.776  25.443  0.00  0.00    +0.220 C 
ATOM      9  N   UNL     1       6.925   0.725  24.712  0.00  0.00    -0.268 N 
ATOM     10  O   UNL     1       5.256   1.710  26.015  0.00  0.00    -0.275 OA
BRANCH   9  11
ATOM     11  C   UNL     1       7.987   1.030  23.806  0.00  0.00    +0.037 A 
ATOM     12  C   UNL     1       7.728   1.254  22.451  0.00  0.00    +0.023 A 
ATOM     13  C   UNL     1       8.773   1.628  21.598  0.00  0.00    +0.002 A 
ATOM     14  C   UNL     1      10.072   1.757  22.095  0.00  0.00    +0.000 A 
ATOM     15  C   UNL     1      10.328   1.535  23.445  0.00  0.00    +0.002 A 
ATOM     16  C   UNL     1       9.287   1.185  24.300  0.00  0.00    +0.023 A 
ENDBRANCH   9  11
BRANCH   8  18
ATOM     17  C   UNL     1       6.476   4.217  24.792  0.00  0.00    +0.013 C 
ATOM     18  C   UNL     1       7.149   3.073  25.538  0.00  0.00    +0.093 C 
ENDBRANCH   8  18
ENDBRANCH   1   9
BRANCH   5  19
ATOM     19  C   UNL     1       7.180  -3.837  26.756  0.00  0.00    +0.120 C 
BRANCH  19  20
ATOM     20  C   UNL     1       7.993  -4.762  25.806  0.00  0.00    +0.158 C 
BRANCH  20  21
ATOM     21  C   UNL     1       7.214  -5.225  24.586  0.00  0.00    -0.018 A 
ATOM     22  C   UNL     1       5.854  -5.572  24.662  0.00  0.00    +0.006 A 
ATOM     23  C   UNL     1       5.152  -5.955  23.517  0.00  0.00    +0.000 A 
ATOM     24  C   UNL     1       5.793  -5.990  22.278  0.00  0.00    +0.000 A 
ATOM     25  C   UNL     1       7.139  -5.648  22.187  0.00  0.00    +0.000 A 
ATOM     26  C   UNL     1       7.846  -5.276  23.331  0.00  0.00    +0.006 A 
ENDBRANCH  20  21
BRANCH  20  27
ATOM     27  O   UNL     1       8.454  -5.890  26.562  0.00  0.00    -0.386 OA
ATOM     28  H   UNL     1       9.147  -6.325  26.042  0.00  0.00    +0.210 HD
ENDBRANCH  20  27
ENDBRANCH  19  20
ENDBRANCH   5  19
TORSDOF 7
ENDMDL
MODEL 9
REMARK VINA RESULT:      -6.6      2.340      3.978
REMARK  Name = 
REMARK  9 active torsions:
REMARK  status: ('A' for Active; 'I' for Inactive)
REMARK    1  A    between atoms: C_1  and  C_2
REMARK    2  A    between atoms: C_2  and  C_3
REMARK    3  A    between atoms: N_5  and  C_6
REMARK    4  A    between atoms: N_5  and  C_22
REMARK    5  A    between atoms: N_9  and  C_10
REMARK    6  A    between atoms: C_10  and  C_11
REMARK    7  A    between atoms: C_11  and  O_12
REMARK    8  A    between atoms: C_11  and  C_13
REMARK    9  A    between atoms: C_20  and  C_21
REMARK                            x       y       z     vdW  Elec       q    Type
REMARK                         _______ _______ _______ _____ _____    ______ ____
ROOT
ATOM      1  C   UNL     1       7.007  -5.324  25.137  0.00  0.00    +0.087 C 
ATOM      2  C   UNL     1       8.197  -4.432  25.587  0.00  0.00    +0.021 C 
ATOM      3  C   UNL     1       9.545  -4.880  24.998  0.00  0.00    +0.010 C 
ATOM      4  C   UNL     1       7.890  -2.954  25.283  0.00  0.00    +0.089 C 
ATOM      5  N   UNL     1       7.494  -2.643  23.907  0.00  0.00    -0.299 NA
ATOM      6  C   UNL     1       6.477  -3.557  23.391  0.00  0.00    +0.086 C 
ATOM      7  C   UNL     1       6.781  -5.040  23.629  0.00  0.00    +0.038 C 
ENDROOT
BRANCH   1   9
ATOM      8  C   UNL     1       5.665  -4.996  27.324  0.00  0.00    +0.220 C 
ATOM      9  N   UNL     1       5.718  -5.195  25.933  0.00  0.00    -0.268 N 
ATOM     10  O   UNL     1       6.653  -4.901  28.052  0.00  0.00    -0.275 OA
BRANCH   9  11
ATOM     11  C   UNL     1       4.540  -5.652  25.265  0.00  0.00    +0.037 A 
ATOM     12  C   UNL     1       4.291  -7.018  25.108  0.00  0.00    +0.023 A 
ATOM     13  C   UNL     1       3.094  -7.443  24.520  0.00  0.00    +0.002 A 
ATOM     14  C   UNL     1       2.160  -6.504  24.075  0.00  0.00    +0.000 A 
ATOM     15  C   UNL     1       2.408  -5.144  24.234  0.00  0.00    +0.002 A 
ATOM     16  C   UNL     1       3.588  -4.720  24.839  0.00  0.00    +0.023 A 
ENDBRANCH   9  11
BRANCH   8  18
ATOM     17  C   UNL     1       3.952  -6.049  28.859  0.00  0.00    +0.013 C 
ATOM     18  C   UNL     1       4.275  -4.873  27.949  0.00  0.00    +0.093 C 
ENDBRANCH   8  18
ENDBRANCH   1   9
BRANCH   5  19
ATOM     19  C   UNL     1       8.564  -2.359  22.949  0.00  0.00    +0.120 C 
BRANCH  19  20
ATOM     20  C   UNL     1       9.852  -1.693  23.510  0.00  0.00    +0.158 C 
BRANCH  20  21
ATOM     21  C   UNL     1       9.876  -0.182  23.360  0.00  0.00    -0.018 A 
ATOM     22  C   UNL     1       9.951   0.438  22.100  0.00  0.00    +0.006 A 
ATOM     23  C   UNL     1       9.930   1.830  21.989  0.00  0.00    +0.000 A 
ATOM     24  C   UNL     1       9.825   2.625  23.130  0.00  0.00    +0.000 A 
ATOM     25  C   UNL     1       9.748   2.026  24.385  0.00  0.00    +0.000 A 
ATOM     26  C   UNL     1       9.781   0.636  24.500  0.00  0.00    +0.006 A 
ENDBRANCH  20  21
BRANCH  20  27
ATOM     27  O   UNL     1      10.985  -2.279  22.852  0.00  0.00    -0.386 OA
ATOM     28  H   UNL     1      10.729  -3.171  22.573  0.00  0.00    +0.210 HD
ENDBRANCH  20  27
ENDBRANCH  19  20
ENDBRANCH   5  19
TORSDOF 7
ENDMDL
