MODEL 1
REMARK VINA RESULT:      -6.7      0.000      0.000
REMARK  Name = 
REMARK  10 active torsions:
REMARK  status: ('A' for Active; 'I' for Inactive)
REMARK    1  A    between atoms: C_1  and  O_2
REMARK    2  A    between atoms: O_2  and  C_3
REMARK    3  A    between atoms: C_7  and  O_8
REMARK    4  A    between atoms: O_8  and  C_9
REMARK    5  A    between atoms: C_10  and  O_11
REMARK    6  A    between atoms: O_11  and  C_12
REMARK    7  A    between atoms: C_16  and  O_17
REMARK    8  A    between atoms: O_17  and  C_18
REMARK    9  A    between atoms: C_23  and  N_26
REMARK   10  A    between atoms: C_27  and  C_28
REMARK                            x       y       z     vdW  Elec       q    Type
REMARK                         _______ _______ _______ _____ _____    ______ ____
ROOT
ATOM      1  C   UNL     1       7.370  -4.377  25.823  0.00  0.00    +0.165 A 
ATOM      2  C   UNL     1       8.053  -4.079  24.640  0.00  0.00    +0.204 A 
ATOM      3  C   UNL     1       8.436  -2.719  24.364  0.00  0.00    +0.173 A 
ATOM      4  C   UNL     1       8.147  -1.633  25.283  0.00  0.00    +0.031 A 
ATOM      5  C   UNL     1       8.787  -0.221  25.117  0.00  0.00    -0.009 A 
ATOM      6  C   UNL     1       8.158   1.138  25.492  0.00  0.00    -0.016 A 
ATOM      7  C   UNL     1       7.199   1.158  26.678  0.00  0.00    +0.104 C 
ATOM      8  C   UNL     1       7.610   0.124  27.723  0.00  0.00    +0.032 C 
ATOM      9  C   UNL     1       6.777  -1.089  27.450  0.00  0.00    +0.038 C 
ATOM     10  C   UNL     1       8.427   2.330  24.888  0.00  0.00    +0.060 A 
ATOM     11  C   UNL     1       9.425   2.718  23.837  0.00  0.00    +0.221 A 
ATOM     12  O   UNL     1       9.420   3.855  23.374  0.00  0.00    -0.284 OA
ATOM     13  C   UNL     1      10.410   1.690  23.411  0.00  0.00    +0.167 A 
ATOM     14  C   UNL     1      10.868   0.956  24.450  0.00  0.00    +0.050 A 
ATOM     15  C   UNL     1      10.094  -0.240  24.735  0.00  0.00    +0.012 A 
ATOM     16  C   UNL     1       7.342  -1.987  26.393  0.00  0.00    -0.032 A 
ATOM     17  C   UNL     1       6.955  -3.323  26.615  0.00  0.00    +0.054 A 
ENDROOT
BRANCH   7  18
ATOM     18  N   UNL     1       7.036   2.430  27.402  0.00  0.00    -0.309 N 
ATOM     19  H   UNL     1       7.773   2.727  28.030  0.00  0.00    +0.149 HD
ATOM     20  C   UNL     1       5.726   2.777  27.732  0.00  0.00    +0.210 C 
ATOM     21  O   UNL     1       4.747   2.206  27.252  0.00  0.00    -0.276 OA
ATOM     22  C   UNL     1       5.535   3.849  28.769  0.00  0.00    +0.109 C 
ENDBRANCH   7  18
BRANCH   1  24
ATOM     23  C   UNL     1       5.730  -6.045  26.259  0.00  0.00    +0.277 C 
ATOM     24  O   UNL     1       7.108  -5.671  26.183  0.00  0.00    -0.491 OA
ENDBRANCH   1  24
BRANCH   2  25
ATOM     25  O   UNL     1       8.433  -5.045  23.740  0.00  0.00    -0.488 OA
ATOM     26  C   UNL     1       7.474  -5.551  22.822  0.00  0.00    +0.277 C 
ENDBRANCH   2  25
BRANCH   3  27
ATOM     27  O   UNL     1       9.040  -2.343  23.170  0.00  0.00    -0.491 OA
ATOM     28  C   UNL     1       8.214  -2.103  22.035  0.00  0.00    +0.277 C 
ENDBRANCH   3  27
BRANCH  13  29
ATOM     29  O   UNL     1      10.371   1.359  22.077  0.00  0.00    -0.491 OA
ATOM     30  C   UNL     1       9.088   1.214  21.494  0.00  0.00    +0.277 C 
ENDBRANCH  13  29
TORSDOF 5
ENDMDL
MODEL 2
REMARK VINA RESULT:      -6.6      3.426      8.037
REMARK  Name = 
REMARK  10 active torsions:
REMARK  status: ('A' for Active; 'I' for Inactive)
REMARK    1  A    between atoms: C_1  and  O_2
REMARK    2  A    between atoms: O_2  and  C_3
REMARK    3  A    between atoms: C_7  and  O_8
REMARK    4  A    between atoms: O_8  and  C_9
REMARK    5  A    between atoms: C_10  and  O_11
REMARK    6  A    between atoms: O_11  and  C_12
REMARK    7  A    between atoms: C_16  and  O_17
REMARK    8  A    between atoms: O_17  and  C_18
REMARK    9  A    between atoms: C_23  and  N_26
REMARK   10  A    between atoms: C_27  and  C_28
REMARK                            x       y       z     vdW  Elec       q    Type
REMARK                         _______ _______ _______ _____ _____    ______ ____
ROOT
ATOM      1  C   UNL     1       8.791  -2.252  22.959  0.00  0.00    +0.165 A 
ATOM      2  C   UNL     1       8.645  -1.984  24.324  0.00  0.00    +0.204 A 
ATOM      3  C   UNL     1       7.694  -2.738  25.098  0.00  0.00    +0.173 A 
ATOM      4  C   UNL     1       6.878  -3.785  24.514  0.00  0.00    +0.031 A 
ATOM      5  C   UNL     1       6.051  -4.773  25.393  0.00  0.00    -0.009 A 
ATOM      6  C   UNL     1       4.702  -5.434  25.035  0.00  0.00    -0.016 A 
ATOM      7  C   UNL     1       4.442  -5.734  23.562  0.00  0.00    +0.104 C 
ATOM      8  C   UNL     1       5.744  -6.077  22.843  0.00  0.00    +0.032 C 
ATOM      9  C   UNL     1       6.202  -4.807  22.196  0.00  0.00    +0.038 C 
ATOM     10  C   UNL     1       3.747  -5.820  25.928  0.00  0.00    +0.060 A 
ATOM     11  C   UNL     1       3.732  -5.850  27.428  0.00  0.00    +0.221 A 
ATOM     12  O   UNL     1       2.706  -6.158  28.027  0.00  0.00    -0.284 OA
ATOM     13  C   UNL     1       4.996  -5.519  28.136  0.00  0.00    +0.167 A 
ATOM     14  C   UNL     1       6.081  -6.045  27.524  0.00  0.00    +0.050 A 
ATOM     15  C   UNL     1       6.688  -5.185  26.523  0.00  0.00    +0.012 A 
ATOM     16  C   UNL     1       6.985  -3.913  23.107  0.00  0.00    -0.032 A 
ATOM     17  C   UNL     1       7.902  -3.134  22.374  0.00  0.00    +0.054 A 
ENDROOT
BRANCH   7  18
ATOM     18  N   UNL     1       3.498  -6.819  23.244  0.00  0.00    -0.309 N 
ATOM     19  H   UNL     1       3.869  -7.693  22.890  0.00  0.00    +0.149 HD
ATOM     20  C   UNL     1       2.242  -6.417  22.791  0.00  0.00    +0.210 C 
ATOM     21  O   UNL     1       1.845  -5.256  22.878  0.00  0.00    -0.276 OA
ATOM     22  C   UNL     1       1.388  -7.454  22.114  0.00  0.00    +0.109 C 
ENDBRANCH   7  18
BRANCH   1  24
ATOM     23  C   UNL     1       9.388  -0.508  21.455  0.00  0.00    +0.277 C 
ATOM     24  O   UNL     1       9.774  -1.653  22.220  0.00  0.00    -0.491 OA
ENDBRANCH   1  24
BRANCH   2  25
ATOM     25  O   UNL     1       9.419  -1.060  24.984  0.00  0.00    -0.488 OA
ATOM     26  C   UNL     1       9.017   0.302  24.989  0.00  0.00    +0.277 C 
ENDBRANCH   2  25
BRANCH   3  27
ATOM     27  O   UNL     1       7.440  -2.463  26.437  0.00  0.00    -0.491 OA
ATOM     28  C   UNL     1       6.428  -1.514  26.758  0.00  0.00    +0.277 C 
ENDBRANCH   3  27
BRANCH  13  29
ATOM     29  O   UNL     1       4.929  -4.436  28.980  0.00  0.00    -0.491 OA
ATOM     30  C   UNL     1       4.826  -4.714  30.366  0.00  0.00    +0.277 C 
ENDBRANCH  13  29
TORSDOF 5
ENDMDL
MODEL 3
REMARK VINA RESULT:      -6.1      2.093      4.986
REMARK  Name = 
REMARK  10 active torsions:
REMARK  status: ('A' for Active; 'I' for Inactive)
REMARK    1  A    between atoms: C_1  and  O_2
REMARK    2  A    between atoms: O_2  and  C_3
REMARK    3  A    between atoms: C_7  and  O_8
REMARK    4  A    between atoms: O_8  and  C_9
REMARK    5  A    between atoms: C_10  and  O_11
REMARK    6  A    between atoms: O_11  and  C_12
REMARK    7  A    between atoms: C_16  and  O_17
REMARK    8  A    between atoms: O_17  and  C_18
REMARK    9  A    between atoms: C_23  and  N_26
REMARK   10  A    between atoms: C_27  and  C_28
REMARK                            x       y       z     vdW  Elec       q    Type
REMARK                         _______ _______ _______ _____ _____    ______ ____
ROOT
ATOM      1  C   UNL     1       7.099  -4.784  22.810  0.00  0.00    +0.165 A 
ATOM      2  C   UNL     1       6.444  -4.786  24.046  0.00  0.00    +0.204 A 
ATOM      3  C   UNL     1       6.371  -3.571  24.814  0.00  0.00    +0.173 A 
ATOM      4  C   UNL     1       6.949  -2.325  24.345  0.00  0.00    +0.031 A 
ATOM      5  C   UNL     1       6.644  -0.962  25.039  0.00  0.00    -0.009 A 
ATOM      6  C   UNL     1       7.587   0.253  25.162  0.00  0.00    -0.016 A 
ATOM      7  C   UNL     1       8.584   0.479  24.030  0.00  0.00    +0.104 C 
ATOM      8  C   UNL     1       7.999   0.023  22.696  0.00  0.00    +0.032 C 
ATOM      9  C   UNL     1       8.515  -1.365  22.475  0.00  0.00    +0.038 C 
ATOM     10  C   UNL     1       7.570   1.172  26.170  0.00  0.00    +0.060 A 
ATOM     11  C   UNL     1       6.637   1.371  27.327  0.00  0.00    +0.221 A 
ATOM     12  O   UNL     1       6.879   2.227  28.173  0.00  0.00    -0.284 OA
ATOM     13  C   UNL     1       5.421   0.519  27.386  0.00  0.00    +0.167 A 
ATOM     14  C   UNL     1       4.859   0.341  26.169  0.00  0.00    +0.050 A 
ATOM     15  C   UNL     1       5.350  -0.814  25.438  0.00  0.00    +0.012 A 
ATOM     16  C   UNL     1       7.706  -2.427  23.152  0.00  0.00    -0.032 A 
ATOM     17  C   UNL     1       7.785  -3.642  22.443  0.00  0.00    +0.054 A 
ENDROOT
BRANCH   7  18
ATOM     18  N   UNL     1       9.072   1.852  23.815  0.00  0.00    -0.309 N 
ATOM     19  H   UNL     1       8.565   2.450  23.175  0.00  0.00    +0.149 HD
ATOM     20  C   UNL     1      10.453   2.026  23.908  0.00  0.00    +0.210 C 
ATOM     21  O   UNL     1      11.200   1.168  24.375  0.00  0.00    -0.276 OA
ATOM     22  C   UNL     1      11.028   3.297  23.346  0.00  0.00    +0.109 C 
ENDBRANCH   7  18
BRANCH   1  24
ATOM     23  C   UNL     1       6.191  -5.818  20.870  0.00  0.00    +0.277 C 
ATOM     24  O   UNL     1       7.073  -5.882  21.993  0.00  0.00    -0.491 OA
ENDBRANCH   1  24
BRANCH   2  25
ATOM     25  O   UNL     1       5.806  -5.897  24.545  0.00  0.00    -0.488 OA
ATOM     26  C   UNL     1       4.430  -6.094  24.251  0.00  0.00    +0.277 C 
ENDBRANCH   2  25
BRANCH   3  27
ATOM     27  O   UNL     1       5.810  -3.526  26.085  0.00  0.00    -0.491 OA
ATOM     28  C   UNL     1       6.601  -3.942  27.194  0.00  0.00    +0.277 C 
ENDBRANCH   3  27
BRANCH  13  29
ATOM     29  O   UNL     1       5.315  -0.274  28.504  0.00  0.00    -0.491 OA
ATOM     30  C   UNL     1       4.004  -0.573  28.952  0.00  0.00    +0.277 C 
ENDBRANCH  13  29
TORSDOF 5
ENDMDL
MODEL 4
REMARK VINA RESULT:      -6.0      2.511      7.497
REMARK  Name = 
REMARK  10 active torsions:
REMARK  status: ('A' for Active; 'I' for Inactive)
REMARK    1  A    between atoms: C_1  and  O_2
REMARK    2  A    between atoms: O_2  and  C_3
REMARK    3  A    between atoms: C_7  and  O_8
REMARK    4  A    between atoms: O_8  and  C_9
REMARK    5  A    between atoms: C_10  and  O_11
REMARK    6  A    between atoms: O_11  and  C_12
REMARK    7  A    between atoms: C_16  and  O_17
REMARK    8  A    between atoms: O_17  and  C_18
REMARK    9  A    between atoms: C_23  and  N_26
REMARK   10  A    between atoms: C_27  and  C_28
REMARK                            x       y       z     vdW  Elec       q    Type
REMARK                         _______ _______ _______ _____ _____    ______ ____
ROOT
ATOM      1  C   UNL     1      10.231   4.309  23.657  0.00  0.00    +0.165 A 
ATOM      2  C   UNL     1       8.895   4.674  23.855  0.00  0.00    +0.204 A 
ATOM      3  C   UNL     1       7.958   3.699  24.349  0.00  0.00    +0.173 A 
ATOM      4  C   UNL     1       8.351   2.338  24.662  0.00  0.00    +0.031 A 
ATOM      5  C   UNL     1       7.411   1.366  25.440  0.00  0.00    -0.009 A 
ATOM      6  C   UNL     1       7.320  -0.167  25.283  0.00  0.00    -0.016 A 
ATOM      7  C   UNL     1       8.598  -0.905  24.899  0.00  0.00    +0.104 C 
ATOM      8  C   UNL     1       9.822  -0.209  25.488  0.00  0.00    +0.032 C 
ATOM      9  C   UNL     1      10.357   0.669  24.400  0.00  0.00    +0.038 C 
ATOM     10  C   UNL     1       6.208  -0.922  25.512  0.00  0.00    +0.060 A 
ATOM     11  C   UNL     1       4.856  -0.574  26.062  0.00  0.00    +0.221 A 
ATOM     12  O   UNL     1       3.967  -1.420  26.090  0.00  0.00    -0.284 OA
ATOM     13  C   UNL     1       4.659   0.804  26.580  0.00  0.00    +0.167 A 
ATOM     14  C   UNL     1       5.734   1.255  27.265  0.00  0.00    +0.050 A 
ATOM     15  C   UNL     1       6.720   1.951  26.456  0.00  0.00    +0.012 A 
ATOM     16  C   UNL     1       9.684   2.005  24.315  0.00  0.00    -0.032 A 
ATOM     17  C   UNL     1      10.566   2.976  23.801  0.00  0.00    +0.054 A 
ENDROOT
BRANCH   7  18
ATOM     18  N   UNL     1       8.708  -2.323  25.284  0.00  0.00    -0.309 N 
ATOM     19  H   UNL     1       8.791  -2.552  26.267  0.00  0.00    +0.149 HD
ATOM     20  C   UNL     1       9.358  -3.151  24.369  0.00  0.00    +0.210 C 
ATOM     21  O   UNL     1       9.610  -2.799  23.217  0.00  0.00    -0.276 OA
ATOM     22  C   UNL     1       9.818  -4.496  24.860  0.00  0.00    +0.109 C 
ENDBRANCH   7  18
BRANCH   1  24
ATOM     23  C   UNL     1      12.539   4.804  23.360  0.00  0.00    +0.277 C 
ATOM     24  O   UNL     1      11.177   5.238  23.319  0.00  0.00    -0.491 OA
ENDBRANCH   1  24
BRANCH   2  25
ATOM     25  O   UNL     1       8.440   5.954  23.654  0.00  0.00    -0.488 OA
ATOM     26  C   UNL     1       7.943   6.318  22.374  0.00  0.00    +0.277 C 
ENDBRANCH   2  25
BRANCH   3  27
ATOM     27  O   UNL     1       6.602   3.973  24.486  0.00  0.00    -0.491 OA
ATOM     28  C   UNL     1       5.734   3.682  23.396  0.00  0.00    +0.277 C 
ENDBRANCH   3  27
BRANCH  13  29
ATOM     29  O   UNL     1       3.676   1.531  25.951  0.00  0.00    -0.491 OA
ATOM     30  C   UNL     1       2.853   2.338  26.775  0.00  0.00    +0.277 C 
ENDBRANCH  13  29
TORSDOF 5
ENDMDL
MODEL 5
REMARK VINA RESULT:      -6.0      1.243      1.313
REMARK  Name = 
REMARK  10 active torsions:
REMARK  status: ('A' for Active; 'I' for Inactive)
REMARK    1  A    between atoms: C_1  and  O_2
REMARK    2  A    between atoms: O_2  and  C_3
REMARK    3  A    between atoms: C_7  and  O_8
REMARK    4  A    between atoms: O_8  and  C_9
REMARK    5  A    between atoms: C_10  and  O_11
REMARK    6  A    between atoms: O_11  and  C_12
REMARK    7  A    between atoms: C_16  and  O_17
REMARK    8  A    between atoms: O_17  and  C_18
REMARK    9  A    between atoms: C_23  and  N_26
REMARK   10  A    between atoms: C_27  and  C_28
REMARK                            x       y       z     vdW  Elec       q    Type
REMARK                         _______ _______ _______ _____ _____    ______ ____
ROOT
ATOM      1  C   UNL     1       6.139  -4.850  24.972  0.00  0.00    +0.165 A 
ATOM      2  C   UNL     1       7.203  -4.534  24.120  0.00  0.00    +0.204 A 
ATOM      3  C   UNL     1       7.722  -3.192  24.098  0.00  0.00    +0.173 A 
ATOM      4  C   UNL     1       7.186  -2.142  24.944  0.00  0.00    +0.031 A 
ATOM      5  C   UNL     1       7.912  -0.772  25.117  0.00  0.00    -0.009 A 
ATOM      6  C   UNL     1       7.257   0.605  25.360  0.00  0.00    -0.016 A 
ATOM      7  C   UNL     1       5.950   0.626  26.145  0.00  0.00    +0.104 C 
ATOM      8  C   UNL     1       5.925  -0.492  27.184  0.00  0.00    +0.032 C 
ATOM      9  C   UNL     1       5.180  -1.624  26.549  0.00  0.00    +0.038 C 
ATOM     10  C   UNL     1       7.776   1.807  24.979  0.00  0.00    +0.060 A 
ATOM     11  C   UNL     1       9.093   2.180  24.364  0.00  0.00    +0.221 A 
ATOM     12  O   UNL     1       9.303   3.339  24.017  0.00  0.00    -0.284 OA
ATOM     13  C   UNL     1      10.114   1.110  24.222  0.00  0.00    +0.167 A 
ATOM     14  C   UNL     1      10.149   0.287  25.294  0.00  0.00    +0.050 A 
ATOM     15  C   UNL     1       9.267  -0.864  25.204  0.00  0.00    +0.012 A 
ATOM     16  C   UNL     1       6.032  -2.499  25.682  0.00  0.00    -0.032 A 
ATOM     17  C   UNL     1       5.528  -3.815  25.654  0.00  0.00    +0.054 A 
ENDROOT
BRANCH   7  18
ATOM     18  N   UNL     1       5.608   1.864  26.866  0.00  0.00    -0.309 N 
ATOM     19  H   UNL     1       6.077   2.058  27.743  0.00  0.00    +0.149 HD
ATOM     20  C   UNL     1       4.293   2.306  26.724  0.00  0.00    +0.210 C 
ATOM     21  O   UNL     1       3.529   1.853  25.873  0.00  0.00    -0.276 OA
ATOM     22  C   UNL     1       3.797   3.329  27.709  0.00  0.00    +0.109 C 
ENDBRANCH   7  18
BRANCH   1  24
ATOM     23  C   UNL     1       5.084  -6.464  26.364  0.00  0.00    +0.277 C 
ATOM     24  O   UNL     1       5.708  -6.140  25.119  0.00  0.00    -0.491 OA
ENDBRANCH   1  24
BRANCH   2  25
ATOM     25  O   UNL     1       7.823  -5.473  23.331  0.00  0.00    -0.488 OA
ATOM     26  C   UNL     1       7.236  -5.831  22.088  0.00  0.00    +0.277 C 
ENDBRANCH   2  25
BRANCH   3  27
ATOM     27  O   UNL     1       8.719  -2.794  23.214  0.00  0.00    -0.491 OA
ATOM     28  C   UNL     1       8.337  -2.292  21.938  0.00  0.00    +0.277 C 
ENDBRANCH   3  27
BRANCH  13  29
ATOM     29  O   UNL     1      10.522   0.858  22.933  0.00  0.00    -0.491 OA
ATOM     30  C   UNL     1       9.553   1.027  21.913  0.00  0.00    +0.277 C 
ENDBRANCH  13  29
TORSDOF 5
ENDMDL
MODEL 6
REMARK VINA RESULT:      -5.8      2.379      6.075
REMARK  Name = 
REMARK  10 active torsions:
REMARK  status: ('A' for Active; 'I' for Inactive)
REMARK    1  A    between atoms: C_1  and  O_2
REMARK    2  A    between atoms: O_2  and  C_3
REMARK    3  A    between atoms: C_7  and  O_8
REMARK    4  A    between atoms: O_8  and  C_9
REMARK    5  A    between atoms: C_10  and  O_11
REMARK    6  A    between atoms: O_11  and  C_12
REMARK    7  A    between atoms: C_16  and  O_17
REMARK    8  A    between atoms: O_17  and  C_18
REMARK    9  A    between atoms: C_23  and  N_26
REMARK   10  A    between atoms: C_27  and  C_28
REMARK                            x       y       z     vdW  Elec       q    Type
REMARK                         _______ _______ _______ _____ _____    ______ ____
ROOT
ATOM      1  C   UNL     1       6.909   1.726  23.003  0.00  0.00    +0.165 A 
ATOM      2  C   UNL     1       7.810   0.727  22.619  0.00  0.00    +0.204 A 
ATOM      3  C   UNL     1       7.773  -0.554  23.274  0.00  0.00    +0.173 A 
ATOM      4  C   UNL     1       6.817  -0.858  24.323  0.00  0.00    +0.031 A 
ATOM      5  C   UNL     1       6.599  -2.312  24.843  0.00  0.00    -0.009 A 
ATOM      6  C   UNL     1       6.212  -2.742  26.274  0.00  0.00    -0.016 A 
ATOM      7  C   UNL     1       5.336  -1.785  27.076  0.00  0.00    +0.104 C 
ATOM      8  C   UNL     1       4.381  -1.028  26.158  0.00  0.00    +0.032 C 
ATOM      9  C   UNL     1       5.040   0.286  25.874  0.00  0.00    +0.038 C 
ATOM     10  C   UNL     1       6.542  -3.927  26.862  0.00  0.00    +0.060 A 
ATOM     11  C   UNL     1       7.220  -5.155  26.330  0.00  0.00    +0.221 A 
ATOM     12  O   UNL     1       7.497  -6.082  27.086  0.00  0.00    -0.284 OA
ATOM     13  C   UNL     1       7.512  -5.203  24.874  0.00  0.00    +0.167 A 
ATOM     14  C   UNL     1       6.507  -4.688  24.131  0.00  0.00    +0.050 A 
ATOM     15  C   UNL     1       6.616  -3.263  23.869  0.00  0.00    +0.012 A 
ATOM     16  C   UNL     1       6.026   0.237  24.748  0.00  0.00    -0.032 A 
ATOM     17  C   UNL     1       6.112   1.489  24.107  0.00  0.00    +0.054 A 
ENDROOT
BRANCH   7  18
ATOM     18  N   UNL     1       4.505  -2.359  28.149  0.00  0.00    -0.309 N 
ATOM     19  H   UNL     1       3.843  -3.086  27.911  0.00  0.00    +0.149 HD
ATOM     20  C   UNL     1       4.166  -1.488  29.184  0.00  0.00    +0.210 C 
ATOM     21  O   UNL     1       4.709  -0.394  29.337  0.00  0.00    -0.276 OA
ATOM     22  C   UNL     1       3.041  -1.900  30.093  0.00  0.00    +0.109 C 
ENDBRANCH   7  18
BRANCH   1  24
ATOM     23  C   UNL     1       7.390   4.055  22.952  0.00  0.00    +0.277 C 
ATOM     24  O   UNL     1       6.825   2.906  22.316  0.00  0.00    -0.491 OA
ENDBRANCH   1  24
BRANCH   2  25
ATOM     25  O   UNL     1       8.706   0.894  21.591  0.00  0.00    -0.488 OA
ATOM     26  C   UNL     1       9.952   1.524  21.854  0.00  0.00    +0.277 C 
ENDBRANCH   2  25
BRANCH   3  27
ATOM     27  O   UNL     1       8.694  -1.558  22.999  0.00  0.00    -0.491 OA
ATOM     28  C   UNL     1       9.916  -1.580  23.731  0.00  0.00    +0.277 C 
ENDBRANCH   3  27
BRANCH  13  29
ATOM     29  O   UNL     1       8.841  -5.333  24.547  0.00  0.00    -0.491 OA
ATOM     30  C   UNL     1       9.779  -4.820  25.477  0.00  0.00    +0.277 C 
ENDBRANCH  13  29
TORSDOF 5
ENDMDL
MODEL 7
REMARK VINA RESULT:      -5.8      2.905      7.459
REMARK  Name = 
REMARK  10 active torsions:
REMARK  status: ('A' for Active; 'I' for Inactive)
REMARK    1  A    between atoms: C_1  and  O_2
REMARK    2  A    between atoms: O_2  and  C_3
REMARK    3  A    between atoms: C_7  and  O_8
REMARK    4  A    between atoms: O_8  and  C_9
REMARK    5  A    between atoms: C_10  and  O_11
REMARK    6  A    between atoms: O_11  and  C_12
REMARK    7  A    between atoms: C_16  and  O_17
REMARK    8  A    between atoms: O_17  and  C_18
REMARK    9  A    between atoms: C_23  and  N_26
REMARK   10  A    between atoms: C_27  and  C_28
REMARK                            x       y       z     vdW  Elec       q    Type
REMARK                         _______ _______ _______ _____ _____    ______ ____
ROOT
ATOM      1  C   UNL     1       9.532   2.182  22.749  0.00  0.00    +0.165 A 
ATOM      2  C   UNL     1       8.436   2.616  23.501  0.00  0.00    +0.204 A 
ATOM      3  C   UNL     1       7.498   1.651  24.013  0.00  0.00    +0.173 A 
ATOM      4  C   UNL     1       7.654   0.226  23.786  0.00  0.00    +0.031 A 
ATOM      5  C   UNL     1       6.800  -0.829  24.555  0.00  0.00    -0.009 A 
ATOM      6  C   UNL     1       6.327  -2.203  24.034  0.00  0.00    -0.016 A 
ATOM      7  C   UNL     1       7.230  -2.919  23.036  0.00  0.00    +0.104 C 
ATOM      8  C   UNL     1       8.698  -2.605  23.313  0.00  0.00    +0.032 C 
ATOM      9  C   UNL     1       9.061  -1.487  22.387  0.00  0.00    +0.038 C 
ATOM     10  C   UNL     1       5.197  -2.854  24.431  0.00  0.00    +0.060 A 
ATOM     11  C   UNL     1       4.187  -2.550  25.498  0.00  0.00    +0.221 A 
ATOM     12  O   UNL     1       3.183  -3.246  25.612  0.00  0.00    -0.284 OA
ATOM     13  C   UNL     1       4.468  -1.406  26.405  0.00  0.00    +0.167 A 
ATOM     14  C   UNL     1       5.772  -1.336  26.756  0.00  0.00    +0.050 A 
ATOM     15  C   UNL     1       6.597  -0.535  25.868  0.00  0.00    +0.012 A 
ATOM     16  C   UNL     1       8.709  -0.129  22.911  0.00  0.00    -0.032 A 
ATOM     17  C   UNL     1       9.589   0.846  22.399  0.00  0.00    +0.054 A 
ENDROOT
BRANCH   7  18
ATOM     18  N   UNL     1       7.132  -4.387  22.958  0.00  0.00    -0.309 N 
ATOM     19  H   UNL     1       7.894  -4.942  23.328  0.00  0.00    +0.149 HD
ATOM     20  C   UNL     1       6.437  -4.891  21.859  0.00  0.00    +0.210 C 
ATOM     21  O   UNL     1       5.741  -4.183  21.131  0.00  0.00    -0.276 OA
ATOM     22  C   UNL     1       6.619  -6.348  21.536  0.00  0.00    +0.109 C 
ENDBRANCH   7  18
BRANCH   1  24
ATOM     23  C   UNL     1      11.470   3.419  23.357  0.00  0.00    +0.277 C 
ATOM     24  O   UNL     1      10.514   3.052  22.360  0.00  0.00    -0.491 OA
ENDBRANCH   1  24
BRANCH   2  25
ATOM     25  O   UNL     1       8.238   3.935  23.829  0.00  0.00    -0.488 OA
ATOM     26  C   UNL     1       8.632   4.395  25.114  0.00  0.00    +0.277 C 
ENDBRANCH   2  25
BRANCH   3  27
ATOM     27  O   UNL     1       6.344   2.023  24.693  0.00  0.00    -0.491 OA
ATOM     28  C   UNL     1       5.212   2.440  23.937  0.00  0.00    +0.277 C 
ENDBRANCH   3  27
BRANCH  13  29
ATOM     29  O   UNL     1       3.530  -0.402  26.388  0.00  0.00    -0.491 OA
ATOM     30  C   UNL     1       3.193   0.178  27.636  0.00  0.00    +0.277 C 
ENDBRANCH  13  29
TORSDOF 5
ENDMDL
MODEL 8
REMARK VINA RESULT:      -5.7      2.597      7.654
REMARK  Name = 
REMARK  10 active torsions:
REMARK  status: ('A' for Active; 'I' for Inactive)
REMARK    1  A    between atoms: C_1  and  O_2
REMARK    2  A    between atoms: O_2  and  C_3
REMARK    3  A    between atoms: C_7  and  O_8
REMARK    4  A    between atoms: O_8  and  C_9
REMARK    5  A    between atoms: C_10  and  O_11
REMARK    6  A    between atoms: O_11  and  C_12
REMARK    7  A    between atoms: C_16  and  O_17
REMARK    8  A    between atoms: O_17  and  C_18
REMARK    9  A    between atoms: C_23  and  N_26
REMARK   10  A    between atoms: C_27  and  C_28
REMARK                            x       y       z     vdW  Elec       q    Type
REMARK                         _______ _______ _______ _____ _____    ______ ____
ROOT
ATOM      1  C   UNL     1       8.080   1.664  24.885  0.00  0.00    +0.165 A 
ATOM      2  C   UNL     1       7.611   1.196  26.117  0.00  0.00    +0.204 A 
ATOM      3  C   UNL     1       7.324  -0.205  26.283  0.00  0.00    +0.173 A 
ATOM      4  C   UNL     1       7.514  -1.165  25.212  0.00  0.00    +0.031 A 
ATOM      5  C   UNL     1       7.461  -2.703  25.464  0.00  0.00    -0.009 A 
ATOM      6  C   UNL     1       6.973  -3.792  24.484  0.00  0.00    -0.016 A 
ATOM      7  C   UNL     1       7.182  -3.534  22.996  0.00  0.00    +0.104 C 
ATOM      8  C   UNL     1       8.456  -2.726  22.761  0.00  0.00    +0.032 C 
ATOM      9  C   UNL     1       8.021  -1.299  22.643  0.00  0.00    +0.038 C 
ATOM     10  C   UNL     1       6.420  -4.986  24.839  0.00  0.00    +0.060 A 
ATOM     11  C   UNL     1       6.229  -5.645  26.173  0.00  0.00    +0.221 A 
ATOM     12  O   UNL     1       5.610  -6.703  26.255  0.00  0.00    -0.284 OA
ATOM     13  C   UNL     1       6.831  -4.984  27.360  0.00  0.00    +0.167 A 
ATOM     14  C   UNL     1       8.055  -4.474  27.098  0.00  0.00    +0.050 A 
ATOM     15  C   UNL     1       8.051  -3.100  26.625  0.00  0.00    +0.012 A 
ATOM     16  C   UNL     1       7.865  -0.603  23.960  0.00  0.00    -0.032 A 
ATOM     17  C   UNL     1       8.106   0.779  23.824  0.00  0.00    +0.054 A 
ENDROOT
BRANCH   7  18
ATOM     18  N   UNL     1       7.270  -4.706  22.107  0.00  0.00    -0.309 N 
ATOM     19  H   UNL     1       8.130  -4.862  21.597  0.00  0.00    +0.149 HD
ATOM     20  C   UNL     1       6.077  -5.097  21.500  0.00  0.00    +0.210 C 
ATOM     21  O   UNL     1       4.980  -4.668  21.854  0.00  0.00    -0.276 OA
ATOM     22  C   UNL     1       6.174  -6.031  20.325  0.00  0.00    +0.109 C 
ENDBRANCH   7  18
BRANCH   1  24
ATOM     23  C   UNL     1       9.491   3.196  23.736  0.00  0.00    +0.277 C 
ATOM     24  O   UNL     1       8.490   2.960  24.729  0.00  0.00    -0.491 OA
ENDBRANCH   1  24
BRANCH   2  25
ATOM     25  O   UNL     1       7.463   2.013  27.212  0.00  0.00    -0.488 OA
ATOM     26  C   UNL     1       6.304   2.828  27.316  0.00  0.00    +0.277 C 
ENDBRANCH   2  25
BRANCH   3  27
ATOM     27  O   UNL     1       6.776  -0.719  27.452  0.00  0.00    -0.491 OA
ATOM     28  C   UNL     1       5.359  -0.732  27.592  0.00  0.00    +0.277 C 
ENDBRANCH   3  27
BRANCH  13  29
ATOM     29  O   UNL     1       5.940  -4.615  28.340  0.00  0.00    -0.491 OA
ATOM     30  C   UNL     1       5.671  -5.572  29.350  0.00  0.00    +0.277 C 
ENDBRANCH  13  29
TORSDOF 5
ENDMDL
MODEL 9
REMARK VINA RESULT:      -5.6      2.001      2.059
REMARK  Name = 
REMARK  10 active torsions:
REMARK  status: ('A' for Active; 'I' for Inactive)
REMARK    1  A    between atoms: C_1  and  O_2
REMARK    2  A    between atoms: O_2  and  C_3
REMARK    3  A    between atoms: C_7  and  O_8
REMARK    4  A    between atoms: O_8  and  C_9
REMARK    5  A    between atoms: C_10  and  O_11
REMARK    6  A    between atoms: O_11  and  C_12
REMARK    7  A    between atoms: C_16  and  O_17
REMARK    8  A    between atoms: O_17  and  C_18
REMARK    9  A    between atoms: C_23  and  N_26
REMARK   10  A    between atoms: C_27  and  C_28
REMARK                            x       y       z     vdW  Elec       q    Type
REMARK                         _______ _______ _______ _____ _____    ______ ____
ROOT
ATOM      1  C   UNL     1       4.205  -3.454  24.591  0.00  0.00    +0.165 A 
ATOM      2  C   UNL     1       5.058  -3.392  23.484  0.00  0.00    +0.204 A 
ATOM      3  C   UNL     1       6.136  -2.438  23.469  0.00  0.00    +0.173 A 
ATOM      4  C   UNL     1       6.383  -1.534  24.577  0.00  0.00    +0.031 A 
ATOM      5  C   UNL     1       7.694  -0.695  24.680  0.00  0.00    -0.009 A 
ATOM      6  C   UNL     1       7.857   0.706  25.306  0.00  0.00    -0.016 A 
ATOM      7  C   UNL     1       6.944   1.056  26.476  0.00  0.00    +0.104 C 
ATOM      8  C   UNL     1       6.629  -0.185  27.307  0.00  0.00    +0.032 C 
ATOM      9  C   UNL     1       5.307  -0.685  26.811  0.00  0.00    +0.038 C 
ATOM     10  C   UNL     1       8.784   1.636  24.938  0.00  0.00    +0.060 A 
ATOM     11  C   UNL     1       9.934   1.578  23.976  0.00  0.00    +0.221 A 
ATOM     12  O   UNL     1      10.587   2.589  23.736  0.00  0.00    -0.284 OA
ATOM     13  C   UNL     1      10.251   0.263  23.362  0.00  0.00    +0.167 A 
ATOM     14  C   UNL     1      10.137  -0.757  24.242  0.00  0.00    +0.050 A 
ATOM     15  C   UNL     1       8.817  -1.363  24.298  0.00  0.00    +0.012 A 
ATOM     16  C   UNL     1       5.407  -1.563  25.602  0.00  0.00    -0.032 A 
ATOM     17  C   UNL     1       4.343  -2.487  25.569  0.00  0.00    +0.054 A 
ENDROOT
BRANCH   7  18
ATOM     18  N   UNL     1       7.417   2.077  27.428  0.00  0.00    -0.309 N 
ATOM     19  H   UNL     1       7.985   1.780  28.212  0.00  0.00    +0.149 HD
ATOM     20  C   UNL     1       6.568   3.166  27.620  0.00  0.00    +0.210 C 
ATOM     21  O   UNL     1       5.612   3.402  26.881  0.00  0.00    -0.276 OA
ATOM     22  C   UNL     1       6.816   4.031  28.825  0.00  0.00    +0.109 C 
ENDBRANCH   7  18
BRANCH   1  24
ATOM     23  C   UNL     1       3.344  -5.280  25.848  0.00  0.00    +0.277 C 
ATOM     24  O   UNL     1       3.256  -4.433  24.700  0.00  0.00    -0.491 OA
ENDBRANCH   1  24
BRANCH   2  25
ATOM     25  O   UNL     1       4.949  -4.251  22.417  0.00  0.00    -0.488 OA
ATOM     26  C   UNL     1       5.420  -5.585  22.552  0.00  0.00    +0.277 C 
ENDBRANCH   2  25
BRANCH   3  27
ATOM     27  O   UNL     1       6.965  -2.269  22.366  0.00  0.00    -0.491 OA
ATOM     28  C   UNL     1       7.959  -3.253  22.103  0.00  0.00    +0.277 C 
ENDBRANCH   3  27
BRANCH  13  29
ATOM     29  O   UNL     1      10.176   0.224  21.990  0.00  0.00    -0.491 OA
ATOM     30  C   UNL     1       8.989   0.729  21.402  0.00  0.00    +0.277 C 
ENDBRANCH  13  29
TORSDOF 5
ENDMDL
