MODEL 1
REMARK VINA RESULT:      -6.1      0.000      0.000
REMARK  Name = 
REMARK  1 active torsions:
REMARK  status: ('A' for Active; 'I' for Inactive)
REMARK    1  A    between atoms: C_3  and  C_10
REMARK                            x       y       z     vdW  Elec       q    Type
REMARK                         _______ _______ _______ _____ _____    ______ ____
ROOT
ATOM      1  N   UNL     1       9.561  -1.134  21.485  0.00  0.00    -0.276 N 
ATOM      2  H   UNL     1       9.574  -1.209  20.476  0.00  0.00    +0.189 HD
ATOM      3  C   UNL     1       9.761  -0.011  22.237  0.00  0.00    +0.066 A 
ATOM      4  C   UNL     1      10.028   1.312  21.867  0.00  0.00    +0.028 A 
ATOM      5  C   UNL     1      10.195   2.240  22.898  0.00  0.00    +0.002 A 
ATOM      6  C   UNL     1      10.110   1.854  24.234  0.00  0.00    +0.001 A 
ATOM      7  C   UNL     1       9.846   0.523  24.579  0.00  0.00    +0.012 A 
ATOM      8  C   UNL     1       9.650  -0.432  23.559  0.00  0.00    +0.027 A 
ATOM      9  C   UNL     1       9.349  -1.835  23.480  0.00  0.00    +0.100 A 
ATOM     10  N   UNL     1       9.327  -2.245  22.199  0.00  0.00    -0.173 NA
ENDROOT
BRANCH   9  11
ATOM     11  C   UNL     1       9.086  -2.787  24.562  0.00  0.00    +0.006 A 
ATOM     12  C   UNL     1       8.132  -2.528  25.548  0.00  0.00    +0.030 A 
ATOM     13  C   UNL     1       7.924  -3.478  26.536  0.00  0.00    +0.111 A 
ATOM     14  N   UNL     1       8.583  -4.652  26.601  0.00  0.00    -0.263 NA
ATOM     15  C   UNL     1       9.485  -4.895  25.628  0.00  0.00    +0.111 A 
ATOM     16  C   UNL     1       9.769  -4.006  24.604  0.00  0.00    +0.030 A 
ENDBRANCH   9  11
TORSDOF 1
ENDMDL
MODEL 2
REMARK VINA RESULT:      -5.9      2.081      2.628
REMARK  Name = 
REMARK  1 active torsions:
REMARK  status: ('A' for Active; 'I' for Inactive)
REMARK    1  A    between atoms: C_3  and  C_10
REMARK                            x       y       z     vdW  Elec       q    Type
REMARK                         _______ _______ _______ _____ _____    ______ ____
ROOT
ATOM      1  N   UNL     1       9.568   0.104  25.698  0.00  0.00    -0.276 N 
ATOM      2  H   UNL     1       9.760   0.502  26.609  0.00  0.00    +0.189 HD
ATOM      3  C   UNL     1       9.761   0.690  24.479  0.00  0.00    +0.066 A 
ATOM      4  C   UNL     1      10.260   1.949  24.129  0.00  0.00    +0.028 A 
ATOM      5  C   UNL     1      10.321   2.254  22.766  0.00  0.00    +0.002 A 
ATOM      6  C   UNL     1       9.889   1.342  21.806  0.00  0.00    +0.001 A 
ATOM      7  C   UNL     1       9.389   0.089  22.182  0.00  0.00    +0.012 A 
ATOM      8  C   UNL     1       9.337  -0.255  23.549  0.00  0.00    +0.027 A 
ATOM      9  C   UNL     1       8.935  -1.392  24.329  0.00  0.00    +0.100 A 
ATOM     10  N   UNL     1       9.060  -1.136  25.643  0.00  0.00    -0.173 NA
ENDROOT
BRANCH   9  11
ATOM     11  C   UNL     1       8.441  -2.696  23.877  0.00  0.00    +0.006 A 
ATOM     12  C   UNL     1       7.666  -2.825  22.723  0.00  0.00    +0.030 A 
ATOM     13  C   UNL     1       7.244  -4.090  22.345  0.00  0.00    +0.111 A 
ATOM     14  N   UNL     1       7.543  -5.217  23.022  0.00  0.00    -0.263 NA
ATOM     15  C   UNL     1       8.310  -5.075  24.123  0.00  0.00    +0.111 A 
ATOM     16  C   UNL     1       8.775  -3.855  24.584  0.00  0.00    +0.030 A 
ENDBRANCH   9  11
TORSDOF 1
ENDMDL
MODEL 3
REMARK VINA RESULT:      -5.8      1.758      2.551
REMARK  Name = 
REMARK  1 active torsions:
REMARK  status: ('A' for Active; 'I' for Inactive)
REMARK    1  A    between atoms: C_3  and  C_10
REMARK                            x       y       z     vdW  Elec       q    Type
REMARK                         _______ _______ _______ _____ _____    ______ ____
ROOT
ATOM      1  N   UNL     1       9.475   0.478  25.505  0.00  0.00    -0.276 N 
ATOM      2  H   UNL     1       9.651   1.309  26.057  0.00  0.00    +0.189 HD
ATOM      3  C   UNL     1       9.536   0.358  24.145  0.00  0.00    +0.066 A 
ATOM      4  C   UNL     1       9.845   1.290  23.149  0.00  0.00    +0.028 A 
ATOM      5  C   UNL     1       9.807   0.845  21.825  0.00  0.00    +0.002 A 
ATOM      6  C   UNL     1       9.462  -0.471  21.519  0.00  0.00    +0.001 A 
ATOM      7  C   UNL     1       9.153  -1.384  22.534  0.00  0.00    +0.012 A 
ATOM      8  C   UNL     1       9.206  -0.968  23.881  0.00  0.00    +0.027 A 
ATOM      9  C   UNL     1       8.994  -1.564  25.171  0.00  0.00    +0.100 A 
ATOM     10  N   UNL     1       9.139  -0.649  26.147  0.00  0.00    -0.173 NA
ENDROOT
BRANCH   9  11
ATOM     11  C   UNL     1       8.663  -2.951  25.506  0.00  0.00    +0.006 A 
ATOM     12  C   UNL     1       9.340  -4.026  24.926  0.00  0.00    +0.030 A 
ATOM     13  C   UNL     1       8.986  -5.313  25.298  0.00  0.00    +0.111 A 
ATOM     14  N   UNL     1       8.025  -5.598  26.201  0.00  0.00    -0.263 NA
ATOM     15  C   UNL     1       7.396  -4.547  26.767  0.00  0.00    +0.111 A 
ATOM     16  C   UNL     1       7.674  -3.226  26.456  0.00  0.00    +0.030 A 
ENDBRANCH   9  11
TORSDOF 1
ENDMDL
MODEL 4
REMARK VINA RESULT:      -5.7      3.045      4.991
REMARK  Name = 
REMARK  1 active torsions:
REMARK  status: ('A' for Active; 'I' for Inactive)
REMARK    1  A    between atoms: C_3  and  C_10
REMARK                            x       y       z     vdW  Elec       q    Type
REMARK                         _______ _______ _______ _____ _____    ______ ____
ROOT
ATOM      1  N   UNL     1       8.395   4.360  24.428  0.00  0.00    -0.276 N 
ATOM      2  H   UNL     1       7.609   4.869  24.814  0.00  0.00    +0.189 HD
ATOM      3  C   UNL     1       9.660   4.827  24.209  0.00  0.00    +0.066 A 
ATOM      4  C   UNL     1      10.233   6.082  24.442  0.00  0.00    +0.028 A 
ATOM      5  C   UNL     1      11.576   6.244  24.092  0.00  0.00    +0.002 A 
ATOM      6  C   UNL     1      12.301   5.198  23.524  0.00  0.00    +0.001 A 
ATOM      7  C   UNL     1      11.704   3.952  23.297  0.00  0.00    +0.012 A 
ATOM      8  C   UNL     1      10.355   3.753  23.662  0.00  0.00    +0.027 A 
ATOM      9  C   UNL     1       9.408   2.675  23.625  0.00  0.00    +0.100 A 
ATOM     10  N   UNL     1       8.207   3.081  24.074  0.00  0.00    -0.173 NA
ENDROOT
BRANCH   9  11
ATOM     11  C   UNL     1       9.599   1.290  23.183  0.00  0.00    +0.006 A 
ATOM     12  C   UNL     1       9.888   0.267  24.088  0.00  0.00    +0.030 A 
ATOM     13  C   UNL     1      10.043  -1.022  23.605  0.00  0.00    +0.111 A 
ATOM     14  N   UNL     1       9.923  -1.358  22.304  0.00  0.00    -0.263 NA
ATOM     15  C   UNL     1       9.622  -0.360  21.447  0.00  0.00    +0.111 A 
ATOM     16  C   UNL     1       9.455   0.960  21.832  0.00  0.00    +0.030 A 
ENDBRANCH   9  11
TORSDOF 1
ENDMDL
MODEL 5
REMARK VINA RESULT:      -5.7      3.514      5.490
REMARK  Name = 
REMARK  1 active torsions:
REMARK  status: ('A' for Active; 'I' for Inactive)
REMARK    1  A    between atoms: C_3  and  C_10
REMARK                            x       y       z     vdW  Elec       q    Type
REMARK                         _______ _______ _______ _____ _____    ______ ____
ROOT
ATOM      1  N   UNL     1      11.393   5.274  23.411  0.00  0.00    -0.276 N 
ATOM      2  H   UNL     1      12.141   5.928  23.217  0.00  0.00    +0.189 HD
ATOM      3  C   UNL     1      10.160   5.553  23.929  0.00  0.00    +0.066 A 
ATOM      4  C   UNL     1       9.578   6.762  24.326  0.00  0.00    +0.028 A 
ATOM      5  C   UNL     1       8.277   6.706  24.835  0.00  0.00    +0.002 A 
ATOM      6  C   UNL     1       7.603   5.492  24.950  0.00  0.00    +0.001 A 
ATOM      7  C   UNL     1       8.209   4.295  24.549  0.00  0.00    +0.012 A 
ATOM      8  C   UNL     1       9.512   4.324  24.010  0.00  0.00    +0.027 A 
ATOM      9  C   UNL     1      10.449   3.372  23.481  0.00  0.00    +0.100 A 
ATOM     10  N   UNL     1      11.603   3.977  23.147  0.00  0.00    -0.173 NA
ENDROOT
BRANCH   9  11
ATOM     11  C   UNL     1      10.290   1.929  23.285  0.00  0.00    +0.006 A 
ATOM     12  C   UNL     1       9.962   1.392  22.039  0.00  0.00    +0.030 A 
ATOM     13  C   UNL     1       9.840   0.016  21.920  0.00  0.00    +0.111 A 
ATOM     14  N   UNL     1      10.029  -0.847  22.938  0.00  0.00    -0.263 NA
ATOM     15  C   UNL     1      10.367  -0.312  24.130  0.00  0.00    +0.111 A 
ATOM     16  C   UNL     1      10.505   1.049  24.350  0.00  0.00    +0.030 A 
ENDBRANCH   9  11
TORSDOF 1
ENDMDL
MODEL 6
REMARK VINA RESULT:      -5.6      2.326      5.348
REMARK  Name = 
REMARK  1 active torsions:
REMARK  status: ('A' for Active; 'I' for Inactive)
REMARK    1  A    between atoms: C_3  and  C_10
REMARK                            x       y       z     vdW  Elec       q    Type
REMARK                         _______ _______ _______ _____ _____    ______ ____
ROOT
ATOM      1  N   UNL     1       9.160  -4.079  24.225  0.00  0.00    -0.276 N 
ATOM      2  H   UNL     1       9.571  -4.903  24.647  0.00  0.00    +0.189 HD
ATOM      3  C   UNL     1       7.896  -3.946  23.726  0.00  0.00    +0.066 A 
ATOM      4  C   UNL     1       6.833  -4.852  23.649  0.00  0.00    +0.028 A 
ATOM      5  C   UNL     1       5.650  -4.399  23.058  0.00  0.00    +0.002 A 
ATOM      6  C   UNL     1       5.548  -3.102  22.559  0.00  0.00    +0.001 A 
ATOM      7  C   UNL     1       6.627  -2.215  22.644  0.00  0.00    +0.012 A 
ATOM      8  C   UNL     1       7.826  -2.637  23.256  0.00  0.00    +0.027 A 
ATOM      9  C   UNL     1       9.108  -2.064  23.556  0.00  0.00    +0.100 A 
ATOM     10  N   UNL     1       9.916  -2.977  24.125  0.00  0.00    -0.173 NA
ENDROOT
BRANCH   9  11
ATOM     11  C   UNL     1       9.588  -0.699  23.324  0.00  0.00    +0.006 A 
ATOM     12  C   UNL     1       9.488  -0.090  22.072  0.00  0.00    +0.030 A 
ATOM     13  C   UNL     1       9.949   1.208  21.926  0.00  0.00    +0.111 A 
ATOM     14  N   UNL     1      10.486   1.934  22.928  0.00  0.00    -0.263 NA
ATOM     15  C   UNL     1      10.554   1.338  24.136  0.00  0.00    +0.111 A 
ATOM     16  C   UNL     1      10.127   0.043  24.380  0.00  0.00    +0.030 A 
ENDBRANCH   9  11
TORSDOF 1
ENDMDL
MODEL 7
REMARK VINA RESULT:      -5.6      2.457      2.617
REMARK  Name = 
REMARK  1 active torsions:
REMARK  status: ('A' for Active; 'I' for Inactive)
REMARK    1  A    between atoms: C_3  and  C_10
REMARK                            x       y       z     vdW  Elec       q    Type
REMARK                         _______ _______ _______ _____ _____    ______ ____
ROOT
ATOM      1  N   UNL     1      10.130  -0.809  21.726  0.00  0.00    -0.276 N 
ATOM      2  H   UNL     1      11.067  -0.798  21.342  0.00  0.00    +0.189 HD
ATOM      3  C   UNL     1       9.338   0.268  22.010  0.00  0.00    +0.066 A 
ATOM      4  C   UNL     1       9.560   1.641  21.863  0.00  0.00    +0.028 A 
ATOM      5  C   UNL     1       8.532   2.499  22.265  0.00  0.00    +0.002 A 
ATOM      6  C   UNL     1       7.347   1.999  22.800  0.00  0.00    +0.001 A 
ATOM      7  C   UNL     1       7.151   0.620  22.941  0.00  0.00    +0.012 A 
ATOM      8  C   UNL     1       8.162  -0.271  22.522  0.00  0.00    +0.027 A 
ATOM      9  C   UNL     1       8.349  -1.694  22.472  0.00  0.00    +0.100 A 
ATOM     10  N   UNL     1       9.574  -1.996  22.005  0.00  0.00    -0.173 NA
ENDROOT
BRANCH   9  11
ATOM     11  C   UNL     1       7.420  -2.763  22.845  0.00  0.00    +0.006 A 
ATOM     12  C   UNL     1       6.122  -2.817  22.333  0.00  0.00    +0.030 A 
ATOM     13  C   UNL     1       5.299  -3.864  22.718  0.00  0.00    +0.111 A 
ATOM     14  N   UNL     1       5.678  -4.850  23.556  0.00  0.00    -0.263 NA
ATOM     15  C   UNL     1       6.942  -4.794  24.024  0.00  0.00    +0.111 A 
ATOM     16  C   UNL     1       7.836  -3.786  23.703  0.00  0.00    +0.030 A 
ENDBRANCH   9  11
TORSDOF 1
ENDMDL
MODEL 8
REMARK VINA RESULT:      -5.5      2.096      2.348
REMARK  Name = 
REMARK  1 active torsions:
REMARK  status: ('A' for Active; 'I' for Inactive)
REMARK    1  A    between atoms: C_3  and  C_10
REMARK                            x       y       z     vdW  Elec       q    Type
REMARK                         _______ _______ _______ _____ _____    ______ ____
ROOT
ATOM      1  N   UNL     1       6.097   0.051  23.642  0.00  0.00    -0.276 N 
ATOM      2  H   UNL     1       5.231   0.569  23.722  0.00  0.00    +0.189 HD
ATOM      3  C   UNL     1       7.208   0.398  22.927  0.00  0.00    +0.066 A 
ATOM      4  C   UNL     1       7.482   1.517  22.132  0.00  0.00    +0.028 A 
ATOM      5  C   UNL     1       8.735   1.569  21.516  0.00  0.00    +0.002 A 
ATOM      6  C   UNL     1       9.660   0.541  21.681  0.00  0.00    +0.001 A 
ATOM      7  C   UNL     1       9.361  -0.570  22.479  0.00  0.00    +0.012 A 
ATOM      8  C   UNL     1       8.113  -0.639  23.132  0.00  0.00    +0.027 A 
ATOM      9  C   UNL     1       7.443  -1.549  24.018  0.00  0.00    +0.100 A 
ATOM     10  N   UNL     1       6.199  -1.116  24.293  0.00  0.00    -0.173 NA
ENDROOT
BRANCH   9  11
ATOM     11  C   UNL     1       7.934  -2.798  24.606  0.00  0.00    +0.006 A 
ATOM     12  C   UNL     1       8.285  -2.885  25.954  0.00  0.00    +0.030 A 
ATOM     13  C   UNL     1       8.729  -4.101  26.448  0.00  0.00    +0.111 A 
ATOM     14  N   UNL     1       8.837  -5.221  25.705  0.00  0.00    -0.263 NA
ATOM     15  C   UNL     1       8.473  -5.125  24.410  0.00  0.00    +0.111 A 
ATOM     16  C   UNL     1       8.023  -3.953  23.822  0.00  0.00    +0.030 A 
ENDBRANCH   9  11
TORSDOF 1
ENDMDL
MODEL 9
REMARK VINA RESULT:      -5.5      1.394      1.769
REMARK  Name = 
REMARK  1 active torsions:
REMARK  status: ('A' for Active; 'I' for Inactive)
REMARK    1  A    between atoms: C_3  and  C_10
REMARK                            x       y       z     vdW  Elec       q    Type
REMARK                         _______ _______ _______ _____ _____    ______ ____
ROOT
ATOM      1  N   UNL     1       8.549  -1.798  21.904  0.00  0.00    -0.276 N 
ATOM      2  H   UNL     1       8.408  -1.701  20.906  0.00  0.00    +0.189 HD
ATOM      3  C   UNL     1       9.164  -0.914  22.745  0.00  0.00    +0.066 A 
ATOM      4  C   UNL     1       9.755   0.331  22.503  0.00  0.00    +0.028 A 
ATOM      5  C   UNL     1      10.318   0.992  23.598  0.00  0.00    +0.002 A 
ATOM      6  C   UNL     1      10.299   0.422  24.869  0.00  0.00    +0.001 A 
ATOM      7  C   UNL     1       9.705  -0.828  25.085  0.00  0.00    +0.012 A 
ATOM      8  C   UNL     1       9.108  -1.508  24.002  0.00  0.00    +0.027 A 
ATOM      9  C   UNL     1       8.404  -2.744  23.801  0.00  0.00    +0.100 A 
ATOM     10  N   UNL     1       8.097  -2.910  22.502  0.00  0.00    -0.173 NA
ENDROOT
BRANCH   9  11
ATOM     11  C   UNL     1       8.018  -3.759  24.784  0.00  0.00    +0.006 A 
ATOM     12  C   UNL     1       8.885  -4.157  25.804  0.00  0.00    +0.030 A 
ATOM     13  C   UNL     1       8.451  -5.113  26.709  0.00  0.00    +0.111 A 
ATOM     14  N   UNL     1       7.229  -5.683  26.673  0.00  0.00    -0.263 NA
ATOM     15  C   UNL     1       6.398  -5.270  25.695  0.00  0.00    +0.111 A 
ATOM     16  C   UNL     1       6.741  -4.327  24.740  0.00  0.00    +0.030 A 
ENDBRANCH   9  11
TORSDOF 1
ENDMDL
