MODEL 1
REMARK VINA RESULT:      -6.9      0.000      0.000
REMARK  Name = 
REMARK  6 active torsions:
REMARK  status: ('A' for Active; 'I' for Inactive)
REMARK    1  A    between atoms: C_2  and  O_3
REMARK    2  A    between atoms: C_2  and  C_4
REMARK    3  A    between atoms: C_2  and  C_6
REMARK    4  A    between atoms: C_4  and  O_5
REMARK    5  A    between atoms: C_9  and  N_10
REMARK    6  A    between atoms: C_11  and  C_13
REMARK                            x       y       z     vdW  Elec       q    Type
REMARK                         _______ _______ _______ _____ _____    ______ ____
ROOT
ATOM      1  N   UNL     1       8.513   0.353  23.662  0.00  0.00    -0.280 N 
ATOM      2  H   UNL     1       7.939   0.094  24.450  0.00  0.00    +0.155 HD
ATOM      3  C   UNL     1       8.473  -0.488  22.561  0.00  0.00    +0.265 C 
ATOM      4  O   UNL     1       9.016  -0.279  21.483  0.00  0.00    -0.268 OA
ENDROOT
BRANCH   3   5
ATOM      5  C   UNL     1       7.628  -1.651  22.719  0.00  0.00    +0.103 A 
ATOM      6  N   UNL     1       8.082  -2.892  22.325  0.00  0.00    -0.351 N 
ATOM      7  H   UNL     1       9.007  -3.051  21.946  0.00  0.00    +0.166 HD
ATOM      8  C   UNL     1       7.087  -3.833  22.415  0.00  0.00    +0.047 A 
ATOM      9  C   UNL     1       5.994  -3.206  23.010  0.00  0.00    +0.002 A 
ATOM     10  C   UNL     1       4.829  -3.959  23.246  0.00  0.00    +0.030 A 
ATOM     11  C   UNL     1       4.796  -5.295  22.835  0.00  0.00    +0.042 A 
ATOM     12  C   UNL     1       5.896  -5.894  22.225  0.00  0.00    +0.022 A 
ATOM     13 CL   UNL     1       3.354  -6.211  23.064  0.00  0.00    -0.084 Cl
ATOM     14  C   UNL     1       7.076  -5.174  22.017  0.00  0.00    +0.027 A 
ATOM     15  C   UNL     1       6.354  -1.842  23.224  0.00  0.00    +0.041 A 
ENDBRANCH   3   5
BRANCH   1  19
ATOM     16  C   UNL     1      10.257   4.228  23.686  0.00  0.00    -0.017 A 
ATOM     17  C   UNL     1       8.868   4.046  23.766  0.00  0.00    +0.008 A 
ATOM     18  C   UNL     1       8.310   2.757  23.784  0.00  0.00    +0.023 A 
ATOM     19  C   UNL     1       9.130   1.625  23.724  0.00  0.00    +0.034 A 
ATOM     20  C   UNL     1      10.512   1.810  23.694  0.00  0.00    +0.023 A 
ATOM     21  C   UNL     1      11.069   3.092  23.669  0.00  0.00    +0.008 A 
BRANCH  16  22
ATOM     22  C   UNL     1      10.851   5.621  23.567  0.00  0.00    +0.170 C 
BRANCH  22  23
ATOM     23  O   UNL     1      10.328   6.466  24.591  0.00  0.00    -0.385 OA
ATOM     24  H   UNL     1       9.539   6.913  24.242  0.00  0.00    +0.210 HD
ENDBRANCH  22  23
BRANCH  22  25
ATOM     25  C   UNL     1      12.393   5.603  23.641  0.00  0.00    +0.192 C 
BRANCH  25  26
ATOM     26  O   UNL     1      12.893   6.329  24.760  0.00  0.00    -0.392 OA
ATOM     27  H   UNL     1      12.903   5.721  25.521  0.00  0.00    +0.210 HD
ENDBRANCH  25  26
ENDBRANCH  22  25
ENDBRANCH  16  22
ENDBRANCH   1  19
TORSDOF 6
ENDMDL
MODEL 2
REMARK VINA RESULT:      -6.6      2.032      2.477
REMARK  Name = 
REMARK  6 active torsions:
REMARK  status: ('A' for Active; 'I' for Inactive)
REMARK    1  A    between atoms: C_2  and  O_3
REMARK    2  A    between atoms: C_2  and  C_4
REMARK    3  A    between atoms: C_2  and  C_6
REMARK    4  A    between atoms: C_4  and  O_5
REMARK    5  A    between atoms: C_9  and  N_10
REMARK    6  A    between atoms: C_11  and  C_13
REMARK                            x       y       z     vdW  Elec       q    Type
REMARK                         _______ _______ _______ _____ _____    ______ ____
ROOT
ATOM      1  N   UNL     1       8.717   1.129  24.209  0.00  0.00    -0.280 N 
ATOM      2  H   UNL     1       7.863   1.022  23.684  0.00  0.00    +0.155 HD
ATOM      3  C   UNL     1       9.140   0.031  24.940  0.00  0.00    +0.265 C 
ATOM      4  O   UNL     1      10.200  -0.057  25.548  0.00  0.00    -0.268 OA
ENDROOT
BRANCH   3   5
ATOM      5  C   UNL     1       8.262  -1.116  24.871  0.00  0.00    +0.103 A 
ATOM      6  N   UNL     1       8.171  -1.982  25.941  0.00  0.00    -0.351 N 
ATOM      7  H   UNL     1       8.674  -1.847  26.809  0.00  0.00    +0.166 HD
ATOM      8  C   UNL     1       7.410  -3.079  25.625  0.00  0.00    +0.047 A 
ATOM      9  C   UNL     1       6.884  -2.850  24.355  0.00  0.00    +0.002 A 
ATOM     10  C   UNL     1       6.034  -3.820  23.791  0.00  0.00    +0.030 A 
ATOM     11  C   UNL     1       5.786  -4.995  24.506  0.00  0.00    +0.042 A 
ATOM     12  C   UNL     1       6.338  -5.208  25.768  0.00  0.00    +0.022 A 
ATOM     13 CL   UNL     1       4.795  -6.216  23.801  0.00  0.00    -0.084 Cl
ATOM     14  C   UNL     1       7.153  -4.240  26.362  0.00  0.00    +0.027 A 
ATOM     15  C   UNL     1       7.402  -1.601  23.902  0.00  0.00    +0.041 A 
ENDBRANCH   3   5
BRANCH   1  19
ATOM     16  C   UNL     1      11.085   4.605  23.600  0.00  0.00    -0.017 A 
ATOM     17  C   UNL     1      11.455   3.360  23.068  0.00  0.00    +0.008 A 
ATOM     18  C   UNL     1      10.646   2.227  23.256  0.00  0.00    +0.023 A 
ATOM     19  C   UNL     1       9.451   2.317  23.980  0.00  0.00    +0.034 A 
ATOM     20  C   UNL     1       9.064   3.566  24.465  0.00  0.00    +0.023 A 
ATOM     21  C   UNL     1       9.871   4.694  24.285  0.00  0.00    +0.008 A 
BRANCH  16  22
ATOM     22  C   UNL     1      12.009   5.805  23.481  0.00  0.00    +0.170 C 
BRANCH  22  23
ATOM     23  O   UNL     1      12.557   6.131  24.757  0.00  0.00    -0.385 OA
ATOM     24  H   UNL     1      11.859   6.545  25.290  0.00  0.00    +0.210 HD
ENDBRANCH  22  23
BRANCH  22  25
ATOM     25  C   UNL     1      13.150   5.560  22.469  0.00  0.00    +0.192 C 
BRANCH  25  26
ATOM     26  O   UNL     1      14.362   5.157  23.101  0.00  0.00    -0.392 OA
ATOM     27  H   UNL     1      14.862   5.966  23.313  0.00  0.00    +0.210 HD
ENDBRANCH  25  26
ENDBRANCH  22  25
ENDBRANCH  16  22
ENDBRANCH   1  19
TORSDOF 6
ENDMDL
MODEL 3
REMARK VINA RESULT:      -6.6      4.259      9.615
REMARK  Name = 
REMARK  6 active torsions:
REMARK  status: ('A' for Active; 'I' for Inactive)
REMARK    1  A    between atoms: C_2  and  O_3
REMARK    2  A    between atoms: C_2  and  C_4
REMARK    3  A    between atoms: C_2  and  C_6
REMARK    4  A    between atoms: C_4  and  O_5
REMARK    5  A    between atoms: C_9  and  N_10
REMARK    6  A    between atoms: C_11  and  C_13
REMARK                            x       y       z     vdW  Elec       q    Type
REMARK                         _______ _______ _______ _____ _____    ______ ____
ROOT
ATOM      1  N   UNL     1       8.288  -1.023  23.737  0.00  0.00    -0.280 N 
ATOM      2  H   UNL     1       9.283  -1.042  23.574  0.00  0.00    +0.155 HD
ATOM      3  C   UNL     1       7.715   0.221  23.944  0.00  0.00    +0.265 C 
ATOM      4  O   UNL     1       6.516   0.447  24.051  0.00  0.00    -0.268 OA
ENDROOT
BRANCH   3   5
ATOM      5  C   UNL     1       8.648   1.326  23.930  0.00  0.00    +0.103 A 
ATOM      6  N   UNL     1       8.253   2.570  24.375  0.00  0.00    -0.351 N 
ATOM      7  H   UNL     1       7.331   2.758  24.749  0.00  0.00    +0.166 HD
ATOM      8  C   UNL     1       9.224   3.510  24.141  0.00  0.00    +0.047 A 
ATOM      9  C   UNL     1      10.334   2.826  23.649  0.00  0.00    +0.002 A 
ATOM     10  C   UNL     1      11.497   3.558  23.344  0.00  0.00    +0.030 A 
ATOM     11  C   UNL     1      11.482   4.946  23.505  0.00  0.00    +0.042 A 
ATOM     12  C   UNL     1      10.352   5.609  23.983  0.00  0.00    +0.022 A 
ATOM     13 CL   UNL     1      12.879   5.860  23.079  0.00  0.00    -0.084 Cl
ATOM     14  C   UNL     1       9.200   4.897  24.328  0.00  0.00    +0.027 A 
ATOM     15  C   UNL     1       9.972   1.451  23.547  0.00  0.00    +0.041 A 
ENDBRANCH   3   5
BRANCH   1  19
ATOM     16  C   UNL     1       6.075  -4.589  23.069  0.00  0.00    -0.017 A 
ATOM     17  C   UNL     1       6.557  -3.812  22.005  0.00  0.00    +0.008 A 
ATOM     18  C   UNL     1       7.310  -2.651  22.244  0.00  0.00    +0.023 A 
ATOM     19  C   UNL     1       7.596  -2.244  23.552  0.00  0.00    +0.034 A 
ATOM     20  C   UNL     1       7.156  -3.045  24.605  0.00  0.00    +0.023 A 
ATOM     21  C   UNL     1       6.401  -4.198  24.370  0.00  0.00    +0.008 A 
BRANCH  16  22
ATOM     22  C   UNL     1       5.178  -5.787  22.811  0.00  0.00    +0.170 C 
BRANCH  22  23
ATOM     23  O   UNL     1       5.929  -6.841  22.210  0.00  0.00    -0.385 OA
ATOM     24  H   UNL     1       6.400  -6.479  21.441  0.00  0.00    +0.210 HD
ENDBRANCH  22  23
BRANCH  22  25
ATOM     25  C   UNL     1       4.503  -6.297  24.102  0.00  0.00    +0.192 C 
BRANCH  25  26
ATOM     26  O   UNL     1       4.289  -7.705  24.087  0.00  0.00    -0.392 OA
ATOM     27  H   UNL     1       4.220  -7.979  23.153  0.00  0.00    +0.210 HD
ENDBRANCH  25  26
ENDBRANCH  22  25
ENDBRANCH  16  22
ENDBRANCH   1  19
TORSDOF 6
ENDMDL
MODEL 4
REMARK VINA RESULT:      -6.6      1.358      1.718
REMARK  Name = 
REMARK  6 active torsions:
REMARK  status: ('A' for Active; 'I' for Inactive)
REMARK    1  A    between atoms: C_2  and  O_3
REMARK    2  A    between atoms: C_2  and  C_4
REMARK    3  A    between atoms: C_2  and  C_6
REMARK    4  A    between atoms: C_4  and  O_5
REMARK    5  A    between atoms: C_9  and  N_10
REMARK    6  A    between atoms: C_11  and  C_13
REMARK                            x       y       z     vdW  Elec       q    Type
REMARK                         _______ _______ _______ _____ _____    ______ ____
ROOT
ATOM      1  N   UNL     1       8.659   0.066  24.105  0.00  0.00    -0.280 N 
ATOM      2  H   UNL     1       7.923  -0.149  24.760  0.00  0.00    +0.155 HD
ATOM      3  C   UNL     1       8.996  -0.928  23.200  0.00  0.00    +0.265 C 
ATOM      4  O   UNL     1       9.786  -0.811  22.271  0.00  0.00    -0.268 OA
ENDROOT
BRANCH   3   5
ATOM      5  C   UNL     1       8.255  -2.161  23.353  0.00  0.00    +0.103 A 
ATOM      6  N   UNL     1       8.037  -2.975  22.262  0.00  0.00    -0.351 N 
ATOM      7  H   UNL     1       8.398  -2.773  21.337  0.00  0.00    +0.166 HD
ATOM      8  C   UNL     1       7.192  -4.009  22.578  0.00  0.00    +0.047 A 
ATOM      9  C   UNL     1       6.963  -3.934  23.950  0.00  0.00    +0.002 A 
ATOM     10  C   UNL     1       6.138  -4.904  24.551  0.00  0.00    +0.030 A 
ATOM     11  C   UNL     1       5.545  -5.878  23.743  0.00  0.00    +0.042 A 
ATOM     12  C   UNL     1       5.777  -5.921  22.369  0.00  0.00    +0.022 A 
ATOM     13 CL   UNL     1       4.486  -7.035  24.457  0.00  0.00    -0.084 Cl
ATOM     14  C   UNL     1       6.623  -4.991  21.759  0.00  0.00    +0.027 A 
ATOM     15  C   UNL     1       7.658  -2.786  24.433  0.00  0.00    +0.041 A 
ENDBRANCH   3   5
BRANCH   1  19
ATOM     16  C   UNL     1       9.841   4.145  23.978  0.00  0.00    -0.017 A 
ATOM     17  C   UNL     1       8.722   3.726  24.713  0.00  0.00    +0.008 A 
ATOM     18  C   UNL     1       8.361   2.370  24.766  0.00  0.00    +0.023 A 
ATOM     19  C   UNL     1       9.114   1.406  24.085  0.00  0.00    +0.034 A 
ATOM     20  C   UNL     1      10.253   1.821  23.396  0.00  0.00    +0.023 A 
ATOM     21  C   UNL     1      10.610   3.171  23.336  0.00  0.00    +0.008 A 
BRANCH  16  22
ATOM     22  C   UNL     1      10.170   5.622  23.841  0.00  0.00    +0.170 C 
BRANCH  22  23
ATOM     23  O   UNL     1      11.259   5.800  22.936  0.00  0.00    -0.385 OA
ATOM     24  H   UNL     1      10.897   6.048  22.069  0.00  0.00    +0.210 HD
ENDBRANCH  22  23
BRANCH  22  25
ATOM     25  C   UNL     1       8.955   6.446  23.364  0.00  0.00    +0.192 C 
BRANCH  25  26
ATOM     26  O   UNL     1       8.396   5.943  22.153  0.00  0.00    -0.392 OA
ATOM     27  H   UNL     1       8.845   5.101  21.954  0.00  0.00    +0.210 HD
ENDBRANCH  25  26
ENDBRANCH  22  25
ENDBRANCH  16  22
ENDBRANCH   1  19
TORSDOF 6
ENDMDL
MODEL 5
REMARK VINA RESULT:      -6.3      4.243      9.535
REMARK  Name = 
REMARK  6 active torsions:
REMARK  status: ('A' for Active; 'I' for Inactive)
REMARK    1  A    between atoms: C_2  and  O_3
REMARK    2  A    between atoms: C_2  and  C_4
REMARK    3  A    between atoms: C_2  and  C_6
REMARK    4  A    between atoms: C_4  and  O_5
REMARK    5  A    between atoms: C_9  and  N_10
REMARK    6  A    between atoms: C_11  and  C_13
REMARK                            x       y       z     vdW  Elec       q    Type
REMARK                         _______ _______ _______ _____ _____    ______ ____
ROOT
ATOM      1  N   UNL     1       7.063  -0.939  23.307  0.00  0.00    -0.280 N 
ATOM      2  H   UNL     1       6.607  -0.047  23.423  0.00  0.00    +0.155 HD
ATOM      3  C   UNL     1       8.447  -0.941  23.353  0.00  0.00    +0.265 C 
ATOM      4  O   UNL     1       9.162  -1.936  23.338  0.00  0.00    -0.268 OA
ENDROOT
BRANCH   3   5
ATOM      5  C   UNL     1       9.048   0.363  23.529  0.00  0.00    +0.103 A 
ATOM      6  N   UNL     1       8.331   1.379  24.125  0.00  0.00    -0.351 N 
ATOM      7  H   UNL     1       7.392   1.259  24.485  0.00  0.00    +0.166 HD
ATOM      8  C   UNL     1       9.013   2.568  24.062  0.00  0.00    +0.047 A 
ATOM      9  C   UNL     1      10.266   2.283  23.524  0.00  0.00    +0.002 A 
ATOM     10  C   UNL     1      11.190   3.334  23.369  0.00  0.00    +0.030 A 
ATOM     11  C   UNL     1      10.800   4.630  23.719  0.00  0.00    +0.042 A 
ATOM     12  C   UNL     1       9.533   4.891  24.239  0.00  0.00    +0.022 A 
ATOM     13 CL   UNL     1      11.900   5.935  23.479  0.00  0.00    -0.084 Cl
ATOM     14  C   UNL     1       8.616   3.856  24.437  0.00  0.00    +0.027 A 
ATOM     15  C   UNL     1      10.289   0.890  23.219  0.00  0.00    +0.041 A 
ENDBRANCH   3   5
BRANCH   1  19
ATOM     16  C   UNL     1       4.635  -4.424  23.441  0.00  0.00    -0.017 A 
ATOM     17  C   UNL     1       4.709  -3.537  24.525  0.00  0.00    +0.008 A 
ATOM     18  C   UNL     1       5.495  -2.375  24.454  0.00  0.00    +0.023 A 
ATOM     19  C   UNL     1       6.223  -2.078  23.295  0.00  0.00    +0.034 A 
ATOM     20  C   UNL     1       6.108  -2.938  22.203  0.00  0.00    +0.023 A 
ATOM     21  C   UNL     1       5.331  -4.098  22.275  0.00  0.00    +0.008 A 
BRANCH  16  22
ATOM     22  C   UNL     1       3.864  -5.728  23.557  0.00  0.00    +0.170 C 
BRANCH  22  23
ATOM     23  O   UNL     1       3.782  -6.364  22.282  0.00  0.00    -0.385 OA
ATOM     24  H   UNL     1       3.152  -5.868  21.735  0.00  0.00    +0.210 HD
ENDBRANCH  22  23
BRANCH  22  25
ATOM     25  C   UNL     1       4.503  -6.691  24.581  0.00  0.00    +0.192 C 
BRANCH  25  26
ATOM     26  O   UNL     1       3.711  -7.854  24.804  0.00  0.00    -0.392 OA
ATOM     27  H   UNL     1       3.987  -8.524  24.152  0.00  0.00    +0.210 HD
ENDBRANCH  25  26
ENDBRANCH  22  25
ENDBRANCH  16  22
ENDBRANCH   1  19
TORSDOF 6
ENDMDL
MODEL 6
REMARK VINA RESULT:      -6.3      4.672      9.716
REMARK  Name = 
REMARK  6 active torsions:
REMARK  status: ('A' for Active; 'I' for Inactive)
REMARK    1  A    between atoms: C_2  and  O_3
REMARK    2  A    between atoms: C_2  and  C_4
REMARK    3  A    between atoms: C_2  and  C_6
REMARK    4  A    between atoms: C_4  and  O_5
REMARK    5  A    between atoms: C_9  and  N_10
REMARK    6  A    between atoms: C_11  and  C_13
REMARK                            x       y       z     vdW  Elec       q    Type
REMARK                         _______ _______ _______ _____ _____    ______ ____
ROOT
ATOM      1  N   UNL     1       7.389  -1.814  24.523  0.00  0.00    -0.280 N 
ATOM      2  H   UNL     1       6.844  -0.975  24.651  0.00  0.00    +0.155 HD
ATOM      3  C   UNL     1       8.749  -1.647  24.316  0.00  0.00    +0.265 C 
ATOM      4  O   UNL     1       9.578  -2.547  24.248  0.00  0.00    -0.268 OA
ENDROOT
BRANCH   3   5
ATOM      5  C   UNL     1       9.190  -0.270  24.278  0.00  0.00    +0.103 A 
ATOM      6  N   UNL     1       8.428   0.716  24.870  0.00  0.00    -0.351 N 
ATOM      7  H   UNL     1       7.568   0.528  25.371  0.00  0.00    +0.166 HD
ATOM      8  C   UNL     1       8.933   1.962  24.596  0.00  0.00    +0.047 A 
ATOM      9  C   UNL     1      10.133   1.767  23.914  0.00  0.00    +0.002 A 
ATOM     10  C   UNL     1      10.881   2.895  23.528  0.00  0.00    +0.030 A 
ATOM     11  C   UNL     1      10.372   4.168  23.804  0.00  0.00    +0.042 A 
ATOM     12  C   UNL     1       9.160   4.335  24.472  0.00  0.00    +0.022 A 
ATOM     13 CL   UNL     1      11.249   5.557  23.285  0.00  0.00    -0.084 Cl
ATOM     14  C   UNL     1       8.421   3.228  24.898  0.00  0.00    +0.027 A 
ATOM     15  C   UNL     1      10.299   0.361  23.744  0.00  0.00    +0.041 A 
ENDBRANCH   3   5
BRANCH   1  19
ATOM     16  C   UNL     1       5.538  -5.552  25.333  0.00  0.00    -0.017 A 
ATOM     17  C   UNL     1       5.916  -4.680  26.365  0.00  0.00    +0.008 A 
ATOM     18  C   UNL     1       6.502  -3.436  26.078  0.00  0.00    +0.023 A 
ATOM     19  C   UNL     1       6.721  -3.040  24.754  0.00  0.00    +0.034 A 
ATOM     20  C   UNL     1       6.300  -3.890  23.731  0.00  0.00    +0.023 A 
ATOM     21  C   UNL     1       5.722  -5.131  24.014  0.00  0.00    +0.008 A 
BRANCH  16  22
ATOM     22  C   UNL     1       4.997  -6.937  25.648  0.00  0.00    +0.170 C 
BRANCH  22  23
ATOM     23  O   UNL     1       5.116  -7.204  27.044  0.00  0.00    -0.385 OA
ATOM     24  H   UNL     1       6.033  -7.026  27.311  0.00  0.00    +0.210 HD
ENDBRANCH  22  23
BRANCH  22  25
ATOM     25  C   UNL     1       3.526  -7.098  25.208  0.00  0.00    +0.192 C 
BRANCH  25  26
ATOM     26  O   UNL     1       3.060  -8.437  25.345  0.00  0.00    -0.392 OA
ATOM     27  H   UNL     1       2.609  -8.502  26.208  0.00  0.00    +0.210 HD
ENDBRANCH  25  26
ENDBRANCH  22  25
ENDBRANCH  16  22
ENDBRANCH   1  19
TORSDOF 6
ENDMDL
MODEL 7
REMARK VINA RESULT:      -6.3      4.668      9.947
REMARK  Name = 
REMARK  6 active torsions:
REMARK  status: ('A' for Active; 'I' for Inactive)
REMARK    1  A    between atoms: C_2  and  O_3
REMARK    2  A    between atoms: C_2  and  C_4
REMARK    3  A    between atoms: C_2  and  C_6
REMARK    4  A    between atoms: C_4  and  O_5
REMARK    5  A    between atoms: C_9  and  N_10
REMARK    6  A    between atoms: C_11  and  C_13
REMARK                            x       y       z     vdW  Elec       q    Type
REMARK                         _______ _______ _______ _____ _____    ______ ____
ROOT
ATOM      1  N   UNL     1       6.630  -3.259  23.965  0.00  0.00    -0.280 N 
ATOM      2  H   UNL     1       6.213  -2.521  23.419  0.00  0.00    +0.155 HD
ATOM      3  C   UNL     1       7.859  -2.988  24.542  0.00  0.00    +0.265 C 
ATOM      4  O   UNL     1       8.461  -3.719  25.319  0.00  0.00    -0.268 OA
ENDROOT
BRANCH   3   5
ATOM      5  C   UNL     1       8.391  -1.676  24.244  0.00  0.00    +0.103 A 
ATOM      6  N   UNL     1       8.359  -1.196  22.951  0.00  0.00    -0.351 N 
ATOM      7  H   UNL     1       7.949  -1.707  22.179  0.00  0.00    +0.166 HD
ATOM      8  C   UNL     1       9.042  -0.010  22.848  0.00  0.00    +0.047 A 
ATOM      9  C   UNL     1       9.414   0.352  24.141  0.00  0.00    +0.002 A 
ATOM     10  C   UNL     1      10.116   1.557  24.329  0.00  0.00    +0.030 A 
ATOM     11  C   UNL     1      10.452   2.323  23.209  0.00  0.00    +0.042 A 
ATOM     12  C   UNL     1      10.083   1.929  21.924  0.00  0.00    +0.022 A 
ATOM     13 CL   UNL     1      11.363   3.770  23.420  0.00  0.00    -0.084 Cl
ATOM     14  C   UNL     1       9.352   0.756  21.719  0.00  0.00    +0.027 A 
ATOM     15  C   UNL     1       8.976  -0.687  25.014  0.00  0.00    +0.041 A 
ENDBRANCH   3   5
BRANCH   1  19
ATOM     16  C   UNL     1       4.116  -6.640  24.522  0.00  0.00    -0.017 A 
ATOM     17  C   UNL     1       4.990  -6.546  23.428  0.00  0.00    +0.008 A 
ATOM     18  C   UNL     1       5.834  -5.434  23.274  0.00  0.00    +0.023 A 
ATOM     19  C   UNL     1       5.820  -4.394  24.211  0.00  0.00    +0.034 A 
ATOM     20  C   UNL     1       4.985  -4.515  25.322  0.00  0.00    +0.023 A 
ATOM     21  C   UNL     1       4.140  -5.619  25.474  0.00  0.00    +0.008 A 
BRANCH  16  22
ATOM     22  C   UNL     1       3.136  -7.795  24.633  0.00  0.00    +0.170 C 
BRANCH  22  23
ATOM     23  O   UNL     1       2.822  -8.042  26.003  0.00  0.00    -0.385 OA
ATOM     24  H   UNL     1       3.653  -8.069  26.505  0.00  0.00    +0.210 HD
ENDBRANCH  22  23
BRANCH  22  25
ATOM     25  C   UNL     1       1.838  -7.534  23.838  0.00  0.00    +0.192 C 
BRANCH  25  26
ATOM     26  O   UNL     1       1.946  -7.928  22.473  0.00  0.00    -0.392 OA
ATOM     27  H   UNL     1       1.055  -7.870  22.082  0.00  0.00    +0.210 HD
ENDBRANCH  25  26
ENDBRANCH  22  25
ENDBRANCH  16  22
ENDBRANCH   1  19
TORSDOF 6
ENDMDL
MODEL 8
REMARK VINA RESULT:      -6.2      2.453      3.755
REMARK  Name = 
REMARK  6 active torsions:
REMARK  status: ('A' for Active; 'I' for Inactive)
REMARK    1  A    between atoms: C_2  and  O_3
REMARK    2  A    between atoms: C_2  and  C_4
REMARK    3  A    between atoms: C_2  and  C_6
REMARK    4  A    between atoms: C_4  and  O_5
REMARK    5  A    between atoms: C_9  and  N_10
REMARK    6  A    between atoms: C_11  and  C_13
REMARK                            x       y       z     vdW  Elec       q    Type
REMARK                         _______ _______ _______ _____ _____    ______ ____
ROOT
ATOM      1  N   UNL     1       7.250  -2.459  24.143  0.00  0.00    -0.280 N 
ATOM      2  H   UNL     1       6.267  -2.267  24.258  0.00  0.00    +0.155 HD
ATOM      3  C   UNL     1       7.626  -3.792  24.123  0.00  0.00    +0.265 C 
ATOM      4  O   UNL     1       8.751  -4.215  23.888  0.00  0.00    -0.268 OA
ENDROOT
BRANCH   3   5
ATOM      5  C   UNL     1       6.539  -4.729  24.309  0.00  0.00    +0.103 A 
ATOM      6  N   UNL     1       5.633  -4.945  23.292  0.00  0.00    -0.351 N 
ATOM      7  H   UNL     1       5.698  -4.499  22.386  0.00  0.00    +0.166 HD
ATOM      8  C   UNL     1       4.600  -5.745  23.713  0.00  0.00    +0.047 A 
ATOM      9  C   UNL     1       4.918  -6.164  25.003  0.00  0.00    +0.002 A 
ATOM     10  C   UNL     1       4.028  -7.026  25.672  0.00  0.00    +0.030 A 
ATOM     11  C   UNL     1       2.840  -7.394  25.034  0.00  0.00    +0.042 A 
ATOM     12  C   UNL     1       2.537  -6.946  23.749  0.00  0.00    +0.022 A 
ATOM     13 CL   UNL     1       1.714  -8.400  25.865  0.00  0.00    -0.084 Cl
ATOM     14  C   UNL     1       3.425  -6.121  23.054  0.00  0.00    +0.027 A 
ATOM     15  C   UNL     1       6.152  -5.543  25.358  0.00  0.00    +0.041 A 
ENDBRANCH   3   5
BRANCH   1  19
ATOM     16  C   UNL     1       9.634   0.973  23.368  0.00  0.00    -0.017 A 
ATOM     17  C   UNL     1       9.550   0.410  24.650  0.00  0.00    +0.008 A 
ATOM     18  C   UNL     1       8.780  -0.741  24.883  0.00  0.00    +0.023 A 
ATOM     19  C   UNL     1       8.077  -1.351  23.837  0.00  0.00    +0.034 A 
ATOM     20  C   UNL     1       8.201  -0.816  22.556  0.00  0.00    +0.023 A 
ATOM     21  C   UNL     1       8.963   0.333  22.323  0.00  0.00    +0.008 A 
BRANCH  16  22
ATOM     22  C   UNL     1      10.387   2.273  23.139  0.00  0.00    +0.170 C 
BRANCH  22  23
ATOM     23  O   UNL     1      10.503   2.532  21.741  0.00  0.00    -0.385 OA
ATOM     24  H   UNL     1      11.316   2.109  21.420  0.00  0.00    +0.210 HD
ENDBRANCH  22  23
BRANCH  22  25
ATOM     25  C   UNL     1       9.705   3.469  23.838  0.00  0.00    +0.192 C 
BRANCH  25  26
ATOM     26  O   UNL     1      10.029   4.714  23.226  0.00  0.00    -0.392 OA
ATOM     27  H   UNL     1       9.193   5.200  23.096  0.00  0.00    +0.210 HD
ENDBRANCH  25  26
ENDBRANCH  22  25
ENDBRANCH  16  22
ENDBRANCH   1  19
TORSDOF 6
ENDMDL
MODEL 9
REMARK VINA RESULT:      -6.2      2.000      2.703
REMARK  Name = 
REMARK  6 active torsions:
REMARK  status: ('A' for Active; 'I' for Inactive)
REMARK    1  A    between atoms: C_2  and  O_3
REMARK    2  A    between atoms: C_2  and  C_4
REMARK    3  A    between atoms: C_2  and  C_6
REMARK    4  A    between atoms: C_4  and  O_5
REMARK    5  A    between atoms: C_9  and  N_10
REMARK    6  A    between atoms: C_11  and  C_13
REMARK                            x       y       z     vdW  Elec       q    Type
REMARK                         _______ _______ _______ _____ _____    ______ ____
ROOT
ATOM      1  N   UNL     1       7.396  -1.381  24.372  0.00  0.00    -0.280 N 
ATOM      2  H   UNL     1       6.759  -1.469  25.148  0.00  0.00    +0.155 HD
ATOM      3  C   UNL     1       7.310  -2.348  23.384  0.00  0.00    +0.265 C 
ATOM      4  O   UNL     1       7.925  -2.345  22.324  0.00  0.00    -0.268 OA
ENDROOT
BRANCH   3   5
ATOM      5  C   UNL     1       6.325  -3.379  23.631  0.00  0.00    +0.103 A 
ATOM      6  N   UNL     1       6.385  -4.128  24.788  0.00  0.00    -0.351 N 
ATOM      7  H   UNL     1       7.078  -3.978  25.511  0.00  0.00    +0.166 HD
ATOM      8  C   UNL     1       5.464  -5.145  24.766  0.00  0.00    +0.047 A 
ATOM      9  C   UNL     1       4.698  -4.967  23.616  0.00  0.00    +0.002 A 
ATOM     10  C   UNL     1       3.650  -5.871  23.357  0.00  0.00    +0.030 A 
ATOM     11  C   UNL     1       3.446  -6.937  24.238  0.00  0.00    +0.042 A 
ATOM     12  C   UNL     1       4.239  -7.102  25.372  0.00  0.00    +0.022 A 
ATOM     13 CL   UNL     1       2.205  -8.083  23.900  0.00  0.00    -0.084 Cl
ATOM     14  C   UNL     1       5.259  -6.194  25.668  0.00  0.00    +0.027 A 
ATOM     15  C   UNL     1       5.228  -3.838  22.925  0.00  0.00    +0.041 A 
ENDBRANCH   3   5
BRANCH   1  19
ATOM     16  C   UNL     1       9.624   2.219  24.005  0.00  0.00    -0.017 A 
ATOM     17  C   UNL     1       8.245   2.178  23.748  0.00  0.00    +0.008 A 
ATOM     18  C   UNL     1       7.519   0.985  23.901  0.00  0.00    +0.023 A 
ATOM     19  C   UNL     1       8.158  -0.190  24.314  0.00  0.00    +0.034 A 
ATOM     20  C   UNL     1       9.519  -0.132  24.615  0.00  0.00    +0.023 A 
ATOM     21  C   UNL     1      10.244   1.052  24.457  0.00  0.00    +0.008 A 
BRANCH  16  22
ATOM     22  C   UNL     1      10.424   3.484  23.744  0.00  0.00    +0.170 C 
BRANCH  22  23
ATOM     23  O   UNL     1      11.076   3.399  22.477  0.00  0.00    -0.385 OA
ATOM     24  H   UNL     1      10.417   3.135  21.814  0.00  0.00    +0.210 HD
ENDBRANCH  22  23
BRANCH  22  25
ATOM     25  C   UNL     1       9.541   4.749  23.794  0.00  0.00    +0.192 C 
BRANCH  25  26
ATOM     26  O   UNL     1      10.139   5.858  23.128  0.00  0.00    -0.392 OA
ATOM     27  H   UNL     1      11.105   5.740  23.177  0.00  0.00    +0.210 HD
ENDBRANCH  25  26
ENDBRANCH  22  25
ENDBRANCH  16  22
ENDBRANCH   1  19
TORSDOF 6
ENDMDL
