MODEL 1
REMARK VINA RESULT:      -6.4      0.000      0.000
REMARK  Name = 
REMARK  13 active torsions:
REMARK  status: ('A' for Active; 'I' for Inactive)
REMARK    1  A    between atoms: O_1  and  C_2
REMARK    2  A    between atoms: C_2  and  C_3
REMARK    3  A    between atoms: C_6  and  O_7
REMARK    4  A    between atoms: C_6  and  C_8
REMARK    5  A    between atoms: C_8  and  O_9
REMARK    6  A    between atoms: C_10  and  O_12
REMARK    7  A    between atoms: C_13  and  O_15
REMARK    8  A    between atoms: O_15  and  C_16
REMARK    9  A    between atoms: C_19  and  C_21
REMARK   10  A    between atoms: C_21  and  O_22
REMARK   11  A    between atoms: C_23  and  O_25
REMARK   12  A    between atoms: C_26  and  O_28
REMARK   13  A    between atoms: C_29  and  O_31
REMARK                            x       y       z     vdW  Elec       q    Type
REMARK                         _______ _______ _______ _____ _____    ______ ____
ROOT
ATOM      1  O   UNL     1       6.869  -2.193  24.148  0.00  0.00    -0.340 OA
ENDROOT
BRANCH   1   2
ATOM      2  C   UNL     1       7.122  -0.797  23.928  0.00  0.00    +0.282 C 
ATOM      3  C   UNL     1       7.397  -0.071  25.266  0.00  0.00    +0.201 C 
ATOM      4  C   UNL     1       7.618   1.425  24.954  0.00  0.00    +0.179 C 
ATOM      5  C   UNL     1       8.728   1.608  23.908  0.00  0.00    +0.177 C 
ATOM      6  C   UNL     1       8.367   0.791  22.658  0.00  0.00    +0.178 C 
ATOM      7  O   UNL     1       8.182  -0.601  22.986  0.00  0.00    -0.341 OA
BRANCH   3   8
ATOM      8  O   UNL     1       6.286  -0.244  26.167  0.00  0.00    -0.384 OA
ATOM      9  H   UNL     1       5.460  -0.184  25.658  0.00  0.00    +0.210 HD
ENDBRANCH   3   8
BRANCH   4  10
ATOM     10  O   UNL     1       7.939   2.180  26.126  0.00  0.00    -0.386 OA
ATOM     11  H   UNL     1       7.485   3.040  26.029  0.00  0.00    +0.210 HD
ENDBRANCH   4  10
BRANCH   5  12
ATOM     12  O   UNL     1       9.958   1.190  24.518  0.00  0.00    -0.386 OA
ATOM     13  H   UNL     1      10.309   1.910  25.069  0.00  0.00    +0.210 HD
ENDBRANCH   5  12
BRANCH   6  14
ATOM     14  C   UNL     1       9.433   0.901  21.565  0.00  0.00    +0.190 C 
BRANCH  14  15
ATOM     15  O   UNL     1      10.044   2.189  21.624  0.00  0.00    -0.392 OA
ATOM     16  H   UNL     1      10.657   2.228  20.866  0.00  0.00    +0.210 HD
ENDBRANCH  14  15
ENDBRANCH   6  14
ENDBRANCH   1   2
BRANCH   1  18
ATOM     17  C   UNL     1       7.291  -4.476  23.290  0.00  0.00    +0.178 C 
ATOM     18  C   UNL     1       7.836  -3.061  23.535  0.00  0.00    +0.186 C 
ATOM     19  C   UNL     1       9.029  -3.285  24.473  0.00  0.00    +0.207 C 
ATOM     20  C   UNL     1       8.994  -4.785  24.803  0.00  0.00    +0.220 C 
ATOM     21  O   UNL     1       8.296  -5.412  23.725  0.00  0.00    -0.336 OA
BRANCH  19  22
ATOM     22  O   UNL     1      10.232  -2.977  23.731  0.00  0.00    -0.384 OA
ATOM     23  H   UNL     1      10.701  -3.837  23.642  0.00  0.00    +0.210 HD
ENDBRANCH  19  22
BRANCH  20  24
ATOM     24  O   UNL     1      10.326  -5.305  24.828  0.00  0.00    -0.361 OA
ATOM     25  H   UNL     1      10.220  -6.263  24.655  0.00  0.00    +0.213 HD
ENDBRANCH  20  24
BRANCH  17  26
ATOM     26  C   UNL     1       6.966  -4.744  21.819  0.00  0.00    +0.190 C 
BRANCH  26  27
ATOM     27  O   UNL     1       5.931  -3.857  21.399  0.00  0.00    -0.392 OA
ATOM     28  H   UNL     1       5.426  -4.318  20.707  0.00  0.00    +0.210 HD
ENDBRANCH  26  27
ENDBRANCH  17  26
BRANCH  20  29
ATOM     29  C   UNL     1       8.286  -5.131  26.128  0.00  0.00    +0.223 C 
BRANCH  29  30
ATOM     30  O   UNL     1       9.216  -4.931  27.205  0.00  0.00    -0.390 OA
ATOM     31  H   UNL     1       8.688  -4.977  28.028  0.00  0.00    +0.210 HD
ENDBRANCH  29  30
ENDBRANCH  20  29
ENDBRANCH   1  18
TORSDOF 13
ENDMDL
MODEL 2
REMARK VINA RESULT:      -6.2      1.560      6.427
REMARK  Name = 
REMARK  13 active torsions:
REMARK  status: ('A' for Active; 'I' for Inactive)
REMARK    1  A    between atoms: O_1  and  C_2
REMARK    2  A    between atoms: C_2  and  C_3
REMARK    3  A    between atoms: C_6  and  O_7
REMARK    4  A    between atoms: C_6  and  C_8
REMARK    5  A    between atoms: C_8  and  O_9
REMARK    6  A    between atoms: C_10  and  O_12
REMARK    7  A    between atoms: C_13  and  O_15
REMARK    8  A    between atoms: O_15  and  C_16
REMARK    9  A    between atoms: C_19  and  C_21
REMARK   10  A    between atoms: C_21  and  O_22
REMARK   11  A    between atoms: C_23  and  O_25
REMARK   12  A    between atoms: C_26  and  O_28
REMARK   13  A    between atoms: C_29  and  O_31
REMARK                            x       y       z     vdW  Elec       q    Type
REMARK                         _______ _______ _______ _____ _____    ______ ____
ROOT
ATOM      1  O   UNL     1       6.875  -1.227  23.244  0.00  0.00    -0.340 OA
ENDROOT
BRANCH   1   2
ATOM      2  C   UNL     1       6.732  -2.591  23.670  0.00  0.00    +0.282 C 
ATOM      3  C   UNL     1       7.151  -3.565  22.543  0.00  0.00    +0.201 C 
ATOM      4  C   UNL     1       6.932  -5.005  23.059  0.00  0.00    +0.179 C 
ATOM      5  C   UNL     1       7.674  -5.230  24.385  0.00  0.00    +0.177 C 
ATOM      6  C   UNL     1       7.217  -4.165  25.394  0.00  0.00    +0.178 C 
ATOM      7  O   UNL     1       7.450  -2.837  24.883  0.00  0.00    -0.341 OA
BRANCH   3   8
ATOM      8  O   UNL     1       6.370  -3.325  21.357  0.00  0.00    -0.384 OA
ATOM      9  H   UNL     1       6.661  -2.488  20.957  0.00  0.00    +0.210 HD
ENDBRANCH   3   8
BRANCH   4  10
ATOM     10  O   UNL     1       7.347  -5.988  22.107  0.00  0.00    -0.386 OA
ATOM     11  H   UNL     1       7.278  -6.852  22.560  0.00  0.00    +0.210 HD
ENDBRANCH   4  10
BRANCH   5  12
ATOM     12  O   UNL     1       9.079  -5.169  24.099  0.00  0.00    -0.386 OA
ATOM     13  H   UNL     1       9.212  -4.864  23.185  0.00  0.00    +0.210 HD
ENDBRANCH   5  12
BRANCH   6  14
ATOM     14  C   UNL     1       7.923  -4.305  26.744  0.00  0.00    +0.190 C 
BRANCH  14  15
ATOM     15  O   UNL     1       8.262  -5.672  26.965  0.00  0.00    -0.392 OA
ATOM     16  H   UNL     1       7.435  -6.176  26.843  0.00  0.00    +0.210 HD
ENDBRANCH  14  15
ENDBRANCH   6  14
ENDBRANCH   1   2
BRANCH   1  18
ATOM     17  C   UNL     1       8.437   0.406  24.254  0.00  0.00    +0.178 C 
ATOM     18  C   UNL     1       8.231  -0.753  23.266  0.00  0.00    +0.186 C 
ATOM     19  C   UNL     1       8.611  -0.149  21.908  0.00  0.00    +0.207 C 
ATOM     20  C   UNL     1       8.874   1.338  22.198  0.00  0.00    +0.220 C 
ATOM     21  O   UNL     1       9.213   1.417  23.584  0.00  0.00    -0.336 OA
BRANCH  19  22
ATOM     22  O   UNL     1       9.837  -0.784  21.475  0.00  0.00    -0.384 OA
ATOM     23  H   UNL     1       9.834  -1.664  21.913  0.00  0.00    +0.210 HD
ENDBRANCH  19  22
BRANCH  20  24
ATOM     24  O   UNL     1      10.000   1.786  21.441  0.00  0.00    -0.361 OA
ATOM     25  H   UNL     1       9.841   2.743  21.306  0.00  0.00    +0.213 HD
ENDBRANCH  20  24
BRANCH  17  26
ATOM     26  C   UNL     1       9.170  -0.021  25.527  0.00  0.00    +0.190 C 
BRANCH  26  27
ATOM     27  O   UNL     1      10.514   0.453  25.477  0.00  0.00    -0.392 OA
ATOM     28  H   UNL     1      11.091  -0.312  25.639  0.00  0.00    +0.210 HD
ENDBRANCH  26  27
ENDBRANCH  17  26
BRANCH  20  29
ATOM     29  C   UNL     1       7.671   2.262  21.922  0.00  0.00    +0.223 C 
BRANCH  29  30
ATOM     30  O   UNL     1       8.095   3.623  22.102  0.00  0.00    -0.390 OA
ATOM     31  H   UNL     1       8.563   3.648  22.961  0.00  0.00    +0.210 HD
ENDBRANCH  29  30
ENDBRANCH  20  29
ENDBRANCH   1  18
TORSDOF 13
ENDMDL
MODEL 3
REMARK VINA RESULT:      -6.1      1.644      4.111
REMARK  Name = 
REMARK  13 active torsions:
REMARK  status: ('A' for Active; 'I' for Inactive)
REMARK    1  A    between atoms: O_1  and  C_2
REMARK    2  A    between atoms: C_2  and  C_3
REMARK    3  A    between atoms: C_6  and  O_7
REMARK    4  A    between atoms: C_6  and  C_8
REMARK    5  A    between atoms: C_8  and  O_9
REMARK    6  A    between atoms: C_10  and  O_12
REMARK    7  A    between atoms: C_13  and  O_15
REMARK    8  A    between atoms: O_15  and  C_16
REMARK    9  A    between atoms: C_19  and  C_21
REMARK   10  A    between atoms: C_21  and  O_22
REMARK   11  A    between atoms: C_23  and  O_25
REMARK   12  A    between atoms: C_26  and  O_28
REMARK   13  A    between atoms: C_29  and  O_31
REMARK                            x       y       z     vdW  Elec       q    Type
REMARK                         _______ _______ _______ _____ _____    ______ ____
ROOT
ATOM      1  O   UNL     1       8.821  -3.090  23.395  0.00  0.00    -0.340 OA
ENDROOT
BRANCH   1   2
ATOM      2  C   UNL     1       9.218  -1.733  23.648  0.00  0.00    +0.282 C 
ATOM      3  C   UNL     1       9.301  -0.931  22.328  0.00  0.00    +0.201 C 
ATOM      4  C   UNL     1       9.771   0.500  22.676  0.00  0.00    +0.179 C 
ATOM      5  C   UNL     1       8.857   1.134  23.734  0.00  0.00    +0.177 C 
ATOM      6  C   UNL     1       8.809   0.213  24.963  0.00  0.00    +0.178 C 
ATOM      7  O   UNL     1       8.353  -1.107  24.601  0.00  0.00    -0.341 OA
BRANCH   3   8
ATOM      8  O   UNL     1      10.221  -1.561  21.416  0.00  0.00    -0.384 OA
ATOM      9  H   UNL     1      11.128  -1.340  21.687  0.00  0.00    +0.210 HD
ENDBRANCH   3   8
BRANCH   4  10
ATOM     10  O   UNL     1       9.826   1.345  21.524  0.00  0.00    -0.386 OA
ATOM     11  H   UNL     1       8.911   1.402  21.184  0.00  0.00    +0.210 HD
ENDBRANCH   4  10
BRANCH   5  12
ATOM     12  O   UNL     1       7.572   1.325  23.123  0.00  0.00    -0.386 OA
ATOM     13  H   UNL     1       7.171   0.459  22.931  0.00  0.00    +0.210 HD
ENDBRANCH   5  12
BRANCH   6  14
ATOM     14  C   UNL     1       7.901   0.762  26.065  0.00  0.00    +0.190 C 
BRANCH  14  15
ATOM     15  O   UNL     1       7.942   2.188  26.049  0.00  0.00    -0.392 OA
ATOM     16  H   UNL     1       7.034   2.479  25.838  0.00  0.00    +0.210 HD
ENDBRANCH  14  15
ENDBRANCH   6  14
ENDBRANCH   1   2
BRANCH   1  18
ATOM     17  C   UNL     1       7.423  -4.836  24.456  0.00  0.00    +0.178 C 
ATOM     18  C   UNL     1       7.509  -3.411  23.886  0.00  0.00    +0.186 C 
ATOM     19  C   UNL     1       6.491  -3.413  22.740  0.00  0.00    +0.207 C 
ATOM     20  C   UNL     1       6.000  -4.867  22.651  0.00  0.00    +0.220 C 
ATOM     21  O   UNL     1       6.220  -5.439  23.941  0.00  0.00    -0.336 OA
BRANCH  19  22
ATOM     22  O   UNL     1       5.394  -2.552  23.128  0.00  0.00    -0.384 OA
ATOM     23  H   UNL     1       5.601  -1.681  22.723  0.00  0.00    +0.210 HD
ENDBRANCH  19  22
BRANCH  20  24
ATOM     24  O   UNL     1       4.593  -4.886  22.393  0.00  0.00    -0.361 OA
ATOM     25  H   UNL     1       4.438  -4.111  21.815  0.00  0.00    +0.213 HD
ENDBRANCH  20  24
BRANCH  17  26
ATOM     26  C   UNL     1       7.378  -4.864  25.985  0.00  0.00    +0.190 C 
BRANCH  26  27
ATOM     27  O   UNL     1       8.298  -5.844  26.463  0.00  0.00    -0.392 OA
ATOM     28  H   UNL     1       8.007  -6.702  26.110  0.00  0.00    +0.210 HD
ENDBRANCH  26  27
ENDBRANCH  17  26
BRANCH  20  29
ATOM     29  C   UNL     1       6.725  -5.720  21.592  0.00  0.00    +0.223 C 
BRANCH  29  30
ATOM     30  O   UNL     1       5.988  -5.641  20.362  0.00  0.00    -0.390 OA
ATOM     31  H   UNL     1       6.606  -5.267  19.701  0.00  0.00    +0.210 HD
ENDBRANCH  29  30
ENDBRANCH  20  29
ENDBRANCH   1  18
TORSDOF 13
ENDMDL
MODEL 4
REMARK VINA RESULT:      -6.1      1.777      5.943
REMARK  Name = 
REMARK  13 active torsions:
REMARK  status: ('A' for Active; 'I' for Inactive)
REMARK    1  A    between atoms: O_1  and  C_2
REMARK    2  A    between atoms: C_2  and  C_3
REMARK    3  A    between atoms: C_6  and  O_7
REMARK    4  A    between atoms: C_6  and  C_8
REMARK    5  A    between atoms: C_8  and  O_9
REMARK    6  A    between atoms: C_10  and  O_12
REMARK    7  A    between atoms: C_13  and  O_15
REMARK    8  A    between atoms: O_15  and  C_16
REMARK    9  A    between atoms: C_19  and  C_21
REMARK   10  A    between atoms: C_21  and  O_22
REMARK   11  A    between atoms: C_23  and  O_25
REMARK   12  A    between atoms: C_26  and  O_28
REMARK   13  A    between atoms: C_29  and  O_31
REMARK                            x       y       z     vdW  Elec       q    Type
REMARK                         _______ _______ _______ _____ _____    ______ ____
ROOT
ATOM      1  O   UNL     1       8.369  -0.497  24.972  0.00  0.00    -0.340 OA
ENDROOT
BRANCH   1   2
ATOM      2  C   UNL     1       7.821  -1.789  25.273  0.00  0.00    +0.282 C 
ATOM      3  C   UNL     1       6.795  -2.215  24.197  0.00  0.00    +0.201 C 
ATOM      4  C   UNL     1       6.222  -3.590  24.609  0.00  0.00    +0.179 C 
ATOM      5  C   UNL     1       7.350  -4.608  24.833  0.00  0.00    +0.177 C 
ATOM      6  C   UNL     1       8.330  -4.041  25.870  0.00  0.00    +0.178 C 
ATOM      7  O   UNL     1       8.853  -2.766  25.444  0.00  0.00    -0.341 OA
BRANCH   3   8
ATOM      8  O   UNL     1       5.743  -1.236  24.092  0.00  0.00    -0.384 OA
ATOM      9  H   UNL     1       5.475  -1.166  23.160  0.00  0.00    +0.210 HD
ENDBRANCH   3   8
BRANCH   4  10
ATOM     10  O   UNL     1       5.300  -4.102  23.644  0.00  0.00    -0.386 OA
ATOM     11  H   UNL     1       4.909  -3.323  23.200  0.00  0.00    +0.210 HD
ENDBRANCH   4  10
BRANCH   5  12
ATOM     12  O   UNL     1       7.960  -4.850  23.556  0.00  0.00    -0.386 OA
ATOM     13  H   UNL     1       8.758  -5.393  23.674  0.00  0.00    +0.210 HD
ENDBRANCH   5  12
BRANCH   6  14
ATOM     14  C   UNL     1       9.501  -4.987  26.142  0.00  0.00    +0.190 C 
BRANCH  14  15
ATOM     15  O   UNL     1      10.319  -5.078  24.977  0.00  0.00    -0.392 OA
ATOM     16  H   UNL     1       9.718  -4.952  24.218  0.00  0.00    +0.210 HD
ENDBRANCH  14  15
ENDBRANCH   6  14
ENDBRANCH   1   2
BRANCH   1  18
ATOM     17  C   UNL     1       9.936  -0.307  23.065  0.00  0.00    +0.178 C 
ATOM     18  C   UNL     1       8.485  -0.231  23.565  0.00  0.00    +0.186 C 
ATOM     19  C   UNL     1       8.066   1.211  23.253  0.00  0.00    +0.207 C 
ATOM     20  C   UNL     1       9.343   1.888  22.728  0.00  0.00    +0.220 C 
ATOM     21  O   UNL     1      10.169   0.837  22.222  0.00  0.00    -0.336 OA
BRANCH  19  22
ATOM     22  O   UNL     1       7.075   1.161  22.201  0.00  0.00    -0.384 OA
ATOM     23  H   UNL     1       7.557   1.425  21.386  0.00  0.00    +0.210 HD
ENDBRANCH  19  22
BRANCH  20  24
ATOM     24  O   UNL     1       9.017   2.756  21.640  0.00  0.00    -0.361 OA
ATOM     25  H   UNL     1       8.174   2.403  21.288  0.00  0.00    +0.213 HD
ENDBRANCH  20  24
BRANCH  17  26
ATOM     26  C   UNL     1      10.225  -1.580  22.267  0.00  0.00    +0.190 C 
BRANCH  26  27
ATOM     27  O   UNL     1      10.340  -2.682  23.165  0.00  0.00    -0.392 OA
ATOM     28  H   UNL     1      11.177  -2.569  23.647  0.00  0.00    +0.210 HD
ENDBRANCH  26  27
ENDBRANCH  17  26
BRANCH  20  29
ATOM     29  C   UNL     1      10.130   2.676  23.793  0.00  0.00    +0.223 C 
BRANCH  29  30
ATOM     30  O   UNL     1      10.848   3.733  23.137  0.00  0.00    -0.390 OA
ATOM     31  H   UNL     1      10.181   4.234  22.624  0.00  0.00    +0.210 HD
ENDBRANCH  29  30
ENDBRANCH  20  29
ENDBRANCH   1  18
TORSDOF 13
ENDMDL
MODEL 5
REMARK VINA RESULT:      -6.0      1.442      2.814
REMARK  Name = 
REMARK  13 active torsions:
REMARK  status: ('A' for Active; 'I' for Inactive)
REMARK    1  A    between atoms: O_1  and  C_2
REMARK    2  A    between atoms: C_2  and  C_3
REMARK    3  A    between atoms: C_6  and  O_7
REMARK    4  A    between atoms: C_6  and  C_8
REMARK    5  A    between atoms: C_8  and  O_9
REMARK    6  A    between atoms: C_10  and  O_12
REMARK    7  A    between atoms: C_13  and  O_15
REMARK    8  A    between atoms: O_15  and  C_16
REMARK    9  A    between atoms: C_19  and  C_21
REMARK   10  A    between atoms: C_21  and  O_22
REMARK   11  A    between atoms: C_23  and  O_25
REMARK   12  A    between atoms: C_26  and  O_28
REMARK   13  A    between atoms: C_29  and  O_31
REMARK                            x       y       z     vdW  Elec       q    Type
REMARK                         _______ _______ _______ _____ _____    ______ ____
ROOT
ATOM      1  O   UNL     1       7.608  -2.243  22.744  0.00  0.00    -0.340 OA
ENDROOT
BRANCH   1   2
ATOM      2  C   UNL     1       8.360  -1.111  23.210  0.00  0.00    +0.282 C 
ATOM      3  C   UNL     1       8.792  -0.214  22.026  0.00  0.00    +0.201 C 
ATOM      4  C   UNL     1       9.626   0.954  22.600  0.00  0.00    +0.179 C 
ATOM      5  C   UNL     1       8.845   1.699  23.693  0.00  0.00    +0.177 C 
ATOM      6  C   UNL     1       8.420   0.690  24.771  0.00  0.00    +0.178 C 
ATOM      7  O   UNL     1       7.633  -0.376  24.200  0.00  0.00    -0.341 OA
BRANCH   3   8
ATOM      8  O   UNL     1       9.566  -0.974  21.079  0.00  0.00    -0.384 OA
ATOM      9  H   UNL     1       9.306  -0.709  20.180  0.00  0.00    +0.210 HD
ENDBRANCH   3   8
BRANCH   4  10
ATOM     10  O   UNL     1      10.028   1.879  21.586  0.00  0.00    -0.386 OA
ATOM     11  H   UNL     1       9.599   1.581  20.760  0.00  0.00    +0.210 HD
ENDBRANCH   4  10
BRANCH   5  12
ATOM     12  O   UNL     1       7.732   2.341  23.054  0.00  0.00    -0.386 OA
ATOM     13  H   UNL     1       8.005   3.216  22.726  0.00  0.00    +0.210 HD
ENDBRANCH   5  12
BRANCH   6  14
ATOM     14  C   UNL     1       7.617   1.347  25.896  0.00  0.00    +0.190 C 
BRANCH  14  15
ATOM     15  O   UNL     1       7.998   2.716  26.016  0.00  0.00    -0.392 OA
ATOM     16  H   UNL     1       8.549   2.910  25.234  0.00  0.00    +0.210 HD
ENDBRANCH  14  15
ENDBRANCH   6  14
ENDBRANCH   1   2
BRANCH   1  18
ATOM     17  C   UNL     1       7.128  -4.616  23.258  0.00  0.00    +0.178 C 
ATOM     18  C   UNL     1       8.183  -3.508  23.107  0.00  0.00    +0.186 C 
ATOM     19  C   UNL     1       8.831  -3.428  24.494  0.00  0.00    +0.207 C 
ATOM     20  C   UNL     1       8.013  -4.391  25.368  0.00  0.00    +0.220 C 
ATOM     21  O   UNL     1       7.421  -5.334  24.472  0.00  0.00    -0.336 OA
BRANCH  19  22
ATOM     22  O   UNL     1      10.188  -3.915  24.372  0.00  0.00    -0.384 OA
ATOM     23  H   UNL     1      10.138  -4.866  24.615  0.00  0.00    +0.210 HD
ENDBRANCH  19  22
BRANCH  20  24
ATOM     24  O   UNL     1       8.886  -5.106  26.247  0.00  0.00    -0.361 OA
ATOM     25  H   UNL     1       8.328  -5.324  27.022  0.00  0.00    +0.213 HD
ENDBRANCH  20  24
BRANCH  17  26
ATOM     26  C   UNL     1       7.124  -5.600  22.087  0.00  0.00    +0.190 C 
BRANCH  26  27
ATOM     27  O   UNL     1       5.995  -6.463  22.203  0.00  0.00    -0.392 OA
ATOM     28  H   UNL     1       5.225  -5.967  21.878  0.00  0.00    +0.210 HD
ENDBRANCH  26  27
ENDBRANCH  17  26
BRANCH  20  29
ATOM     29  C   UNL     1       6.899  -3.715  26.192  0.00  0.00    +0.223 C 
BRANCH  29  30
ATOM     30  O   UNL     1       7.263  -2.342  26.405  0.00  0.00    -0.390 OA
ATOM     31  H   UNL     1       8.071  -2.360  26.957  0.00  0.00    +0.210 HD
ENDBRANCH  29  30
ENDBRANCH  20  29
ENDBRANCH   1  18
TORSDOF 13
ENDMDL
MODEL 6
REMARK VINA RESULT:      -6.0      1.790      3.216
REMARK  Name = 
REMARK  13 active torsions:
REMARK  status: ('A' for Active; 'I' for Inactive)
REMARK    1  A    between atoms: O_1  and  C_2
REMARK    2  A    between atoms: C_2  and  C_3
REMARK    3  A    between atoms: C_6  and  O_7
REMARK    4  A    between atoms: C_6  and  C_8
REMARK    5  A    between atoms: C_8  and  O_9
REMARK    6  A    between atoms: C_10  and  O_12
REMARK    7  A    between atoms: C_13  and  O_15
REMARK    8  A    between atoms: O_15  and  C_16
REMARK    9  A    between atoms: C_19  and  C_21
REMARK   10  A    between atoms: C_21  and  O_22
REMARK   11  A    between atoms: C_23  and  O_25
REMARK   12  A    between atoms: C_26  and  O_28
REMARK   13  A    between atoms: C_29  and  O_31
REMARK                            x       y       z     vdW  Elec       q    Type
REMARK                         _______ _______ _______ _____ _____    ______ ____
ROOT
ATOM      1  O   UNL     1       8.798  -0.890  25.171  0.00  0.00    -0.340 OA
ENDROOT
BRANCH   1   2
ATOM      2  C   UNL     1       8.743   0.454  24.666  0.00  0.00    +0.282 C 
ATOM      3  C   UNL     1       9.470   0.559  23.305  0.00  0.00    +0.201 C 
ATOM      4  C   UNL     1       9.404   2.033  22.848  0.00  0.00    +0.179 C 
ATOM      5  C   UNL     1       7.952   2.533  22.819  0.00  0.00    +0.177 C 
ATOM      6  C   UNL     1       7.325   2.315  24.204  0.00  0.00    +0.178 C 
ATOM      7  O   UNL     1       7.394   0.926  24.589  0.00  0.00    -0.341 OA
BRANCH   3   8
ATOM      8  O   UNL     1      10.839   0.127  23.434  0.00  0.00    -0.384 OA
ATOM      9  H   UNL     1      11.062  -0.430  22.670  0.00  0.00    +0.210 HD
ENDBRANCH   3   8
BRANCH   4  10
ATOM     10  O   UNL     1      10.002   2.228  21.564  0.00  0.00    -0.386 OA
ATOM     11  H   UNL     1       9.607   1.555  20.975  0.00  0.00    +0.210 HD
ENDBRANCH   4  10
BRANCH   5  12
ATOM     12  O   UNL     1       7.278   1.811  21.777  0.00  0.00    -0.386 OA
ATOM     13  H   UNL     1       7.690   0.936  21.668  0.00  0.00    +0.210 HD
ENDBRANCH   5  12
BRANCH   6  14
ATOM     14  C   UNL     1       5.866   2.770  24.260  0.00  0.00    +0.190 C 
BRANCH  14  15
ATOM     15  O   UNL     1       5.021   1.716  23.799  0.00  0.00    -0.392 OA
ATOM     16  H   UNL     1       5.620   1.002  23.510  0.00  0.00    +0.210 HD
ENDBRANCH  14  15
ENDBRANCH   6  14
ENDBRANCH   1   2
BRANCH   1  18
ATOM     17  C   UNL     1       7.013  -2.587  25.416  0.00  0.00    +0.178 C 
ATOM     18  C   UNL     1       7.941  -1.807  24.472  0.00  0.00    +0.186 C 
ATOM     19  C   UNL     1       8.769  -2.901  23.786  0.00  0.00    +0.207 C 
ATOM     20  C   UNL     1       8.352  -4.206  24.483  0.00  0.00    +0.220 C 
ATOM     21  O   UNL     1       7.048  -3.970  25.017  0.00  0.00    -0.336 OA
BRANCH  19  22
ATOM     22  O   UNL     1       8.372  -2.943  22.396  0.00  0.00    -0.384 OA
ATOM     23  H   UNL     1       7.576  -3.521  22.378  0.00  0.00    +0.210 HD
ENDBRANCH  19  22
BRANCH  20  24
ATOM     24  O   UNL     1       8.252  -5.257  23.520  0.00  0.00    -0.361 OA
ATOM     25  H   UNL     1       8.731  -6.009  23.926  0.00  0.00    +0.213 HD
ENDBRANCH  20  24
BRANCH  17  26
ATOM     26  C   UNL     1       5.565  -2.093  25.370  0.00  0.00    +0.190 C 
BRANCH  26  27
ATOM     27  O   UNL     1       5.424  -1.150  24.310  0.00  0.00    -0.392 OA
ATOM     28  H   UNL     1       4.652  -1.424  23.787  0.00  0.00    +0.210 HD
ENDBRANCH  26  27
ENDBRANCH  17  26
BRANCH  20  29
ATOM     29  C   UNL     1       9.290  -4.646  25.625  0.00  0.00    +0.223 C 
BRANCH  29  30
ATOM     30  O   UNL     1      10.406  -5.344  25.052  0.00  0.00    -0.390 OA
ATOM     31  H   UNL     1      10.391  -5.137  24.095  0.00  0.00    +0.210 HD
ENDBRANCH  29  30
ENDBRANCH  20  29
ENDBRANCH   1  18
TORSDOF 13
ENDMDL
MODEL 7
REMARK VINA RESULT:      -6.0      2.475      6.552
REMARK  Name = 
REMARK  13 active torsions:
REMARK  status: ('A' for Active; 'I' for Inactive)
REMARK    1  A    between atoms: O_1  and  C_2
REMARK    2  A    between atoms: C_2  and  C_3
REMARK    3  A    between atoms: C_6  and  O_7
REMARK    4  A    between atoms: C_6  and  C_8
REMARK    5  A    between atoms: C_8  and  O_9
REMARK    6  A    between atoms: C_10  and  O_12
REMARK    7  A    between atoms: C_13  and  O_15
REMARK    8  A    between atoms: O_15  and  C_16
REMARK    9  A    between atoms: C_19  and  C_21
REMARK   10  A    between atoms: C_21  and  O_22
REMARK   11  A    between atoms: C_23  and  O_25
REMARK   12  A    between atoms: C_26  and  O_28
REMARK   13  A    between atoms: C_29  and  O_31
REMARK                            x       y       z     vdW  Elec       q    Type
REMARK                         _______ _______ _______ _____ _____    ______ ____
ROOT
ATOM      1  O   UNL     1       7.589  -4.902  23.447  0.00  0.00    -0.340 OA
ENDROOT
BRANCH   1   2
ATOM      2  C   UNL     1       6.268  -4.961  24.006  0.00  0.00    +0.282 C 
ATOM      3  C   UNL     1       5.217  -5.233  22.904  0.00  0.00    +0.201 C 
ATOM      4  C   UNL     1       3.824  -5.241  23.572  0.00  0.00    +0.179 C 
ATOM      5  C   UNL     1       3.781  -6.244  24.735  0.00  0.00    +0.177 C 
ATOM      6  C   UNL     1       4.908  -5.905  25.722  0.00  0.00    +0.178 C 
ATOM      7  O   UNL     1       6.192  -5.921  25.065  0.00  0.00    -0.341 OA
BRANCH   3   8
ATOM      8  O   UNL     1       5.286  -4.217  21.884  0.00  0.00    -0.384 OA
ATOM      9  H   UNL     1       4.384  -4.016  21.584  0.00  0.00    +0.210 HD
ENDBRANCH   3   8
BRANCH   4  10
ATOM     10  O   UNL     1       2.781  -5.544  22.642  0.00  0.00    -0.386 OA
ATOM     11  H   UNL     1       2.154  -6.127  23.116  0.00  0.00    +0.210 HD
ENDBRANCH   4  10
BRANCH   5  12
ATOM     12  O   UNL     1       3.907  -7.556  24.166  0.00  0.00    -0.386 OA
ATOM     13  H   UNL     1       3.785  -8.226  24.862  0.00  0.00    +0.210 HD
ENDBRANCH   5  12
BRANCH   6  14
ATOM     14  C   UNL     1       4.950  -6.870  26.908  0.00  0.00    +0.190 C 
BRANCH  14  15
ATOM     15  O   UNL     1       6.136  -6.640  27.667  0.00  0.00    -0.392 OA
ATOM     16  H   UNL     1       6.259  -7.436  28.219  0.00  0.00    +0.210 HD
ENDBRANCH  14  15
ENDBRANCH   6  14
ENDBRANCH   1   2
BRANCH   1  18
ATOM     17  C   UNL     1       7.958  -3.615  25.529  0.00  0.00    +0.178 C 
ATOM     18  C   UNL     1       8.467  -3.992  24.130  0.00  0.00    +0.186 C 
ATOM     19  C   UNL     1       8.533  -2.650  23.390  0.00  0.00    +0.207 C 
ATOM     20  C   UNL     1       7.931  -1.631  24.369  0.00  0.00    +0.220 C 
ATOM     21  O   UNL     1       8.096  -2.189  25.674  0.00  0.00    -0.336 OA
BRANCH  19  22
ATOM     22  O   UNL     1       9.929  -2.343  23.165  0.00  0.00    -0.384 OA
ATOM     23  H   UNL     1      10.381  -3.215  23.156  0.00  0.00    +0.210 HD
ENDBRANCH  19  22
BRANCH  20  24
ATOM     24  O   UNL     1       8.674  -0.410  24.313  0.00  0.00    -0.361 OA
ATOM     25  H   UNL     1       8.864  -0.195  25.250  0.00  0.00    +0.213 HD
ENDBRANCH  20  24
BRANCH  17  26
ATOM     26  C   UNL     1       8.733  -4.306  26.652  0.00  0.00    +0.190 C 
BRANCH  26  27
ATOM     27  O   UNL     1       8.681  -5.718  26.459  0.00  0.00    -0.392 OA
ATOM     28  H   UNL     1       9.563  -5.996  26.157  0.00  0.00    +0.210 HD
ENDBRANCH  26  27
ENDBRANCH  17  26
BRANCH  20  29
ATOM     29  C   UNL     1       6.436  -1.331  24.138  0.00  0.00    +0.223 C 
BRANCH  29  30
ATOM     30  O   UNL     1       6.121  -1.626  22.768  0.00  0.00    -0.390 OA
ATOM     31  H   UNL     1       5.521  -2.400  22.790  0.00  0.00    +0.210 HD
ENDBRANCH  29  30
ENDBRANCH  20  29
ENDBRANCH   1  18
TORSDOF 13
ENDMDL
MODEL 8
REMARK VINA RESULT:      -6.0      1.861      6.363
REMARK  Name = 
REMARK  13 active torsions:
REMARK  status: ('A' for Active; 'I' for Inactive)
REMARK    1  A    between atoms: O_1  and  C_2
REMARK    2  A    between atoms: C_2  and  C_3
REMARK    3  A    between atoms: C_6  and  O_7
REMARK    4  A    between atoms: C_6  and  C_8
REMARK    5  A    between atoms: C_8  and  O_9
REMARK    6  A    between atoms: C_10  and  O_12
REMARK    7  A    between atoms: C_13  and  O_15
REMARK    8  A    between atoms: O_15  and  C_16
REMARK    9  A    between atoms: C_19  and  C_21
REMARK   10  A    between atoms: C_21  and  O_22
REMARK   11  A    between atoms: C_23  and  O_25
REMARK   12  A    between atoms: C_26  and  O_28
REMARK   13  A    between atoms: C_29  and  O_31
REMARK                            x       y       z     vdW  Elec       q    Type
REMARK                         _______ _______ _______ _____ _____    ______ ____
ROOT
ATOM      1  O   UNL     1       8.422  -1.275  24.767  0.00  0.00    -0.340 OA
ENDROOT
BRANCH   1   2
ATOM      2  C   UNL     1       8.063  -2.665  24.745  0.00  0.00    +0.282 C 
ATOM      3  C   UNL     1       9.311  -3.558  24.943  0.00  0.00    +0.201 C 
ATOM      4  C   UNL     1       8.854  -5.031  24.867  0.00  0.00    +0.179 C 
ATOM      5  C   UNL     1       7.724  -5.306  25.872  0.00  0.00    +0.177 C 
ATOM      6  C   UNL     1       6.578  -4.318  25.610  0.00  0.00    +0.178 C 
ATOM      7  O   UNL     1       7.041  -2.954  25.704  0.00  0.00    -0.341 OA
BRANCH   3   8
ATOM      8  O   UNL     1      10.294  -3.277  23.928  0.00  0.00    -0.384 OA
ATOM      9  H   UNL     1      11.179  -3.350  24.324  0.00  0.00    +0.210 HD
ENDBRANCH   3   8
BRANCH   4  10
ATOM     10  O   UNL     1       9.930  -5.944  25.097  0.00  0.00    -0.386 OA
ATOM     11  H   UNL     1      10.744  -5.483  24.810  0.00  0.00    +0.210 HD
ENDBRANCH   4  10
BRANCH   5  12
ATOM     12  O   UNL     1       8.288  -5.180  27.186  0.00  0.00    -0.386 OA
ATOM     13  H   UNL     1       7.666  -4.703  27.762  0.00  0.00    +0.210 HD
ENDBRANCH   5  12
BRANCH   6  14
ATOM     14  C   UNL     1       5.413  -4.509  26.583  0.00  0.00    +0.190 C 
BRANCH  14  15
ATOM     15  O   UNL     1       5.463  -5.825  27.132  0.00  0.00    -0.392 OA
ATOM     16  H   UNL     1       5.862  -6.387  26.441  0.00  0.00    +0.210 HD
ENDBRANCH  14  15
ENDBRANCH   6  14
ENDBRANCH   1   2
BRANCH   1  18
ATOM     17  C   UNL     1       9.107   0.085  22.815  0.00  0.00    +0.178 C 
ATOM     18  C   UNL     1       7.959  -0.539  23.623  0.00  0.00    +0.186 C 
ATOM     19  C   UNL     1       7.123   0.669  24.064  0.00  0.00    +0.207 C 
ATOM     20  C   UNL     1       7.923   1.895  23.595  0.00  0.00    +0.220 C 
ATOM     21  O   UNL     1       8.739   1.444  22.512  0.00  0.00    -0.336 OA
BRANCH  19  22
ATOM     22  O   UNL     1       5.863   0.611  23.355  0.00  0.00    -0.384 OA
ATOM     23  H   UNL     1       6.093   0.287  22.456  0.00  0.00    +0.210 HD
ENDBRANCH  19  22
BRANCH  20  24
ATOM     24  O   UNL     1       7.030   2.891  23.091  0.00  0.00    -0.361 OA
ATOM     25  H   UNL     1       7.216   2.924  22.129  0.00  0.00    +0.213 HD
ENDBRANCH  20  24
BRANCH  17  26
ATOM     26  C   UNL     1       9.387  -0.657  21.507  0.00  0.00    +0.190 C 
BRANCH  26  27
ATOM     27  O   UNL     1      10.407  -1.630  21.729  0.00  0.00    -0.392 OA
ATOM     28  H   UNL     1      10.700  -1.528  22.650  0.00  0.00    +0.210 HD
ENDBRANCH  26  27
ENDBRANCH  17  26
BRANCH  20  29
ATOM     29  C   UNL     1       8.826   2.518  24.678  0.00  0.00    +0.223 C 
BRANCH  29  30
ATOM     30  O   UNL     1       8.295   2.170  25.967  0.00  0.00    -0.390 OA
ATOM     31  H   UNL     1       7.886   1.287  25.860  0.00  0.00    +0.210 HD
ENDBRANCH  29  30
ENDBRANCH  20  29
ENDBRANCH   1  18
TORSDOF 13
ENDMDL
MODEL 9
REMARK VINA RESULT:      -5.9      1.517      6.078
REMARK  Name = 
REMARK  13 active torsions:
REMARK  status: ('A' for Active; 'I' for Inactive)
REMARK    1  A    between atoms: O_1  and  C_2
REMARK    2  A    between atoms: C_2  and  C_3
REMARK    3  A    between atoms: C_6  and  O_7
REMARK    4  A    between atoms: C_6  and  C_8
REMARK    5  A    between atoms: C_8  and  O_9
REMARK    6  A    between atoms: C_10  and  O_12
REMARK    7  A    between atoms: C_13  and  O_15
REMARK    8  A    between atoms: O_15  and  C_16
REMARK    9  A    between atoms: C_19  and  C_21
REMARK   10  A    between atoms: C_21  and  O_22
REMARK   11  A    between atoms: C_23  and  O_25
REMARK   12  A    between atoms: C_26  and  O_28
REMARK   13  A    between atoms: C_29  and  O_31
REMARK                            x       y       z     vdW  Elec       q    Type
REMARK                         _______ _______ _______ _____ _____    ______ ____
ROOT
ATOM      1  O   UNL     1       8.157  -1.651  23.110  0.00  0.00    -0.340 OA
ENDROOT
BRANCH   1   2
ATOM      2  C   UNL     1       8.051  -2.996  23.601  0.00  0.00    +0.282 C 
ATOM      3  C   UNL     1       9.267  -3.354  24.487  0.00  0.00    +0.201 C 
ATOM      4  C   UNL     1       9.103  -4.821  24.943  0.00  0.00    +0.179 C 
ATOM      5  C   UNL     1       7.747  -5.032  25.632  0.00  0.00    +0.177 C 
ATOM      6  C   UNL     1       6.631  -4.582  24.676  0.00  0.00    +0.178 C 
ATOM      7  O   UNL     1       6.811  -3.205  24.285  0.00  0.00    -0.341 OA
BRANCH   3   8
ATOM      8  O   UNL     1      10.492  -3.184  23.749  0.00  0.00    -0.384 OA
ATOM      9  H   UNL     1      10.297  -2.700  22.929  0.00  0.00    +0.210 HD
ENDBRANCH   3   8
BRANCH   4  10
ATOM     10  O   UNL     1      10.154  -5.235  25.820  0.00  0.00    -0.386 OA
ATOM     11  H   UNL     1       9.886  -4.953  26.717  0.00  0.00    +0.210 HD
ENDBRANCH   4  10
BRANCH   5  12
ATOM     12  O   UNL     1       7.774  -4.285  26.857  0.00  0.00    -0.386 OA
ATOM     13  H   UNL     1       6.956  -4.450  27.357  0.00  0.00    +0.210 HD
ENDBRANCH   5  12
BRANCH   6  14
ATOM     14  C   UNL     1       5.240  -4.741  25.292  0.00  0.00    +0.190 C 
BRANCH  14  15
ATOM     15  O   UNL     1       4.990  -3.661  26.189  0.00  0.00    -0.392 OA
ATOM     16  H   UNL     1       5.659  -3.741  26.896  0.00  0.00    +0.210 HD
ENDBRANCH  14  15
ENDBRANCH   6  14
ENDBRANCH   1   2
BRANCH   1  18
ATOM     17  C   UNL     1       6.935   0.285  24.052  0.00  0.00    +0.178 C 
ATOM     18  C   UNL     1       8.148  -0.654  24.144  0.00  0.00    +0.186 C 
ATOM     19  C   UNL     1       9.351   0.286  23.996  0.00  0.00    +0.207 C 
ATOM     20  C   UNL     1       8.740   1.664  23.695  0.00  0.00    +0.220 C 
ATOM     21  O   UNL     1       7.413   1.633  24.224  0.00  0.00    -0.336 OA
BRANCH  19  22
ATOM     22  O   UNL     1      10.035   0.325  25.270  0.00  0.00    -0.384 OA
ATOM     23  H   UNL     1      10.470   1.206  25.297  0.00  0.00    +0.210 HD
ENDBRANCH  19  22
BRANCH  20  24
ATOM     24  O   UNL     1       9.470   2.678  24.390  0.00  0.00    -0.361 OA
ATOM     25  H   UNL     1       8.782   3.289  24.727  0.00  0.00    +0.213 HD
ENDBRANCH  20  24
BRANCH  17  26
ATOM     26  C   UNL     1       5.874  -0.006  25.115  0.00  0.00    +0.190 C 
BRANCH  26  27
ATOM     27  O   UNL     1       5.049  -1.082  24.673  0.00  0.00    -0.392 OA
ATOM     28  H   UNL     1       4.729  -1.540  25.469  0.00  0.00    +0.210 HD
ENDBRANCH  26  27
ENDBRANCH  17  26
BRANCH  20  29
ATOM     29  C   UNL     1       8.674   2.017  22.196  0.00  0.00    +0.223 C 
BRANCH  29  30
ATOM     30  O   UNL     1      10.012   2.025  21.672  0.00  0.00    -0.390 OA
ATOM     31  H   UNL     1      10.305   2.959  21.698  0.00  0.00    +0.210 HD
ENDBRANCH  29  30
ENDBRANCH  20  29
ENDBRANCH   1  18
TORSDOF 13
ENDMDL
