MODEL 1
REMARK VINA RESULT:      -7.0      0.000      0.000
REMARK  Name = 
REMARK  13 active torsions:
REMARK  status: ('A' for Active; 'I' for Inactive)
REMARK    1  A    between atoms: C_1  and  C_2
REMARK    2  A    between atoms: N_7  and  C_8
REMARK    3  A    between atoms: C_8  and  C_9
REMARK    4  A    between atoms: C_9  and  C_10
REMARK    5  A    between atoms: C_10  and  C_11
REMARK    6  A    between atoms: C_16  and  C_18
REMARK    7  A    between atoms: C_18  and  C_19
REMARK    8  A    between atoms: C_19  and  C_20
REMARK    9  A    between atoms: C_20  and  C_21
REMARK   10  A    between atoms: C_21  and  O_22
REMARK   11  A    between atoms: CA_27  and  CB_29
REMARK   12  A    between atoms: CB_29  and  CG_30
REMARK   13  A    between atoms: CG_36  and  OD1_38
REMARK                            x       y       z     vdW  Elec       q    Type
REMARK                         _______ _______ _______ _____ _____    ______ ____
ROOT
ATOM      1  C   UNK A   5       6.493   0.388  25.974  0.00  0.00    +0.159 C 
ATOM      2  C   UNK A   5       7.361  -0.267  24.844  0.00  0.00    +0.237 C 
ATOM      3  O   UNK A   5       6.775  -0.996  24.029  0.00  0.00    -0.274 OA
ATOM      4  N   PRO A   1       8.679   0.017  24.603  0.00  0.00    -0.288 N 
ATOM      5  CA  PRO A   1       9.516  -0.881  23.771  0.00  0.00    +0.162 C 
ATOM      6  CB  PRO A   1      10.838  -0.088  23.604  0.00  0.00    +0.033 C 
ATOM      7  CG  PRO A   1      10.516   1.351  24.000  0.00  0.00    +0.021 C 
ATOM      8  C   PRO A   1       8.945  -1.344  22.394  0.00  0.00    +0.234 C 
ATOM      9  O   PRO A   1       9.056  -0.623  21.395  0.00  0.00    -0.274 OA
ATOM     10  N   ASN A   2       8.233  -2.516  22.257  0.00  0.00    -0.302 N 
ATOM     11  H   ASN A   2       7.880  -2.616  21.309  0.00  0.00    +0.150 HD
ATOM     12  CA  ASN A   2       8.183  -3.753  23.048  0.00  0.00    +0.163 C 
ATOM     13  C   ASN A   2       6.990  -4.768  22.786  0.00  0.00    +0.239 C 
ATOM     14  O   ASN A   2       6.421  -4.975  21.725  0.00  0.00    -0.273 OA
ATOM     15  N   ASN A   2       6.729  -5.449  24.028  0.00  0.00    -0.262 N 
ATOM     16  CG  ASN A   2       7.818  -5.092  24.883  0.00  0.00    +0.208 C 
ATOM     17  CA  HIS A   3       5.307  -5.591  24.488  0.00  0.00    +0.170 C 
ATOM     18  C   HIS A   3       4.554  -4.205  24.540  0.00  0.00    +0.235 C 
ATOM     19  O   HIS A   3       4.448  -3.515  23.525  0.00  0.00    -0.274 OA
ATOM     20  N   UNK A   4       4.031  -3.749  25.743  0.00  0.00    -0.302 N 
ATOM     21  H   UNK A   4       4.477  -4.110  26.578  0.00  0.00    +0.150 HD
ATOM     22  C   UNK A   4       3.718  -2.306  25.864  0.00  0.00    +0.159 C 
ATOM     23  C   UNK A   4       5.064  -1.644  26.209  0.00  0.00    +0.234 C 
ATOM     24  O   UNK A   4       5.911  -2.267  26.852  0.00  0.00    -0.274 OA
ATOM     25  CB  ASN A   2       8.037  -3.644  24.559  0.00  0.00    +0.083 C 
ATOM     26  CD  PRO A   1       9.429   1.178  25.035  0.00  0.00    +0.109 C 
ATOM     27  N   UNK A   5       5.188  -0.313  25.836  0.00  0.00    -0.302 N 
ATOM     28  H   UNK A   5       4.672  -0.070  24.996  0.00  0.00    +0.150 HD
ENDROOT
BRANCH  16  29
ATOM     29  OD1 ASN A   2       7.613  -5.356  26.233  0.00  0.00    -0.374 OA
ATOM     30  HD1 ASN A   2       7.162  -4.563  26.577  0.00  0.00    +0.212 HD
ENDBRANCH  16  29
BRANCH   1  31
ATOM     31  C   UNK A   5       6.866   0.399  27.470  0.00  0.00    +0.035 C 
BRANCH  31  32
ATOM     32  C   UNK A   5       7.017   1.757  28.114  0.00  0.00    +0.043 C 
BRANCH  32  33
ATOM     33  C   UNK A   5       6.419   2.901  27.311  0.00  0.00    +0.243 C 
BRANCH  33  39
ATOM     34  C   UNK A   5      10.131   6.147  23.875  0.00  0.00    +0.129 C 
ATOM     35  C   UNK A   5       8.862   5.351  23.985  0.00  0.00    +0.272 C 
ATOM     36  N   UNK A   5       8.640   4.817  25.244  0.00  0.00    -0.175 N 
ATOM     37  H   UNK A   5       9.273   5.017  25.993  0.00  0.00    +0.254 HD
ATOM     38  C   UNK A   5       7.563   4.041  25.619  0.00  0.00    +0.377 C 
ATOM     39  N   UNK A   5       7.536   3.746  26.862  0.00  0.00    -0.115 NA
ATOM     40  N   UNK A   5       6.666   3.681  24.671  0.00  0.00    -0.291 N 
ATOM     41  H   UNK A   5       5.711   3.580  24.975  0.00  0.00    +0.254 HD
ATOM     42  H   UNK A   5       6.752   4.199  23.795  0.00  0.00    +0.254 HD
ATOM     43  O   UNK A   5       8.091   5.229  23.038  0.00  0.00    -0.258 OA
ENDBRANCH  33  39
ENDBRANCH  32  33
ENDBRANCH  31  32
ENDBRANCH   1  31
BRANCH  17  44
ATOM     44  CB  HIS A   3       5.086  -6.420  25.781  0.00  0.00    +0.086 C 
BRANCH  44  45
ATOM     45  CG  HIS A   3       3.738  -7.046  25.952  0.00  0.00    +0.038 A 
ATOM     46  ND1 HIS A   3       3.031  -7.061  27.126  0.00  0.00    -0.348 N 
ATOM     47  HD1 HIS A   3       3.308  -6.649  28.007  0.00  0.00    +0.166 HD
ATOM     48  CE1 HIS A   3       1.859  -7.722  26.891  0.00  0.00    +0.196 A 
ATOM     49  NE2 HIS A   3       1.770  -8.122  25.644  0.00  0.00    -0.244 NA
ATOM     50  CD2 HIS A   3       2.939  -7.728  25.054  0.00  0.00    +0.133 A 
ENDBRANCH  44  45
ENDBRANCH  17  44
BRANCH  22  51
ATOM     51  C   UNK A   4       2.727  -2.012  27.009  0.00  0.00    +0.032 C 
BRANCH  51  52
ATOM     52  C   UNK A   4       2.521  -3.224  27.932  0.00  0.00    +0.013 C 
BRANCH  52  53
ATOM     53  C   UNK A   4       3.456  -3.256  29.136  0.00  0.00    +0.120 C 
BRANCH  53  54
ATOM     54  C   UNK A   4       4.277  -4.532  29.139  0.00  0.00    +0.305 C 
ATOM     55  O   UNK A   4       3.953  -5.577  29.678  0.00  0.00    -0.251 OA
BRANCH  54  56
ATOM     56  O   UNK A   4       5.443  -4.389  28.471  0.00  0.00    -0.481 OA
ATOM     57  H   UNK A   4       6.131  -5.033  28.727  0.00  0.00    +0.295 HD
ENDBRANCH  54  56
ENDBRANCH  53  54
ENDBRANCH  52  53
ENDBRANCH  51  52
ENDBRANCH  22  51
TORSDOF 12
ENDMDL
MODEL 2
REMARK VINA RESULT:      -7.0      2.303      8.667
REMARK  Name = 
REMARK  13 active torsions:
REMARK  status: ('A' for Active; 'I' for Inactive)
REMARK    1  A    between atoms: C_1  and  C_2
REMARK    2  A    between atoms: N_7  and  C_8
REMARK    3  A    between atoms: C_8  and  C_9
REMARK    4  A    between atoms: C_9  and  C_10
REMARK    5  A    between atoms: C_10  and  C_11
REMARK    6  A    between atoms: C_16  and  C_18
REMARK    7  A    between atoms: C_18  and  C_19
REMARK    8  A    between atoms: C_19  and  C_20
REMARK    9  A    between atoms: C_20  and  C_21
REMARK   10  A    between atoms: C_21  and  O_22
REMARK   11  A    between atoms: CA_27  and  CB_29
REMARK   12  A    between atoms: CB_29  and  CG_30
REMARK   13  A    between atoms: CG_36  and  OD1_38
REMARK                            x       y       z     vdW  Elec       q    Type
REMARK                         _______ _______ _______ _____ _____    ______ ____
ROOT
ATOM      1  C   UNK A   5       4.422  -3.286  26.305  0.00  0.00    +0.159 C 
ATOM      2  C   UNK A   5       5.647  -3.522  25.354  0.00  0.00    +0.237 C 
ATOM      3  O   UNK A   5       6.714  -2.965  25.655  0.00  0.00    -0.274 OA
ATOM      4  N   PRO A   1       5.669  -4.403  24.306  0.00  0.00    -0.288 N 
ATOM      5  CA  PRO A   1       6.709  -4.317  23.253  0.00  0.00    +0.162 C 
ATOM      6  CB  PRO A   1       6.473  -5.595  22.408  0.00  0.00    +0.033 C 
ATOM      7  CG  PRO A   1       5.600  -6.508  23.265  0.00  0.00    +0.021 C 
ATOM      8  C   PRO A   1       8.197  -4.191  23.706  0.00  0.00    +0.234 C 
ATOM      9  O   PRO A   1       8.849  -5.200  24.003  0.00  0.00    -0.274 OA
ATOM     10  N   ASN A   2       8.809  -2.968  23.870  0.00  0.00    -0.302 N 
ATOM     11  H   ASN A   2       9.750  -3.079  24.236  0.00  0.00    +0.150 HD
ATOM     12  CA  ASN A   2       8.536  -1.632  23.321  0.00  0.00    +0.163 C 
ATOM     13  C   ASN A   2       9.241  -0.380  23.997  0.00  0.00    +0.239 C 
ATOM     14  O   ASN A   2      10.342  -0.353  24.524  0.00  0.00    -0.273 OA
ATOM     15  N   ASN A   2       8.361   0.747  23.828  0.00  0.00    -0.262 N 
ATOM     16  CG  ASN A   2       7.356   0.301  22.914  0.00  0.00    +0.208 C 
ATOM     17  CA  HIS A   3       8.092   1.635  25.009  0.00  0.00    +0.170 C 
ATOM     18  C   HIS A   3       7.588   0.824  26.265  0.00  0.00    +0.235 C 
ATOM     19  O   HIS A   3       8.282  -0.073  26.747  0.00  0.00    -0.274 OA
ATOM     20  N   UNK A   4       6.344   1.104  26.814  0.00  0.00    -0.302 N 
ATOM     21  H   UNK A   4       5.670   1.518  26.181  0.00  0.00    +0.150 HD
ATOM     22  C   UNK A   4       5.723   0.085  27.690  0.00  0.00    +0.159 C 
ATOM     23  C   UNK A   4       5.059  -0.910  26.721  0.00  0.00    +0.234 C 
ATOM     24  O   UNK A   4       4.631  -0.518  25.633  0.00  0.00    -0.274 OA
ATOM     25  CB  ASN A   2       7.106  -1.111  23.355  0.00  0.00    +0.083 C 
ATOM     26  CD  PRO A   1       4.785  -5.528  24.076  0.00  0.00    +0.109 C 
ATOM     27  N   UNK A   5       4.905  -2.203  27.202  0.00  0.00    -0.302 N 
ATOM     28  H   UNK A   5       5.632  -2.491  27.850  0.00  0.00    +0.150 HD
ENDROOT
BRANCH  16  29
ATOM     29  OD1 ASN A   2       6.219   1.098  22.860  0.00  0.00    -0.374 OA
ATOM     30  HD1 ASN A   2       6.272   1.551  21.997  0.00  0.00    +0.212 HD
ENDBRANCH  16  29
BRANCH   1  31
ATOM     31  C   UNK A   5       3.004  -2.909  25.831  0.00  0.00    +0.035 C 
BRANCH  31  32
ATOM     32  C   UNK A   5       1.894  -3.068  26.843  0.00  0.00    +0.043 C 
BRANCH  32  33
ATOM     33  C   UNK A   5       1.582  -4.510  27.209  0.00  0.00    +0.243 C 
BRANCH  33  39
ATOM     34  C   UNK A   5       1.172  -8.546  22.775  0.00  0.00    +0.129 C 
ATOM     35  C   UNK A   5       1.744  -8.172  24.112  0.00  0.00    +0.272 C 
ATOM     36  N   UNK A   5       1.364  -6.917  24.557  0.00  0.00    -0.175 N 
ATOM     37  H   UNK A   5       0.721  -6.367  24.021  0.00  0.00    +0.254 HD
ATOM     38  C   UNK A   5       1.749  -6.323  25.741  0.00  0.00    +0.377 C 
ATOM     39  N   UNK A   5       1.190  -5.197  25.969  0.00  0.00    -0.115 NA
ATOM     40  N   UNK A   5       2.647  -6.966  26.523  0.00  0.00    -0.291 N 
ATOM     41  H   UNK A   5       2.552  -6.830  27.517  0.00  0.00    +0.254 HD
ATOM     42  H   UNK A   5       2.799  -7.943  26.268  0.00  0.00    +0.254 HD
ATOM     43  O   UNK A   5       2.455  -8.944  24.749  0.00  0.00    -0.258 OA
ENDBRANCH  33  39
ENDBRANCH  32  33
ENDBRANCH  31  32
ENDBRANCH   1  31
BRANCH  17  44
ATOM     44  CB  HIS A   3       7.215   2.887  24.738  0.00  0.00    +0.086 C 
BRANCH  44  45
ATOM     45  CG  HIS A   3       7.919   4.092  24.201  0.00  0.00    +0.038 A 
ATOM     46  ND1 HIS A   3       9.258   4.344  24.356  0.00  0.00    -0.348 N 
ATOM     47  HD1 HIS A   3       9.935   3.759  24.827  0.00  0.00    +0.166 HD
ATOM     48  CE1 HIS A   3       9.527   5.531  23.737  0.00  0.00    +0.196 A 
ATOM     49  NE2 HIS A   3       8.450   6.048  23.192  0.00  0.00    -0.244 NA
ATOM     50  CD2 HIS A   3       7.440   5.177  23.490  0.00  0.00    +0.133 A 
ENDBRANCH  44  45
ENDBRANCH  17  44
BRANCH  22  51
ATOM     51  C   UNK A   4       4.626   0.677  28.600  0.00  0.00    +0.032 C 
BRANCH  51  52
ATOM     52  C   UNK A   4       5.183   1.714  29.589  0.00  0.00    +0.013 C 
BRANCH  52  53
ATOM     53  C   UNK A   4       6.324   1.197  30.457  0.00  0.00    +0.120 C 
BRANCH  53  54
ATOM     54  C   UNK A   4       7.631   1.865  30.071  0.00  0.00    +0.305 C 
ATOM     55  O   UNK A   4       7.837   3.068  30.075  0.00  0.00    -0.251 OA
BRANCH  54  56
ATOM     56  O   UNK A   4       8.573   0.968  29.702  0.00  0.00    -0.481 OA
ATOM     57  H   UNK A   4       9.338   1.361  29.239  0.00  0.00    +0.295 HD
ENDBRANCH  54  56
ENDBRANCH  53  54
ENDBRANCH  52  53
ENDBRANCH  51  52
ENDBRANCH  22  51
TORSDOF 12
ENDMDL
MODEL 3
REMARK VINA RESULT:      -6.8      3.316      8.116
REMARK  Name = 
REMARK  13 active torsions:
REMARK  status: ('A' for Active; 'I' for Inactive)
REMARK    1  A    between atoms: C_1  and  C_2
REMARK    2  A    between atoms: N_7  and  C_8
REMARK    3  A    between atoms: C_8  and  C_9
REMARK    4  A    between atoms: C_9  and  C_10
REMARK    5  A    between atoms: C_10  and  C_11
REMARK    6  A    between atoms: C_16  and  C_18
REMARK    7  A    between atoms: C_18  and  C_19
REMARK    8  A    between atoms: C_19  and  C_20
REMARK    9  A    between atoms: C_20  and  C_21
REMARK   10  A    between atoms: C_21  and  O_22
REMARK   11  A    between atoms: CA_27  and  CB_29
REMARK   12  A    between atoms: CB_29  and  CG_30
REMARK   13  A    between atoms: CG_36  and  OD1_38
REMARK                            x       y       z     vdW  Elec       q    Type
REMARK                         _______ _______ _______ _____ _____    ______ ____
ROOT
ATOM      1  C   UNK A   5       8.130   0.076  26.226  0.00  0.00    +0.159 C 
ATOM      2  C   UNK A   5       8.438   0.662  24.803  0.00  0.00    +0.237 C 
ATOM      3  O   UNK A   5       8.466   1.898  24.693  0.00  0.00    -0.274 OA
ATOM      4  N   PRO A   1       8.816  -0.078  23.715  0.00  0.00    -0.288 N 
ATOM      5  CA  PRO A   1       8.742   0.483  22.344  0.00  0.00    +0.162 C 
ATOM      6  CB  PRO A   1       9.439  -0.597  21.476  0.00  0.00    +0.033 C 
ATOM      7  CG  PRO A   1      10.209  -1.484  22.451  0.00  0.00    +0.021 C 
ATOM      8  C   PRO A   1       9.351   1.899  22.101  0.00  0.00    +0.234 C 
ATOM      9  O   PRO A   1      10.562   2.032  21.888  0.00  0.00    -0.274 OA
ATOM     10  N   ASN A   2       8.592   3.045  22.195  0.00  0.00    -0.302 N 
ATOM     11  H   ASN A   2       9.169   3.873  22.077  0.00  0.00    +0.150 HD
ATOM     12  CA  ASN A   2       7.149   3.301  22.078  0.00  0.00    +0.163 C 
ATOM     13  C   ASN A   2       6.587   4.697  22.584  0.00  0.00    +0.239 C 
ATOM     14  O   ASN A   2       7.164   5.773  22.561  0.00  0.00    -0.273 OA
ATOM     15  N   ASN A   2       5.236   4.475  23.033  0.00  0.00    -0.262 N 
ATOM     16  CG  ASN A   2       4.913   3.152  22.598  0.00  0.00    +0.208 C 
ATOM     17  CA  HIS A   3       4.810   5.058  24.350  0.00  0.00    +0.170 C 
ATOM     18  C   HIS A   3       5.775   4.645  25.528  0.00  0.00    +0.235 C 
ATOM     19  O   HIS A   3       6.974   4.926  25.478  0.00  0.00    -0.274 OA
ATOM     20  N   UNK A   4       5.275   3.940  26.614  0.00  0.00    -0.302 N 
ATOM     21  H   UNK A   4       4.441   3.393  26.434  0.00  0.00    +0.150 HD
ATOM     22  C   UNK A   4       6.237   3.211  27.474  0.00  0.00    +0.159 C 
ATOM     23  C   UNK A   4       6.487   1.883  26.738  0.00  0.00    +0.234 C 
ATOM     24  O   UNK A   4       5.597   1.383  26.047  0.00  0.00    -0.274 OA
ATOM     25  CB  ASN A   2       6.187   2.399  22.839  0.00  0.00    +0.083 C 
ATOM     26  CD  PRO A   1       9.366  -1.418  23.702  0.00  0.00    +0.109 C 
ATOM     27  N   UNK A   5       7.710   1.278  26.994  0.00  0.00    -0.302 N 
ATOM     28  H   UNK A   5       8.462   1.934  27.186  0.00  0.00    +0.150 HD
ENDROOT
BRANCH  16  29
ATOM     29  OD1 ASN A   2       3.791   2.595  23.202  0.00  0.00    -0.374 OA
ATOM     30  HD1 ASN A   2       3.759   1.678  22.872  0.00  0.00    +0.212 HD
ENDBRANCH  16  29
BRANCH   1  31
ATOM     31  C   UNK A   5       7.111  -1.045  26.510  0.00  0.00    +0.035 C 
BRANCH  31  32
ATOM     32  C   UNK A   5       7.670  -2.441  26.651  0.00  0.00    +0.043 C 
BRANCH  32  33
ATOM     33  C   UNK A   5       6.624  -3.542  26.613  0.00  0.00    +0.243 C 
BRANCH  33  39
ATOM     34  C   UNK A   5       6.425  -5.813  21.052  0.00  0.00    +0.129 C 
ATOM     35  C   UNK A   5       5.940  -4.778  22.027  0.00  0.00    +0.272 C 
ATOM     36  N   UNK A   5       6.479  -4.904  23.297  0.00  0.00    -0.175 N 
ATOM     37  H   UNK A   5       7.166  -5.608  23.483  0.00  0.00    +0.254 HD
ATOM     38  C   UNK A   5       6.201  -4.098  24.381  0.00  0.00    +0.377 C 
ATOM     39  N   UNK A   5       6.896  -4.359  25.421  0.00  0.00    -0.115 NA
ATOM     40  N   UNK A   5       5.256  -3.137  24.245  0.00  0.00    -0.291 N 
ATOM     41  H   UNK A   5       5.396  -2.295  24.781  0.00  0.00    +0.254 HD
ATOM     42  H   UNK A   5       4.983  -2.953  23.279  0.00  0.00    +0.254 HD
ATOM     43  O   UNK A   5       5.162  -3.890  21.691  0.00  0.00    -0.258 OA
ENDBRANCH  33  39
ENDBRANCH  32  33
ENDBRANCH  31  32
ENDBRANCH   1  31
BRANCH  17  44
ATOM     44  CB  HIS A   3       3.317   4.868  24.730  0.00  0.00    +0.086 C 
BRANCH  44  45
ATOM     45  CG  HIS A   3       2.311   5.512  23.831  0.00  0.00    +0.038 A 
ATOM     46  ND1 HIS A   3       1.536   4.839  22.921  0.00  0.00    -0.348 N 
ATOM     47  HD1 HIS A   3       1.528   3.842  22.751  0.00  0.00    +0.166 HD
ATOM     48  CE1 HIS A   3       0.751   5.760  22.290  0.00  0.00    +0.196 A 
ATOM     49  NE2 HIS A   3       0.968   6.974  22.741  0.00  0.00    -0.244 NA
ATOM     50  CD2 HIS A   3       1.950   6.838  23.683  0.00  0.00    +0.133 A 
ENDBRANCH  44  45
ENDBRANCH  17  44
BRANCH  22  51
ATOM     51  C   UNK A   4       5.657   2.891  28.867  0.00  0.00    +0.032 C 
BRANCH  51  52
ATOM     52  C   UNK A   4       4.119   2.909  28.881  0.00  0.00    +0.013 C 
BRANCH  52  53
ATOM     53  C   UNK A   4       3.482   1.530  29.004  0.00  0.00    +0.120 C 
BRANCH  53  54
ATOM     54  C   UNK A   4       2.580   1.252  27.816  0.00  0.00    +0.305 C 
ATOM     55  O   UNK A   4       1.685   0.423  27.788  0.00  0.00    -0.251 OA
BRANCH  54  56
ATOM     56  O   UNK A   4       2.881   2.033  26.754  0.00  0.00    -0.481 OA
ATOM     57  H   UNK A   4       2.896   1.557  25.901  0.00  0.00    +0.295 HD
ENDBRANCH  54  56
ENDBRANCH  53  54
ENDBRANCH  52  53
ENDBRANCH  51  52
ENDBRANCH  22  51
TORSDOF 12
ENDMDL
MODEL 4
REMARK VINA RESULT:      -6.7      1.985      5.308
REMARK  Name = 
REMARK  13 active torsions:
REMARK  status: ('A' for Active; 'I' for Inactive)
REMARK    1  A    between atoms: C_1  and  C_2
REMARK    2  A    between atoms: N_7  and  C_8
REMARK    3  A    between atoms: C_8  and  C_9
REMARK    4  A    between atoms: C_9  and  C_10
REMARK    5  A    between atoms: C_10  and  C_11
REMARK    6  A    between atoms: C_16  and  C_18
REMARK    7  A    between atoms: C_18  and  C_19
REMARK    8  A    between atoms: C_19  and  C_20
REMARK    9  A    between atoms: C_20  and  C_21
REMARK   10  A    between atoms: C_21  and  O_22
REMARK   11  A    between atoms: CA_27  and  CB_29
REMARK   12  A    between atoms: CB_29  and  CG_30
REMARK   13  A    between atoms: CG_36  and  OD1_38
REMARK                            x       y       z     vdW  Elec       q    Type
REMARK                         _______ _______ _______ _____ _____    ______ ____
ROOT
ATOM      1  C   UNK A   5       7.030  -0.851  25.586  0.00  0.00    +0.159 C 
ATOM      2  C   UNK A   5       5.824  -0.890  26.588  0.00  0.00    +0.237 C 
ATOM      3  O   UNK A   5       5.697  -1.908  27.285  0.00  0.00    -0.274 OA
ATOM      4  N   PRO A   1       4.991   0.165  26.854  0.00  0.00    -0.288 N 
ATOM      5  CA  PRO A   1       3.684  -0.041  27.524  0.00  0.00    +0.162 C 
ATOM      6  CB  PRO A   1       3.189   1.403  27.797  0.00  0.00    +0.033 C 
ATOM      7  CG  PRO A   1       4.412   2.302  27.637  0.00  0.00    +0.021 C 
ATOM      8  C   PRO A   1       3.656  -0.914  28.817  0.00  0.00    +0.234 C 
ATOM      9  O   PRO A   1       3.928  -0.415  29.916  0.00  0.00    -0.274 OA
ATOM     10  N   ASN A   2       3.413  -2.269  28.777  0.00  0.00    -0.302 N 
ATOM     11  H   ASN A   2       3.505  -2.682  29.701  0.00  0.00    +0.150 HD
ATOM     12  CA  ASN A   2       2.735  -3.135  27.801  0.00  0.00    +0.163 C 
ATOM     13  C   ASN A   2       2.941  -4.705  27.915  0.00  0.00    +0.239 C 
ATOM     14  O   ASN A   2       3.113  -5.351  28.937  0.00  0.00    -0.273 OA
ATOM     15  N   ASN A   2       2.834  -5.247  26.584  0.00  0.00    -0.262 N 
ATOM     16  CG  ASN A   2       2.346  -4.168  25.782  0.00  0.00    +0.208 C 
ATOM     17  CA  HIS A   3       3.863  -6.240  26.125  0.00  0.00    +0.170 C 
ATOM     18  C   HIS A   3       5.335  -5.702  26.302  0.00  0.00    +0.235 C 
ATOM     19  O   HIS A   3       5.749  -5.371  27.415  0.00  0.00    -0.274 OA
ATOM     20  N   UNK A   4       6.161  -5.576  25.193  0.00  0.00    -0.302 N 
ATOM     21  H   UNK A   4       5.686  -5.457  24.306  0.00  0.00    +0.150 HD
ATOM     22  C   UNK A   4       7.348  -4.697  25.305  0.00  0.00    +0.159 C 
ATOM     23  C   UNK A   4       6.808  -3.279  25.052  0.00  0.00    +0.234 C 
ATOM     24  O   UNK A   4       5.840  -3.111  24.308  0.00  0.00    -0.274 OA
ATOM     25  CB  ASN A   2       3.087  -2.983  26.328  0.00  0.00    +0.083 C 
ATOM     26  CD  PRO A   1       5.233   1.570  26.602  0.00  0.00    +0.109 C 
ATOM     27  N   UNK A   5       7.539  -2.248  25.629  0.00  0.00    -0.302 N 
ATOM     28  H   UNK A   5       7.989  -2.502  26.503  0.00  0.00    +0.150 HD
ENDROOT
BRANCH  16  29
ATOM     29  OD1 ASN A   2       2.481  -4.350  24.411  0.00  0.00    -0.374 OA
ATOM     30  HD1 ASN A   2       2.145  -3.524  24.014  0.00  0.00    +0.212 HD
ENDBRANCH  16  29
BRANCH   1  31
ATOM     31  C   UNK A   5       6.928  -0.432  24.106  0.00  0.00    +0.035 C 
BRANCH  31  32
ATOM     32  C   UNK A   5       8.113   0.310  23.535  0.00  0.00    +0.043 C 
BRANCH  32  33
ATOM     33  C   UNK A   5       8.286   1.721  24.072  0.00  0.00    +0.243 C 
BRANCH  33  39
ATOM     34  C   UNK A   5      12.970   5.274  22.822  0.00  0.00    +0.129 C 
ATOM     35  C   UNK A   5      11.623   5.117  23.468  0.00  0.00    +0.272 C 
ATOM     36  N   UNK A   5      11.067   3.858  23.311  0.00  0.00    -0.175 N 
ATOM     37  H   UNK A   5      11.580   3.137  22.844  0.00  0.00    +0.254 HD
ATOM     38  C   UNK A   5       9.841   3.446  23.792  0.00  0.00    +0.377 C 
ATOM     39  N   UNK A   5       9.590   2.209  23.597  0.00  0.00    -0.115 NA
ATOM     40  N   UNK A   5       9.050   4.357  24.408  0.00  0.00    -0.291 N 
ATOM     41  H   UNK A   5       8.462   4.009  25.148  0.00  0.00    +0.254 HD
ATOM     42  H   UNK A   5       9.526   5.226  24.653  0.00  0.00    +0.254 HD
ATOM     43  O   UNK A   5      11.102   6.029  24.103  0.00  0.00    -0.258 OA
ENDBRANCH  33  39
ENDBRANCH  32  33
ENDBRANCH  31  32
ENDBRANCH   1  31
BRANCH  17  44
ATOM     44  CB  HIS A   3       3.636  -6.859  24.720  0.00  0.00    +0.086 C 
BRANCH  44  45
ATOM     45  CG  HIS A   3       2.533  -7.862  24.602  0.00  0.00    +0.038 A 
ATOM     46  ND1 HIS A   3       2.242  -8.814  25.544  0.00  0.00    -0.348 N 
ATOM     47  HD1 HIS A   3       2.710  -8.953  26.430  0.00  0.00    +0.166 HD
ATOM     48  CE1 HIS A   3       1.182  -9.539  25.082  0.00  0.00    +0.196 A 
ATOM     49  NE2 HIS A   3       0.773  -9.108  23.912  0.00  0.00    -0.244 NA
ATOM     50  CD2 HIS A   3       1.616  -8.081  23.590  0.00  0.00    +0.133 A 
ENDBRANCH  44  45
ENDBRANCH  17  44
BRANCH  22  51
ATOM     51  C   UNK A   4       8.415  -5.007  24.233  0.00  0.00    +0.032 C 
BRANCH  51  52
ATOM     52  C   UNK A   4       7.847  -5.821  23.059  0.00  0.00    +0.013 C 
BRANCH  52  53
ATOM     53  C   UNK A   4       7.473  -4.983  21.843  0.00  0.00    +0.120 C 
BRANCH  53  54
ATOM     54  C   UNK A   4       6.073  -5.327  21.368  0.00  0.00    +0.305 C 
ATOM     55  O   UNK A   4       5.805  -5.932  20.344  0.00  0.00    -0.251 OA
BRANCH  54  56
ATOM     56  O   UNK A   4       5.122  -4.875  22.216  0.00  0.00    -0.481 OA
ATOM     57  H   UNK A   4       5.456  -4.651  23.106  0.00  0.00    +0.295 HD
ENDBRANCH  54  56
ENDBRANCH  53  54
ENDBRANCH  52  53
ENDBRANCH  51  52
ENDBRANCH  22  51
TORSDOF 12
ENDMDL
MODEL 5
REMARK VINA RESULT:      -6.7      2.899      7.685
REMARK  Name = 
REMARK  13 active torsions:
REMARK  status: ('A' for Active; 'I' for Inactive)
REMARK    1  A    between atoms: C_1  and  C_2
REMARK    2  A    between atoms: N_7  and  C_8
REMARK    3  A    between atoms: C_8  and  C_9
REMARK    4  A    between atoms: C_9  and  C_10
REMARK    5  A    between atoms: C_10  and  C_11
REMARK    6  A    between atoms: C_16  and  C_18
REMARK    7  A    between atoms: C_18  and  C_19
REMARK    8  A    between atoms: C_19  and  C_20
REMARK    9  A    between atoms: C_20  and  C_21
REMARK   10  A    between atoms: C_21  and  O_22
REMARK   11  A    between atoms: CA_27  and  CB_29
REMARK   12  A    between atoms: CB_29  and  CG_30
REMARK   13  A    between atoms: CG_36  and  OD1_38
REMARK                            x       y       z     vdW  Elec       q    Type
REMARK                         _______ _______ _______ _____ _____    ______ ____
ROOT
ATOM      1  C   UNK A   5       6.994  -2.688  24.072  0.00  0.00    +0.159 C 
ATOM      2  C   UNK A   5       7.646  -1.265  24.182  0.00  0.00    +0.237 C 
ATOM      3  O   UNK A   5       7.721  -0.761  25.314  0.00  0.00    -0.274 OA
ATOM      4  N   PRO A   1       8.263  -0.604  23.154  0.00  0.00    -0.288 N 
ATOM      5  CA  PRO A   1       8.532   0.853  23.232  0.00  0.00    +0.162 C 
ATOM      6  CB  PRO A   1       9.399   1.126  21.976  0.00  0.00    +0.033 C 
ATOM      7  CG  PRO A   1       9.896  -0.239  21.506  0.00  0.00    +0.021 C 
ATOM      8  C   PRO A   1       9.205   1.402  24.529  0.00  0.00    +0.234 C 
ATOM      9  O   PRO A   1      10.434   1.359  24.663  0.00  0.00    -0.274 OA
ATOM     10  N   ASN A   2       8.466   1.874  25.591  0.00  0.00    -0.302 N 
ATOM     11  H   ASN A   2       9.068   2.121  26.370  0.00  0.00    +0.150 HD
ATOM     12  CA  ASN A   2       7.099   2.402  25.701  0.00  0.00    +0.163 C 
ATOM     13  C   ASN A   2       6.455   2.533  27.146  0.00  0.00    +0.239 C 
ATOM     14  O   ASN A   2       7.038   2.776  28.191  0.00  0.00    -0.273 OA
ATOM     15  N   ASN A   2       5.032   2.364  26.996  0.00  0.00    -0.262 N 
ATOM     16  CG  ASN A   2       4.800   2.399  25.585  0.00  0.00    +0.208 C 
ATOM     17  CA  HIS A   3       4.310   1.453  27.947  0.00  0.00    +0.170 C 
ATOM     18  C   HIS A   3       4.954   0.015  28.003  0.00  0.00    +0.235 C 
ATOM     19  O   HIS A   3       6.135  -0.127  28.330  0.00  0.00    -0.274 OA
ATOM     20  N   UNK A   4       4.196  -1.096  27.659  0.00  0.00    -0.302 N 
ATOM     21  H   UNK A   4       3.421  -0.918  27.032  0.00  0.00    +0.150 HD
ATOM     22  C   UNK A   4       4.908  -2.348  27.314  0.00  0.00    +0.159 C 
ATOM     23  C   UNK A   4       5.306  -2.174  25.838  0.00  0.00    +0.234 C 
ATOM     24  O   UNK A   4       4.602  -1.500  25.084  0.00  0.00    -0.274 OA
ATOM     25  CB  ASN A   2       5.966   1.632  25.036  0.00  0.00    +0.083 C 
ATOM     26  CD  PRO A   1       8.777  -1.164  21.922  0.00  0.00    +0.109 C 
ATOM     27  N   UNK A   5       6.421  -2.894  25.430  0.00  0.00    -0.302 N 
ATOM     28  H   UNK A   5       7.115  -3.027  26.159  0.00  0.00    +0.150 HD
ENDROOT
BRANCH  16  29
ATOM     29  OD1 ASN A   2       3.557   1.924  25.185  0.00  0.00    -0.374 OA
ATOM     30  HD1 ASN A   2       3.575   0.971  25.392  0.00  0.00    +0.212 HD
ENDBRANCH  16  29
BRANCH   1  31
ATOM     31  C   UNK A   5       5.917  -3.082  23.042  0.00  0.00    +0.035 C 
BRANCH  31  32
ATOM     32  C   UNK A   5       6.286  -4.179  22.072  0.00  0.00    +0.043 C 
BRANCH  32  33
ATOM     33  C   UNK A   5       5.400  -5.411  22.154  0.00  0.00    +0.243 C 
BRANCH  33  39
ATOM     34  C   UNK A   5       0.867  -5.576  26.096  0.00  0.00    +0.129 C 
ATOM     35  C   UNK A   5       2.085  -6.241  25.524  0.00  0.00    +0.272 C 
ATOM     36  N   UNK A   5       2.683  -5.531  24.495  0.00  0.00    -0.175 N 
ATOM     37  H   UNK A   5       2.327  -4.635  24.230  0.00  0.00    +0.254 HD
ATOM     38  C   UNK A   5       3.805  -5.915  23.789  0.00  0.00    +0.377 C 
ATOM     39  N   UNK A   5       4.219  -5.045  22.950  0.00  0.00    -0.115 NA
ATOM     40  N   UNK A   5       4.345  -7.130  24.045  0.00  0.00    -0.291 N 
ATOM     41  H   UNK A   5       5.345  -7.204  23.944  0.00  0.00    +0.254 HD
ATOM     42  H   UNK A   5       3.997  -7.571  24.898  0.00  0.00    +0.254 HD
ATOM     43  O   UNK A   5       2.511  -7.302  25.970  0.00  0.00    -0.258 OA
ENDBRANCH  33  39
ENDBRANCH  32  33
ENDBRANCH  31  32
ENDBRANCH   1  31
BRANCH  17  44
ATOM     44  CB  HIS A   3       2.766   1.391  27.795  0.00  0.00    +0.086 C 
BRANCH  44  45
ATOM     45  CG  HIS A   3       2.013   2.644  28.110  0.00  0.00    +0.038 A 
ATOM     46  ND1 HIS A   3       1.712   3.621  27.196  0.00  0.00    -0.348 N 
ATOM     47  HD1 HIS A   3       1.938   3.620  26.210  0.00  0.00    +0.166 HD
ATOM     48  CE1 HIS A   3       1.026   4.601  27.853  0.00  0.00    +0.196 A 
ATOM     49  NE2 HIS A   3       0.863   4.311  29.123  0.00  0.00    -0.244 NA
ATOM     50  CD2 HIS A   3       1.489   3.108  29.302  0.00  0.00    +0.133 A 
ENDBRANCH  44  45
ENDBRANCH  17  44
BRANCH  22  51
ATOM     51  C   UNK A   4       4.004  -3.593  27.428  0.00  0.00    +0.032 C 
BRANCH  51  52
ATOM     52  C   UNK A   4       4.463  -4.550  28.540  0.00  0.00    +0.013 C 
BRANCH  52  53
ATOM     53  C   UNK A   4       5.831  -5.177  28.296  0.00  0.00    +0.120 C 
BRANCH  53  54
ATOM     54  C   UNK A   4       5.804  -6.046  27.052  0.00  0.00    +0.305 C 
ATOM     55  O   UNK A   4       6.348  -5.780  25.994  0.00  0.00    -0.251 OA
BRANCH  54  56
ATOM     56  O   UNK A   4       5.087  -7.178  27.237  0.00  0.00    -0.481 OA
ATOM     57  H   UNK A   4       4.309  -7.066  27.815  0.00  0.00    +0.295 HD
ENDBRANCH  54  56
ENDBRANCH  53  54
ENDBRANCH  52  53
ENDBRANCH  51  52
ENDBRANCH  22  51
TORSDOF 12
ENDMDL
MODEL 6
REMARK VINA RESULT:      -6.7      2.288      9.401
REMARK  Name = 
REMARK  13 active torsions:
REMARK  status: ('A' for Active; 'I' for Inactive)
REMARK    1  A    between atoms: C_1  and  C_2
REMARK    2  A    between atoms: N_7  and  C_8
REMARK    3  A    between atoms: C_8  and  C_9
REMARK    4  A    between atoms: C_9  and  C_10
REMARK    5  A    between atoms: C_10  and  C_11
REMARK    6  A    between atoms: C_16  and  C_18
REMARK    7  A    between atoms: C_18  and  C_19
REMARK    8  A    between atoms: C_19  and  C_20
REMARK    9  A    between atoms: C_20  and  C_21
REMARK   10  A    between atoms: C_21  and  O_22
REMARK   11  A    between atoms: CA_27  and  CB_29
REMARK   12  A    between atoms: CB_29  and  CG_30
REMARK   13  A    between atoms: CG_36  and  OD1_38
REMARK                            x       y       z     vdW  Elec       q    Type
REMARK                         _______ _______ _______ _____ _____    ______ ____
ROOT
ATOM      1  C   UNK A   5       6.186  -2.747  24.274  0.00  0.00    +0.159 C 
ATOM      2  C   UNK A   5       5.199  -2.409  25.446  0.00  0.00    +0.237 C 
ATOM      3  O   UNK A   5       4.570  -1.343  25.368  0.00  0.00    -0.274 OA
ATOM      4  N   PRO A   1       4.874  -3.261  26.468  0.00  0.00    -0.288 N 
ATOM      5  CA  PRO A   1       4.231  -2.761  27.707  0.00  0.00    +0.162 C 
ATOM      6  CB  PRO A   1       3.872  -4.059  28.475  0.00  0.00    +0.033 C 
ATOM      7  CG  PRO A   1       3.963  -5.189  27.452  0.00  0.00    +0.021 C 
ATOM      8  C   PRO A   1       2.996  -1.818  27.559  0.00  0.00    +0.234 C 
ATOM      9  O   PRO A   1       1.866  -2.289  27.386  0.00  0.00    -0.274 OA
ATOM     10  N   ASN A   2       3.124  -0.446  27.532  0.00  0.00    -0.302 N 
ATOM     11  H   ASN A   2       2.228  -0.002  27.357  0.00  0.00    +0.150 HD
ATOM     12  CA  ASN A   2       4.159   0.470  28.030  0.00  0.00    +0.163 C 
ATOM     13  C   ASN A   2       4.144   1.974  27.520  0.00  0.00    +0.239 C 
ATOM     14  O   ASN A   2       3.163   2.638  27.221  0.00  0.00    -0.273 OA
ATOM     15  N   ASN A   2       5.507   2.440  27.523  0.00  0.00    -0.262 N 
ATOM     16  CG  ASN A   2       6.243   1.428  28.216  0.00  0.00    +0.208 C 
ATOM     17  CA  HIS A   3       6.019   3.181  26.322  0.00  0.00    +0.170 C 
ATOM     18  C   HIS A   3       5.795   2.377  24.983  0.00  0.00    +0.235 C 
ATOM     19  O   HIS A   3       4.659   2.044  24.638  0.00  0.00    -0.274 OA
ATOM     20  N   UNK A   4       6.886   2.021  24.201  0.00  0.00    -0.302 N 
ATOM     21  H   UNK A   4       7.768   1.941  24.693  0.00  0.00    +0.150 HD
ATOM     22  C   UNK A   4       6.708   0.936  23.209  0.00  0.00    +0.159 C 
ATOM     23  C   UNK A   4       6.875  -0.362  24.017  0.00  0.00    +0.234 C 
ATOM     24  O   UNK A   4       7.615  -0.385  25.003  0.00  0.00    -0.274 OA
ATOM     25  CB  ASN A   2       5.617   0.159  27.720  0.00  0.00    +0.083 C 
ATOM     26  CD  PRO A   1       5.035  -4.700  26.507  0.00  0.00    +0.109 C 
ATOM     27  N   UNK A   5       6.227  -1.477  23.501  0.00  0.00    -0.302 N 
ATOM     28  H   UNK A   5       5.367  -1.261  23.007  0.00  0.00    +0.150 HD
ENDROOT
BRANCH  16  29
ATOM     29  OD1 ASN A   2       7.622   1.493  28.053  0.00  0.00    -0.374 OA
ATOM     30  HD1 ASN A   2       7.940   2.011  28.816  0.00  0.00    +0.212 HD
ENDBRANCH  16  29
BRANCH   1  31
ATOM     31  C   UNK A   5       7.637  -3.232  24.462  0.00  0.00    +0.035 C 
BRANCH  31  32
ATOM     32  C   UNK A   5       7.940  -4.637  23.998  0.00  0.00    +0.043 C 
BRANCH  32  33
ATOM     33  C   UNK A   5       7.076  -5.116  22.844  0.00  0.00    +0.243 C 
BRANCH  33  39
ATOM     34  C   UNK A   5       2.188  -8.260  24.376  0.00  0.00    +0.129 C 
ATOM     35  C   UNK A   5       2.769  -7.054  23.695  0.00  0.00    +0.272 C 
ATOM     36  N   UNK A   5       4.149  -6.973  23.774  0.00  0.00    -0.175 N 
ATOM     37  H   UNK A   5       4.672  -7.705  24.212  0.00  0.00    +0.254 HD
ATOM     38  C   UNK A   5       4.935  -5.969  23.246  0.00  0.00    +0.377 C 
ATOM     39  N   UNK A   5       6.192  -6.167  23.370  0.00  0.00    -0.115 NA
ATOM     40  N   UNK A   5       4.325  -4.910  22.664  0.00  0.00    -0.291 N 
ATOM     41  H   UNK A   5       4.814  -4.480  21.894  0.00  0.00    +0.254 HD
ATOM     42  H   UNK A   5       3.332  -5.051  22.475  0.00  0.00    +0.254 HD
ATOM     43  O   UNK A   5       2.062  -6.246  23.099  0.00  0.00    -0.258 OA
ENDBRANCH  33  39
ENDBRANCH  32  33
ENDBRANCH  31  32
ENDBRANCH   1  31
BRANCH  17  44
ATOM     44  CB  HIS A   3       7.462   3.741  26.427  0.00  0.00    +0.086 C 
BRANCH  44  45
ATOM     45  CG  HIS A   3       7.851   4.779  25.423  0.00  0.00    +0.038 A 
ATOM     46  ND1 HIS A   3       9.032   4.783  24.726  0.00  0.00    -0.348 N 
ATOM     47  HD1 HIS A   3       9.771   4.095  24.781  0.00  0.00    +0.166 HD
ATOM     48  CE1 HIS A   3       9.027   5.882  23.915  0.00  0.00    +0.196 A 
ATOM     49  NE2 HIS A   3       7.919   6.574  24.044  0.00  0.00    -0.244 NA
ATOM     50  CD2 HIS A   3       7.189   5.914  24.993  0.00  0.00    +0.133 A 
ENDBRANCH  44  45
ENDBRANCH  17  44
BRANCH  22  51
ATOM     51  C   UNK A   4       7.787   0.962  22.106  0.00  0.00    +0.032 C 
BRANCH  51  52
ATOM     52  C   UNK A   4       8.636   2.243  22.147  0.00  0.00    +0.013 C 
BRANCH  52  53
ATOM     53  C   UNK A   4      10.121   1.999  22.387  0.00  0.00    +0.120 C 
BRANCH  53  54
ATOM     54  C   UNK A   4      10.328   1.168  23.640  0.00  0.00    +0.305 C 
ATOM     55  O   UNK A   4      10.853   0.067  23.677  0.00  0.00    -0.251 OA
BRANCH  54  56
ATOM     56  O   UNK A   4       9.850   1.783  24.744  0.00  0.00    -0.481 OA
ATOM     57  H   UNK A   4       9.232   1.238  25.268  0.00  0.00    +0.295 HD
ENDBRANCH  54  56
ENDBRANCH  53  54
ENDBRANCH  52  53
ENDBRANCH  51  52
ENDBRANCH  22  51
TORSDOF 12
ENDMDL
MODEL 7
REMARK VINA RESULT:      -6.7      2.429      7.485
REMARK  Name = 
REMARK  13 active torsions:
REMARK  status: ('A' for Active; 'I' for Inactive)
REMARK    1  A    between atoms: C_1  and  C_2
REMARK    2  A    between atoms: N_7  and  C_8
REMARK    3  A    between atoms: C_8  and  C_9
REMARK    4  A    between atoms: C_9  and  C_10
REMARK    5  A    between atoms: C_10  and  C_11
REMARK    6  A    between atoms: C_16  and  C_18
REMARK    7  A    between atoms: C_18  and  C_19
REMARK    8  A    between atoms: C_19  and  C_20
REMARK    9  A    between atoms: C_20  and  C_21
REMARK   10  A    between atoms: C_21  and  O_22
REMARK   11  A    between atoms: CA_27  and  CB_29
REMARK   12  A    between atoms: CB_29  and  CG_30
REMARK   13  A    between atoms: CG_36  and  OD1_38
REMARK                            x       y       z     vdW  Elec       q    Type
REMARK                         _______ _______ _______ _____ _____    ______ ____
ROOT
ATOM      1  C   UNK A   5       4.899  -2.909  26.659  0.00  0.00    +0.159 C 
ATOM      2  C   UNK A   5       5.811  -3.359  25.465  0.00  0.00    +0.237 C 
ATOM      3  O   UNK A   5       6.987  -2.965  25.470  0.00  0.00    -0.274 OA
ATOM      4  N   PRO A   1       5.453  -4.264  24.502  0.00  0.00    -0.288 N 
ATOM      5  CA  PRO A   1       6.209  -4.370  23.231  0.00  0.00    +0.162 C 
ATOM      6  CB  PRO A   1       5.596  -5.621  22.550  0.00  0.00    +0.033 C 
ATOM      7  CG  PRO A   1       4.835  -6.362  23.646  0.00  0.00    +0.021 C 
ATOM      8  C   PRO A   1       7.765  -4.462  23.313  0.00  0.00    +0.234 C 
ATOM      9  O   PRO A   1       8.318  -5.550  23.514  0.00  0.00    -0.274 OA
ATOM     10  N   ASN A   2       8.566  -3.343  23.248  0.00  0.00    -0.302 N 
ATOM     11  H   ASN A   2       9.542  -3.588  23.390  0.00  0.00    +0.150 HD
ATOM     12  CA  ASN A   2       8.362  -1.998  22.692  0.00  0.00    +0.163 C 
ATOM     13  C   ASN A   2       9.381  -0.851  23.100  0.00  0.00    +0.239 C 
ATOM     14  O   ASN A   2      10.569  -0.979  23.352  0.00  0.00    -0.273 OA
ATOM     15  N   ASN A   2       8.656   0.394  23.069  0.00  0.00    -0.262 N 
ATOM     16  CG  ASN A   2       7.407   0.081  22.447  0.00  0.00    +0.208 C 
ATOM     17  CA  HIS A   3       8.810   1.347  24.219  0.00  0.00    +0.170 C 
ATOM     18  C   HIS A   3       8.514   0.660  25.608  0.00  0.00    +0.235 C 
ATOM     19  O   HIS A   3       9.169  -0.318  25.972  0.00  0.00    -0.274 OA
ATOM     20  N   UNK A   4       7.492   1.146  26.414  0.00  0.00    -0.302 N 
ATOM     21  H   UNK A   4       6.752   1.640  25.931  0.00  0.00    +0.150 HD
ATOM     22  C   UNK A   4       6.962   0.260  27.477  0.00  0.00    +0.159 C 
ATOM     23  C   UNK A   4       5.950  -0.648  26.757  0.00  0.00    +0.234 C 
ATOM     24  O   UNK A   4       5.331  -0.228  25.777  0.00  0.00    -0.274 OA
ATOM     25  CB  ASN A   2       7.072  -1.262  23.026  0.00  0.00    +0.083 C 
ATOM     26  CD  PRO A   1       4.388  -5.245  24.559  0.00  0.00    +0.109 C 
ATOM     27  N   UNK A   5       5.734  -1.887  27.345  0.00  0.00    -0.302 N 
ATOM     28  H   UNK A   5       6.547  -2.264  27.822  0.00  0.00    +0.150 HD
ENDROOT
BRANCH  16  29
ATOM     29  OD1 ASN A   2       6.416   1.042  22.609  0.00  0.00    -0.374 OA
ATOM     30  HD1 ASN A   2       6.508   1.628  21.834  0.00  0.00    +0.212 HD
ENDBRANCH  16  29
BRANCH   1  31
ATOM     31  C   UNK A   5       3.477  -2.332  26.507  0.00  0.00    +0.035 C 
BRANCH  31  32
ATOM     32  C   UNK A   5       2.663  -2.210  27.774  0.00  0.00    +0.043 C 
BRANCH  32  33
ATOM     33  C   UNK A   5       1.757  -0.991  27.822  0.00  0.00    +0.243 C 
BRANCH  33  39
ATOM     34  C   UNK A   5       4.051   4.149  25.715  0.00  0.00    +0.129 C 
ATOM     35  C   UNK A   5       3.524   3.372  26.887  0.00  0.00    +0.272 C 
ATOM     36  N   UNK A   5       3.104   2.091  26.570  0.00  0.00    -0.175 N 
ATOM     37  H   UNK A   5       3.212   1.743  25.638  0.00  0.00    +0.254 HD
ATOM     38  C   UNK A   5       2.571   1.170  27.449  0.00  0.00    +0.377 C 
ATOM     39  N   UNK A   5       2.346   0.023  26.934  0.00  0.00    -0.115 NA
ATOM     40  N   UNK A   5       2.348   1.553  28.729  0.00  0.00    -0.291 N 
ATOM     41  H   UNK A   5       2.450   0.839  29.432  0.00  0.00    +0.254 HD
ATOM     42  H   UNK A   5       2.798   2.432  28.986  0.00  0.00    +0.254 HD
ATOM     43  O   UNK A   5       3.510   3.843  28.021  0.00  0.00    -0.258 OA
ENDBRANCH  33  39
ENDBRANCH  32  33
ENDBRANCH  31  32
ENDBRANCH   1  31
BRANCH  17  44
ATOM     44  CB  HIS A   3       8.082   2.710  24.080  0.00  0.00    +0.086 C 
BRANCH  44  45
ATOM     45  CG  HIS A   3       8.926   3.936  24.221  0.00  0.00    +0.038 A 
ATOM     46  ND1 HIS A   3       8.555   5.061  24.912  0.00  0.00    -0.348 N 
ATOM     47  HD1 HIS A   3       7.692   5.204  25.420  0.00  0.00    +0.166 HD
ATOM     48  CE1 HIS A   3       9.578   5.960  24.812  0.00  0.00    +0.196 A 
ATOM     49  NE2 HIS A   3      10.578   5.481  24.110  0.00  0.00    -0.244 NA
ATOM     50  CD2 HIS A   3      10.179   4.234  23.718  0.00  0.00    +0.133 A 
ENDBRANCH  44  45
ENDBRANCH  17  44
BRANCH  22  51
ATOM     51  C   UNK A   4       6.214   1.041  28.577  0.00  0.00    +0.032 C 
BRANCH  51  52
ATOM     52  C   UNK A   4       7.152   1.945  29.394  0.00  0.00    +0.013 C 
BRANCH  52  53
ATOM     53  C   UNK A   4       6.608   3.348  29.637  0.00  0.00    +0.120 C 
BRANCH  53  54
ATOM     54  C   UNK A   4       6.818   4.220  28.412  0.00  0.00    +0.305 C 
ATOM     55  O   UNK A   4       7.568   3.964  27.484  0.00  0.00    -0.251 OA
BRANCH  54  56
ATOM     56  O   UNK A   4       6.073   5.347  28.455  0.00  0.00    -0.481 OA
ATOM     57  H   UNK A   4       6.075   5.792  29.324  0.00  0.00    +0.295 HD
ENDBRANCH  54  56
ENDBRANCH  53  54
ENDBRANCH  52  53
ENDBRANCH  51  52
ENDBRANCH  22  51
TORSDOF 12
ENDMDL
MODEL 8
REMARK VINA RESULT:      -6.6      3.087      9.699
REMARK  Name = 
REMARK  13 active torsions:
REMARK  status: ('A' for Active; 'I' for Inactive)
REMARK    1  A    between atoms: C_1  and  C_2
REMARK    2  A    between atoms: N_7  and  C_8
REMARK    3  A    between atoms: C_8  and  C_9
REMARK    4  A    between atoms: C_9  and  C_10
REMARK    5  A    between atoms: C_10  and  C_11
REMARK    6  A    between atoms: C_16  and  C_18
REMARK    7  A    between atoms: C_18  and  C_19
REMARK    8  A    between atoms: C_19  and  C_20
REMARK    9  A    between atoms: C_20  and  C_21
REMARK   10  A    between atoms: C_21  and  O_22
REMARK   11  A    between atoms: CA_27  and  CB_29
REMARK   12  A    between atoms: CB_29  and  CG_30
REMARK   13  A    between atoms: CG_36  and  OD1_38
REMARK                            x       y       z     vdW  Elec       q    Type
REMARK                         _______ _______ _______ _____ _____    ______ ____
ROOT
ATOM      1  C   UNK A   5       5.667   0.422  25.470  0.00  0.00    +0.159 C 
ATOM      2  C   UNK A   5       4.916   1.773  25.200  0.00  0.00    +0.237 C 
ATOM      3  O   UNK A   5       5.257   2.421  24.199  0.00  0.00    -0.274 OA
ATOM      4  N   PRO A   1       3.824   2.216  25.898  0.00  0.00    -0.288 N 
ATOM      5  CA  PRO A   1       3.395   3.633  25.829  0.00  0.00    +0.162 C 
ATOM      6  CB  PRO A   1       2.041   3.637  26.586  0.00  0.00    +0.033 C 
ATOM      7  CG  PRO A   1       1.607   2.176  26.673  0.00  0.00    +0.021 C 
ATOM      8  C   PRO A   1       3.267   4.290  24.419  0.00  0.00    +0.234 C 
ATOM      9  O   PRO A   1       2.238   4.142  23.749  0.00  0.00    -0.274 OA
ATOM     10  N   ASN A   2       4.309   4.980  23.838  0.00  0.00    -0.302 N 
ATOM     11  H   ASN A   2       4.070   5.273  22.896  0.00  0.00    +0.150 HD
ATOM     12  CA  ASN A   2       5.492   5.654  24.391  0.00  0.00    +0.163 C 
ATOM     13  C   ASN A   2       6.666   6.053  23.399  0.00  0.00    +0.239 C 
ATOM     14  O   ASN A   2       6.557   6.382  22.227  0.00  0.00    -0.273 OA
ATOM     15  N   ASN A   2       7.894   6.010  24.151  0.00  0.00    -0.262 N 
ATOM     16  CG  ASN A   2       7.489   5.868  25.515  0.00  0.00    +0.208 C 
ATOM     17  CA  HIS A   3       9.084   5.320  23.549  0.00  0.00    +0.170 C 
ATOM     18  C   HIS A   3       8.755   3.846  23.093  0.00  0.00    +0.235 C 
ATOM     19  O   HIS A   3       7.866   3.634  22.266  0.00  0.00    -0.274 OA
ATOM     20  N   UNK A   4       9.453   2.781  23.645  0.00  0.00    -0.302 N 
ATOM     21  H   UNK A   4       9.846   2.946  24.564  0.00  0.00    +0.150 HD
ATOM     22  C   UNK A   4       8.862   1.427  23.533  0.00  0.00    +0.159 C 
ATOM     23  C   UNK A   4       7.848   1.349  24.688  0.00  0.00    +0.234 C 
ATOM     24  O   UNK A   4       8.048   1.977  25.729  0.00  0.00    -0.274 OA
ATOM     25  CB  ASN A   2       6.333   4.916  25.424  0.00  0.00    +0.083 C 
ATOM     26  CD  PRO A   1       2.923   1.437  26.723  0.00  0.00    +0.109 C 
ATOM     27  N   UNK A   5       6.791   0.469  24.497  0.00  0.00    -0.302 N 
ATOM     28  H   UNK A   5       6.506   0.371  23.527  0.00  0.00    +0.150 HD
ENDROOT
BRANCH  16  29
ATOM     29  OD1 ASN A   2       8.496   5.469  26.386  0.00  0.00    -0.374 OA
ATOM     30  HD1 ASN A   2       8.479   4.494  26.358  0.00  0.00    +0.212 HD
ENDBRANCH  16  29
BRANCH   1  31
ATOM     31  C   UNK A   5       6.244  -0.002  26.836  0.00  0.00    +0.035 C 
BRANCH  31  32
ATOM     32  C   UNK A   5       6.919  -1.352  26.888  0.00  0.00    +0.043 C 
BRANCH  32  33
ATOM     33  C   UNK A   5       5.962  -2.532  26.902  0.00  0.00    +0.243 C 
BRANCH  33  39
ATOM     34  C   UNK A   5       6.701  -5.979  22.035  0.00  0.00    +0.129 C 
ATOM     35  C   UNK A   5       5.952  -4.865  22.708  0.00  0.00    +0.272 C 
ATOM     36  N   UNK A   5       6.378  -4.600  24.000  0.00  0.00    -0.175 N 
ATOM     37  H   UNK A   5       7.155  -5.101  24.385  0.00  0.00    +0.254 HD
ATOM     38  C   UNK A   5       5.861  -3.641  24.845  0.00  0.00    +0.377 C 
ATOM     39  N   UNK A   5       6.486  -3.527  25.954  0.00  0.00    -0.115 NA
ATOM     40  N   UNK A   5       4.782  -2.933  24.435  0.00  0.00    -0.291 N 
ATOM     41  H   UNK A   5       4.722  -1.982  24.762  0.00  0.00    +0.254 HD
ATOM     42  H   UNK A   5       4.576  -3.024  23.439  0.00  0.00    +0.254 HD
ATOM     43  O   UNK A   5       5.069  -4.239  22.130  0.00  0.00    -0.258 OA
ENDBRANCH  33  39
ENDBRANCH  32  33
ENDBRANCH  31  32
ENDBRANCH   1  31
BRANCH  17  44
ATOM     44  CB  HIS A   3      10.402   5.394  24.364  0.00  0.00    +0.086 C 
BRANCH  44  45
ATOM     45  CG  HIS A   3      11.676   5.377  23.580  0.00  0.00    +0.038 A 
ATOM     46  ND1 HIS A   3      11.774   5.691  22.249  0.00  0.00    -0.348 N 
ATOM     47  HD1 HIS A   3      11.023   5.984  21.638  0.00  0.00    +0.166 HD
ATOM     48  CE1 HIS A   3      13.084   5.557  21.891  0.00  0.00    +0.196 A 
ATOM     49  NE2 HIS A   3      13.829   5.186  22.906  0.00  0.00    -0.244 NA
ATOM     50  CD2 HIS A   3      12.965   5.049  23.957  0.00  0.00    +0.133 A 
ENDBRANCH  44  45
ENDBRANCH  17  44
BRANCH  22  51
ATOM     51  C   UNK A   4       9.907   0.309  23.731  0.00  0.00    +0.032 C 
BRANCH  51  52
ATOM     52  C   UNK A   4      10.257  -0.405  22.415  0.00  0.00    +0.013 C 
BRANCH  52  53
ATOM     53  C   UNK A   4       9.046  -0.917  21.644  0.00  0.00    +0.120 C 
BRANCH  53  54
ATOM     54  C   UNK A   4       8.296  -1.955  22.459  0.00  0.00    +0.305 C 
ATOM     55  O   UNK A   4       8.801  -2.924  23.002  0.00  0.00    -0.251 OA
BRANCH  54  56
ATOM     56  O   UNK A   4       6.970  -1.697  22.517  0.00  0.00    -0.481 OA
ATOM     57  H   UNK A   4       6.548  -1.974  23.353  0.00  0.00    +0.295 HD
ENDBRANCH  54  56
ENDBRANCH  53  54
ENDBRANCH  52  53
ENDBRANCH  51  52
ENDBRANCH  22  51
TORSDOF 12
ENDMDL
MODEL 9
REMARK VINA RESULT:      -6.4      3.260      8.056
REMARK  Name = 
REMARK  13 active torsions:
REMARK  status: ('A' for Active; 'I' for Inactive)
REMARK    1  A    between atoms: C_1  and  C_2
REMARK    2  A    between atoms: N_7  and  C_8
REMARK    3  A    between atoms: C_8  and  C_9
REMARK    4  A    between atoms: C_9  and  C_10
REMARK    5  A    between atoms: C_10  and  C_11
REMARK    6  A    between atoms: C_16  and  C_18
REMARK    7  A    between atoms: C_18  and  C_19
REMARK    8  A    between atoms: C_19  and  C_20
REMARK    9  A    between atoms: C_20  and  C_21
REMARK   10  A    between atoms: C_21  and  O_22
REMARK   11  A    between atoms: CA_27  and  CB_29
REMARK   12  A    between atoms: CB_29  and  CG_30
REMARK   13  A    between atoms: CG_36  and  OD1_38
REMARK                            x       y       z     vdW  Elec       q    Type
REMARK                         _______ _______ _______ _____ _____    ______ ____
ROOT
ATOM      1  C   UNK A   5       7.237  -0.117  22.818  0.00  0.00    +0.159 C 
ATOM      2  C   UNK A   5       6.952  -0.828  24.187  0.00  0.00    +0.237 C 
ATOM      3  O   UNK A   5       5.880  -0.563  24.753  0.00  0.00    -0.274 OA
ATOM      4  N   PRO A   1       7.724  -1.820  24.731  0.00  0.00    -0.288 N 
ATOM      5  CA  PRO A   1       7.604  -2.188  26.162  0.00  0.00    +0.162 C 
ATOM      6  CB  PRO A   1       8.491  -3.453  26.285  0.00  0.00    +0.033 C 
ATOM      7  CG  PRO A   1       8.720  -3.944  24.858  0.00  0.00    +0.021 C 
ATOM      8  C   PRO A   1       6.172  -2.430  26.735  0.00  0.00    +0.234 C 
ATOM      9  O   PRO A   1       5.621  -3.529  26.600  0.00  0.00    -0.274 OA
ATOM     10  N   ASN A   2       5.444  -1.423  27.331  0.00  0.00    -0.302 N 
ATOM     11  H   ASN A   2       4.513  -1.745  27.576  0.00  0.00    +0.150 HD
ATOM     12  CA  ASN A   2       5.828  -0.159  27.974  0.00  0.00    +0.163 C 
ATOM     13  C   ASN A   2       4.698   0.923  28.247  0.00  0.00    +0.239 C 
ATOM     14  O   ASN A   2       3.524   0.709  28.507  0.00  0.00    -0.273 OA
ATOM     15  N   ASN A   2       5.324   2.219  28.185  0.00  0.00    -0.262 N 
ATOM     16  CG  ASN A   2       6.728   1.952  28.151  0.00  0.00    +0.208 C 
ATOM     17  CA  HIS A   3       4.653   3.307  27.397  0.00  0.00    +0.170 C 
ATOM     18  C   HIS A   3       4.334   2.864  25.917  0.00  0.00    +0.235 C 
ATOM     19  O   HIS A   3       3.617   1.885  25.701  0.00  0.00    -0.274 OA
ATOM     20  N   UNK A   4       4.884   3.565  24.853  0.00  0.00    -0.302 N 
ATOM     21  H   UNK A   4       5.746   4.059  25.054  0.00  0.00    +0.150 HD
ATOM     22  C   UNK A   4       4.924   2.903  23.528  0.00  0.00    +0.159 C 
ATOM     23  C   UNK A   4       6.178   2.012  23.576  0.00  0.00    +0.234 C 
ATOM     24  O   UNK A   4       7.149   2.348  24.257  0.00  0.00    -0.274 OA
ATOM     25  CB  ASN A   2       6.819   0.750  27.259  0.00  0.00    +0.083 C 
ATOM     26  CD  PRO A   1       8.687  -2.665  24.055  0.00  0.00    +0.109 C 
ATOM     27  N   UNK A   5       6.154   0.900  22.744  0.00  0.00    -0.302 N 
ATOM     28  H   UNK A   5       5.227   0.513  22.601  0.00  0.00    +0.150 HD
ENDROOT
BRANCH  16  29
ATOM     29  OD1 ASN A   2       7.518   3.025  27.755  0.00  0.00    -0.374 OA
ATOM     30  HD1 ASN A   2       7.347   3.720  28.418  0.00  0.00    +0.212 HD
ENDBRANCH  16  29
BRANCH   1  31
ATOM     31  C   UNK A   5       8.563   0.578  22.450  0.00  0.00    +0.035 C 
BRANCH  31  32
ATOM     32  C   UNK A   5       9.788   0.132  23.212  0.00  0.00    +0.043 C 
BRANCH  32  33
ATOM     33  C   UNK A   5      10.181   1.048  24.359  0.00  0.00    +0.243 C 
BRANCH  33  39
ATOM     34  C   UNK A   5      13.064   5.972  22.473  0.00  0.00    +0.129 C 
ATOM     35  C   UNK A   5      11.817   5.365  23.049  0.00  0.00    +0.272 C 
ATOM     36  N   UNK A   5      11.884   3.991  23.213  0.00  0.00    -0.175 N 
ATOM     37  H   UNK A   5      12.729   3.500  23.000  0.00  0.00    +0.254 HD
ATOM     38  C   UNK A   5      10.882   3.183  23.710  0.00  0.00    +0.377 C 
ATOM     39  N   UNK A   5      11.218   1.958  23.852  0.00  0.00    -0.115 NA
ATOM     40  N   UNK A   5       9.683   3.742  23.996  0.00  0.00    -0.291 N 
ATOM     41  H   UNK A   5       9.173   3.337  24.764  0.00  0.00    +0.254 HD
ATOM     42  H   UNK A   5       9.693   4.763  24.020  0.00  0.00    +0.254 HD
ATOM     43  O   UNK A   5      10.853   6.053  23.370  0.00  0.00    -0.258 OA
ENDBRANCH  33  39
ENDBRANCH  32  33
ENDBRANCH  31  32
ENDBRANCH   1  31
BRANCH  17  44
ATOM     44  CB  HIS A   3       5.325   4.705  27.451  0.00  0.00    +0.086 C 
BRANCH  44  45
ATOM     45  CG  HIS A   3       4.898   5.609  28.563  0.00  0.00    +0.038 A 
ATOM     46  ND1 HIS A   3       3.695   6.265  28.613  0.00  0.00    -0.348 N 
ATOM     47  HD1 HIS A   3       2.947   6.214  27.933  0.00  0.00    +0.166 HD
ATOM     48  CE1 HIS A   3       3.671   6.992  29.768  0.00  0.00    +0.196 A 
ATOM     49  NE2 HIS A   3       4.776   6.839  30.460  0.00  0.00    -0.244 NA
ATOM     50  CD2 HIS A   3       5.556   6.000  29.714  0.00  0.00    +0.133 A 
ENDBRANCH  44  45
ENDBRANCH  17  44
BRANCH  22  51
ATOM     51  C   UNK A   4       5.091   3.909  22.370  0.00  0.00    +0.032 C 
BRANCH  51  52
ATOM     52  C   UNK A   4       4.754   5.349  22.792  0.00  0.00    +0.013 C 
BRANCH  52  53
ATOM     53  C   UNK A   4       5.856   6.359  22.496  0.00  0.00    +0.120 C 
BRANCH  53  54
ATOM     54  C   UNK A   4       7.159   5.930  23.146  0.00  0.00    +0.305 C 
ATOM     55  O   UNK A   4       7.308   5.682  24.331  0.00  0.00    -0.251 OA
BRANCH  54  56
ATOM     56  O   UNK A   4       8.173   5.856  22.255  0.00  0.00    -0.481 OA
ATOM     57  H   UNK A   4       9.032   5.611  22.649  0.00  0.00    +0.295 HD
ENDBRANCH  54  56
ENDBRANCH  53  54
ENDBRANCH  52  53
ENDBRANCH  51  52
ENDBRANCH  22  51
TORSDOF 12
ENDMDL
