MODEL 1
REMARK VINA RESULT:      -4.7      0.000      0.000
REMARK  Name = 
REMARK  2 active torsions:
REMARK  status: ('A' for Active; 'I' for Inactive)
REMARK    1  A    between atoms: N_1  and  N_2
REMARK    2  A    between atoms: C_3  and  C_5
REMARK                            x       y       z     vdW  Elec       q    Type
REMARK                         _______ _______ _______ _____ _____    ______ ____
ROOT
ATOM      1  N   UNL     1       7.497  -5.370  25.714  0.00  0.00    -0.250 N 
ATOM      2  H   UNL     1       6.485  -5.317  25.763  0.00  0.00    +0.169 HD
ATOM      3  C   UNL     1       8.186  -5.176  24.521  0.00  0.00    +0.257 C 
ATOM      4  O   UNL     1       9.413  -5.180  24.452  0.00  0.00    -0.269 OA
ENDROOT
BRANCH   3   5
ATOM      5  C   UNL     1       7.366  -4.896  23.306  0.00  0.00    +0.041 A 
ATOM      6  C   UNL     1       7.207  -5.818  22.271  0.00  0.00    +0.033 A 
ATOM      7  C   UNL     1       6.385  -5.469  21.212  0.00  0.00    +0.111 A 
ATOM      8  N   UNL     1       5.742  -4.287  21.119  0.00  0.00    -0.263 NA
ATOM      9  C   UNL     1       5.943  -3.402  22.117  0.00  0.00    +0.111 A 
ATOM     10  C   UNL     1       6.740  -3.652  23.214  0.00  0.00    +0.033 A 
ENDBRANCH   3   5
BRANCH   1  11
ATOM     11  N   UNL     1       8.218  -5.654  26.889  0.00  0.00    -0.254 NA
ATOM     12  H   UNL     1       7.811  -6.512  27.290  0.00  0.00    +0.140 HD
ATOM     13  H   UNL     1       9.174  -5.910  26.638  0.00  0.00    +0.140 HD
ENDBRANCH   1  11
TORSDOF 2
ENDMDL
MODEL 2
REMARK VINA RESULT:      -4.5      7.348      7.976
REMARK  Name = 
REMARK  2 active torsions:
REMARK  status: ('A' for Active; 'I' for Inactive)
REMARK    1  A    between atoms: N_1  and  N_2
REMARK    2  A    between atoms: C_3  and  C_5
REMARK                            x       y       z     vdW  Elec       q    Type
REMARK                         _______ _______ _______ _____ _____    ______ ____
ROOT
ATOM      1  N   UNL     1      11.224   3.807  22.927  0.00  0.00    -0.250 N 
ATOM      2  H   UNL     1      11.930   3.372  22.343  0.00  0.00    +0.169 HD
ATOM      3  C   UNL     1      10.176   3.079  23.480  0.00  0.00    +0.257 C 
ATOM      4  O   UNL     1       9.344   3.576  24.236  0.00  0.00    -0.269 OA
ENDROOT
BRANCH   3   5
ATOM      5  C   UNL     1      10.127   1.621  23.164  0.00  0.00    +0.041 A 
ATOM      6  C   UNL     1      10.441   0.632  24.096  0.00  0.00    +0.033 A 
ATOM      7  C   UNL     1      10.315  -0.691  23.707  0.00  0.00    +0.111 A 
ATOM      8  N   UNL     1       9.919  -1.076  22.477  0.00  0.00    -0.263 NA
ATOM      9  C   UNL     1       9.655  -0.099  21.586  0.00  0.00    +0.111 A 
ATOM     10  C   UNL     1       9.750   1.246  21.873  0.00  0.00    +0.033 A 
ENDBRANCH   3   5
BRANCH   1  11
ATOM     11  N   UNL     1      11.312   5.190  23.179  0.00  0.00    -0.254 NA
ATOM     12  H   UNL     1      10.649   5.398  23.941  0.00  0.00    +0.140 HD
ATOM     13  H   UNL     1      12.232   5.398  23.569  0.00  0.00    +0.140 HD
ENDBRANCH   1  11
TORSDOF 2
ENDMDL
MODEL 3
REMARK VINA RESULT:      -4.4      0.709      1.578
REMARK  Name = 
REMARK  2 active torsions:
REMARK  status: ('A' for Active; 'I' for Inactive)
REMARK    1  A    between atoms: N_1  and  N_2
REMARK    2  A    between atoms: C_3  and  C_5
REMARK                            x       y       z     vdW  Elec       q    Type
REMARK                         _______ _______ _______ _____ _____    ______ ____
ROOT
ATOM      1  N   UNL     1       7.150  -5.593  26.231  0.00  0.00    -0.250 N 
ATOM      2  H   UNL     1       6.141  -5.703  26.236  0.00  0.00    +0.169 HD
ATOM      3  C   UNL     1       7.836  -5.164  25.100  0.00  0.00    +0.257 C 
ATOM      4  O   UNL     1       9.050  -4.970  25.090  0.00  0.00    -0.269 OA
ENDROOT
BRANCH   3   5
ATOM      5  C   UNL     1       7.021  -4.882  23.882  0.00  0.00    +0.041 A 
ATOM      6  C   UNL     1       5.963  -3.972  23.872  0.00  0.00    +0.033 A 
ATOM      7  C   UNL     1       5.306  -3.755  22.672  0.00  0.00    +0.111 A 
ATOM      8  N   UNL     1       5.621  -4.381  21.520  0.00  0.00    -0.263 NA
ATOM      9  C   UNL     1       6.625  -5.280  21.568  0.00  0.00    +0.111 A 
ATOM     10  C   UNL     1       7.342  -5.569  22.710  0.00  0.00    +0.033 A 
ENDBRANCH   3   5
BRANCH   1  11
ATOM     11  N   UNL     1       7.869  -5.888  27.404  0.00  0.00    -0.254 NA
ATOM     12  H   UNL     1       8.509  -6.664  27.176  0.00  0.00    +0.140 HD
ATOM     13  H   UNL     1       8.482  -5.102  27.625  0.00  0.00    +0.140 HD
ENDBRANCH   1  11
TORSDOF 2
ENDMDL
MODEL 4
REMARK VINA RESULT:      -4.3      5.131      5.876
REMARK  Name = 
REMARK  2 active torsions:
REMARK  status: ('A' for Active; 'I' for Inactive)
REMARK    1  A    between atoms: N_1  and  N_2
REMARK    2  A    between atoms: C_3  and  C_5
REMARK                            x       y       z     vdW  Elec       q    Type
REMARK                         _______ _______ _______ _____ _____    ______ ____
ROOT
ATOM      1  N   UNL     1       8.232  -2.280  22.613  0.00  0.00    -0.250 N 
ATOM      2  H   UNL     1       7.576  -1.587  22.268  0.00  0.00    +0.169 HD
ATOM      3  C   UNL     1       9.495  -1.928  23.077  0.00  0.00    +0.257 C 
ATOM      4  O   UNL     1      10.282  -2.745  23.551  0.00  0.00    -0.269 OA
ENDROOT
BRANCH   3   5
ATOM      5  C   UNL     1       9.851  -0.480  23.035  0.00  0.00    +0.041 A 
ATOM      6  C   UNL     1       9.679   0.310  21.897  0.00  0.00    +0.033 A 
ATOM      7  C   UNL     1      10.000   1.654  21.986  0.00  0.00    +0.111 A 
ATOM      8  N   UNL     1      10.481   2.239  23.102  0.00  0.00    -0.263 NA
ATOM      9  C   UNL     1      10.669   1.444  24.176  0.00  0.00    +0.111 A 
ATOM     10  C   UNL     1      10.381   0.095  24.191  0.00  0.00    +0.033 A 
ENDBRANCH   3   5
BRANCH   1  11
ATOM     11  N   UNL     1       7.848  -3.634  22.615  0.00  0.00    -0.254 NA
ATOM     12  H   UNL     1       8.659  -4.175  22.279  0.00  0.00    +0.140 HD
ATOM     13  H   UNL     1       7.712  -3.939  23.580  0.00  0.00    +0.140 HD
ENDBRANCH   1  11
TORSDOF 2
ENDMDL
MODEL 5
REMARK VINA RESULT:      -4.3      2.148      2.606
REMARK  Name = 
REMARK  2 active torsions:
REMARK  status: ('A' for Active; 'I' for Inactive)
REMARK    1  A    between atoms: N_1  and  N_2
REMARK    2  A    between atoms: C_3  and  C_5
REMARK                            x       y       z     vdW  Elec       q    Type
REMARK                         _______ _______ _______ _____ _____    ______ ____
ROOT
ATOM      1  N   UNL     1       7.991  -4.707  26.204  0.00  0.00    -0.250 N 
ATOM      2  H   UNL     1       7.267  -3.997  26.253  0.00  0.00    +0.169 HD
ATOM      3  C   UNL     1       8.908  -4.750  25.160  0.00  0.00    +0.257 C 
ATOM      4  O   UNL     1       9.826  -5.566  25.112  0.00  0.00    -0.269 OA
ENDROOT
BRANCH   3   5
ATOM      5  C   UNL     1       8.773  -3.709  24.099  0.00  0.00    +0.041 A 
ATOM      6  C   UNL     1       7.685  -3.651  23.228  0.00  0.00    +0.033 A 
ATOM      7  C   UNL     1       7.641  -2.612  22.313  0.00  0.00    +0.111 A 
ATOM      8  N   UNL     1       8.594  -1.665  22.207  0.00  0.00    -0.263 NA
ATOM      9  C   UNL     1       9.652  -1.766  23.039  0.00  0.00    +0.111 A 
ATOM     10  C   UNL     1       9.790  -2.760  23.985  0.00  0.00    +0.033 A 
ENDBRANCH   3   5
BRANCH   1  11
ATOM     11  N   UNL     1       8.060  -5.674  27.225  0.00  0.00    -0.254 NA
ATOM     12  H   UNL     1       8.860  -6.286  27.003  0.00  0.00    +0.140 HD
ATOM     13  H   UNL     1       8.318  -5.215  28.100  0.00  0.00    +0.140 HD
ENDBRANCH   1  11
TORSDOF 2
ENDMDL
MODEL 6
REMARK VINA RESULT:      -4.3      5.461      6.105
REMARK  Name = 
REMARK  2 active torsions:
REMARK  status: ('A' for Active; 'I' for Inactive)
REMARK    1  A    between atoms: N_1  and  N_2
REMARK    2  A    between atoms: C_3  and  C_5
REMARK                            x       y       z     vdW  Elec       q    Type
REMARK                         _______ _______ _______ _____ _____    ______ ____
ROOT
ATOM      1  N   UNL     1       9.564  -2.208  24.295  0.00  0.00    -0.250 N 
ATOM      2  H   UNL     1       9.073  -1.777  25.071  0.00  0.00    +0.169 HD
ATOM      3  C   UNL     1      10.091  -1.457  23.251  0.00  0.00    +0.257 C 
ATOM      4  O   UNL     1      10.738  -1.955  22.332  0.00  0.00    -0.269 OA
ENDROOT
BRANCH   3   5
ATOM      5  C   UNL     1       9.892   0.020  23.314  0.00  0.00    +0.041 A 
ATOM      6  C   UNL     1       9.666   0.705  24.509  0.00  0.00    +0.033 A 
ATOM      7  C   UNL     1       9.542   2.083  24.454  0.00  0.00    +0.111 A 
ATOM      8  N   UNL     1       9.613   2.798  23.313  0.00  0.00    -0.263 NA
ATOM      9  C   UNL     1       9.797   2.107  22.169  0.00  0.00    +0.111 A 
ATOM     10  C   UNL     1       9.933   0.735  22.115  0.00  0.00    +0.033 A 
ENDBRANCH   3   5
BRANCH   1  11
ATOM     11  N   UNL     1       9.709  -3.608  24.281  0.00  0.00    -0.254 NA
ATOM     12  H   UNL     1       9.962  -3.893  25.239  0.00  0.00    +0.140 HD
ATOM     13  H   UNL     1       8.796  -4.035  24.114  0.00  0.00    +0.140 HD
ENDBRANCH   1  11
TORSDOF 2
ENDMDL
MODEL 7
REMARK VINA RESULT:      -4.3      9.933     10.678
REMARK  Name = 
REMARK  2 active torsions:
REMARK  status: ('A' for Active; 'I' for Inactive)
REMARK    1  A    between atoms: N_1  and  N_2
REMARK    2  A    between atoms: C_3  and  C_5
REMARK                            x       y       z     vdW  Elec       q    Type
REMARK                         _______ _______ _______ _____ _____    ______ ____
ROOT
ATOM      1  N   UNL     1      12.773   5.244  22.246  0.00  0.00    -0.250 N 
ATOM      2  H   UNL     1      12.439   4.602  21.535  0.00  0.00    +0.169 HD
ATOM      3  C   UNL     1      12.104   5.414  23.453  0.00  0.00    +0.257 C 
ATOM      4  O   UNL     1      12.521   6.144  24.350  0.00  0.00    -0.269 OA
ENDROOT
BRANCH   3   5
ATOM      5  C   UNL     1      10.859   4.615  23.654  0.00  0.00    +0.041 A 
ATOM      6  C   UNL     1       9.666   5.174  24.115  0.00  0.00    +0.033 A 
ATOM      7  C   UNL     1       8.560   4.347  24.219  0.00  0.00    +0.111 A 
ATOM      8  N   UNL     1       8.574   3.034  23.914  0.00  0.00    -0.263 NA
ATOM      9  C   UNL     1       9.750   2.514  23.504  0.00  0.00    +0.111 A 
ATOM     10  C   UNL     1      10.907   3.250  23.366  0.00  0.00    +0.033 A 
ENDBRANCH   3   5
BRANCH   1  11
ATOM     11  N   UNL     1      13.944   5.984  21.996  0.00  0.00    -0.254 NA
ATOM     12  H   UNL     1      14.400   6.139  22.907  0.00  0.00    +0.140 HD
ATOM     13  H   UNL     1      14.599   5.402  21.471  0.00  0.00    +0.140 HD
ENDBRANCH   1  11
TORSDOF 2
ENDMDL
MODEL 8
REMARK VINA RESULT:      -4.1      2.486      3.334
REMARK  Name = 
REMARK  2 active torsions:
REMARK  status: ('A' for Active; 'I' for Inactive)
REMARK    1  A    between atoms: N_1  and  N_2
REMARK    2  A    between atoms: C_3  and  C_5
REMARK                            x       y       z     vdW  Elec       q    Type
REMARK                         _______ _______ _______ _____ _____    ______ ____
ROOT
ATOM      1  N   UNL     1       5.677  -6.401  26.533  0.00  0.00    -0.250 N 
ATOM      2  H   UNL     1       5.209  -6.315  25.637  0.00  0.00    +0.169 HD
ATOM      3  C   UNL     1       6.868  -5.736  26.806  0.00  0.00    +0.257 C 
ATOM      4  O   UNL     1       7.420  -5.782  27.903  0.00  0.00    -0.269 OA
ENDROOT
BRANCH   3   5
ATOM      5  C   UNL     1       7.438  -4.895  25.713  0.00  0.00    +0.041 A 
ATOM      6  C   UNL     1       8.532  -4.049  25.900  0.00  0.00    +0.033 A 
ATOM      7  C   UNL     1       9.007  -3.351  24.803  0.00  0.00    +0.111 A 
ATOM      8  N   UNL     1       8.465  -3.430  23.571  0.00  0.00    -0.263 NA
ATOM      9  C   UNL     1       7.388  -4.229  23.427  0.00  0.00    +0.111 A 
ATOM     10  C   UNL     1       6.838  -4.967  24.455  0.00  0.00    +0.033 A 
ENDBRANCH   3   5
BRANCH   1  11
ATOM     11  N   UNL     1       5.102  -7.221  27.521  0.00  0.00    -0.254 NA
ATOM     12  H   UNL     1       4.434  -6.636  28.045  0.00  0.00    +0.140 HD
ATOM     13  H   UNL     1       4.526  -7.933  27.069  0.00  0.00    +0.140 HD
ENDBRANCH   1  11
TORSDOF 2
ENDMDL
MODEL 9
REMARK VINA RESULT:      -4.0      2.143      2.338
REMARK  Name = 
REMARK  2 active torsions:
REMARK  status: ('A' for Active; 'I' for Inactive)
REMARK    1  A    between atoms: N_1  and  N_2
REMARK    2  A    between atoms: C_3  and  C_5
REMARK                            x       y       z     vdW  Elec       q    Type
REMARK                         _______ _______ _______ _____ _____    ______ ____
ROOT
ATOM      1  N   UNL     1       9.105  -5.709  25.321  0.00  0.00    -0.250 N 
ATOM      2  H   UNL     1       8.642  -6.461  25.821  0.00  0.00    +0.169 HD
ATOM      3  C   UNL     1       8.426  -4.906  24.411  0.00  0.00    +0.257 C 
ATOM      4  O   UNL     1       8.954  -3.955  23.838  0.00  0.00    -0.269 OA
ENDROOT
BRANCH   3   5
ATOM      5  C   UNL     1       6.982  -5.207  24.190  0.00  0.00    +0.041 A 
ATOM      6  C   UNL     1       6.407  -5.271  22.920  0.00  0.00    +0.033 A 
ATOM      7  C   UNL     1       5.066  -5.606  22.831  0.00  0.00    +0.111 A 
ATOM      8  N   UNL     1       4.283  -5.859  23.900  0.00  0.00    -0.263 NA
ATOM      9  C   UNL     1       4.858  -5.756  25.116  0.00  0.00    +0.111 A 
ATOM     10  C   UNL     1       6.183  -5.430  25.312  0.00  0.00    +0.033 A 
ENDBRANCH   3   5
BRANCH   1  11
ATOM     11  N   UNL     1      10.474  -5.480  25.558  0.00  0.00    -0.254 NA
ATOM     12  H   UNL     1      10.762  -6.133  26.303  0.00  0.00    +0.140 HD
ATOM     13  H   UNL     1      11.005  -5.771  24.736  0.00  0.00    +0.140 HD
ENDBRANCH   1  11
TORSDOF 2
ENDMDL
