MODEL 1
REMARK VINA RESULT:      -3.4      0.000      0.000
REMARK  Name = 
REMARK  4 active torsions:
REMARK  status: ('A' for Active; 'I' for Inactive)
REMARK    1  A    between atoms: O_1  and  C_2
REMARK    2  A    between atoms: C_2  and  C_3
REMARK    3  A    between atoms: C_3  and  C_4
REMARK    4  A    between atoms: C_4  and  C_5
REMARK                            x       y       z     vdW  Elec       q    Type
REMARK                         _______ _______ _______ _____ _____    ______ ____
ROOT
ATOM      1  C   UNL     1       9.512  -0.098  21.465  0.00  0.00    +0.034 C 
ENDROOT
BRANCH   1   2
ATOM      2  C   UNL     1       9.048   1.332  21.708  0.00  0.00    +0.156 C 
BRANCH   2   3
ATOM      3  O   UNL     1      10.161   2.218  21.576  0.00  0.00    -0.395 OA
ATOM      4  H   UNL     1      10.445   2.407  22.487  0.00  0.00    +0.209 HD
ENDBRANCH   2   3
ENDBRANCH   1   2
BRANCH   1   5
ATOM      5  C   UNL     1      10.157  -0.732  22.691  0.00  0.00    +0.054 C 
BRANCH   5   6
ATOM      6  C   UNL     1       9.555  -2.110  22.959  0.00  0.00    +0.042 C 
ATOM      7  O   UNL     1       8.468  -2.336  22.355  0.00  0.00    -0.550 OA
ATOM      8  O   UNL     1      10.216  -2.844  23.744  0.00  0.00    -0.550 OA
ENDBRANCH   5   6
ENDBRANCH   1   5
TORSDOF 4
ENDMDL
MODEL 2
REMARK VINA RESULT:      -3.3      1.445      1.940
REMARK  Name = 
REMARK  4 active torsions:
REMARK  status: ('A' for Active; 'I' for Inactive)
REMARK    1  A    between atoms: O_1  and  C_2
REMARK    2  A    between atoms: C_2  and  C_3
REMARK    3  A    between atoms: C_3  and  C_4
REMARK    4  A    between atoms: C_4  and  C_5
REMARK                            x       y       z     vdW  Elec       q    Type
REMARK                         _______ _______ _______ _____ _____    ______ ____
ROOT
ATOM      1  C   UNL     1       9.541   1.035  23.528  0.00  0.00    +0.034 C 
ENDROOT
BRANCH   1   2
ATOM      2  C   UNL     1      10.096   2.344  22.981  0.00  0.00    +0.156 C 
BRANCH   2   3
ATOM      3  O   UNL     1      10.183   2.260  21.557  0.00  0.00    -0.395 OA
ATOM      4  H   UNL     1      10.898   1.625  21.383  0.00  0.00    +0.209 HD
ENDBRANCH   2   3
ENDBRANCH   1   2
BRANCH   1   5
ATOM      5  C   UNL     1      10.562  -0.096  23.519  0.00  0.00    +0.054 C 
BRANCH   5   6
ATOM      6  C   UNL     1      10.170  -1.162  22.500  0.00  0.00    +0.042 C 
ATOM      7  O   UNL     1      10.488  -2.342  22.823  0.00  0.00    -0.550 OA
ATOM      8  O   UNL     1       9.580  -0.734  21.471  0.00  0.00    -0.550 OA
ENDBRANCH   5   6
ENDBRANCH   1   5
TORSDOF 4
ENDMDL
MODEL 3
REMARK VINA RESULT:      -3.2      1.791      3.861
REMARK  Name = 
REMARK  4 active torsions:
REMARK  status: ('A' for Active; 'I' for Inactive)
REMARK    1  A    between atoms: O_1  and  C_2
REMARK    2  A    between atoms: C_2  and  C_3
REMARK    3  A    between atoms: C_3  and  C_4
REMARK    4  A    between atoms: C_4  and  C_5
REMARK                            x       y       z     vdW  Elec       q    Type
REMARK                         _______ _______ _______ _____ _____    ______ ____
ROOT
ATOM      1  C   UNL     1       9.661  -0.642  23.751  0.00  0.00    +0.034 C 
ENDROOT
BRANCH   1   2
ATOM      2  C   UNL     1      10.221  -1.825  22.973  0.00  0.00    +0.156 C 
BRANCH   2   3
ATOM      3  O   UNL     1      10.216  -1.516  21.578  0.00  0.00    -0.395 OA
ATOM      4  H   UNL     1       9.507  -2.062  21.199  0.00  0.00    +0.209 HD
ENDBRANCH   2   3
ENDBRANCH   1   2
BRANCH   1   5
ATOM      5  C   UNL     1      10.677   0.475  23.952  0.00  0.00    +0.054 C 
BRANCH   5   6
ATOM      6  C   UNL     1      10.281   1.709  23.145  0.00  0.00    +0.042 C 
ATOM      7  O   UNL     1      10.166   2.768  23.824  0.00  0.00    -0.550 OA
ATOM      8  O   UNL     1      10.121   1.516  21.909  0.00  0.00    -0.550 OA
ENDBRANCH   5   6
ENDBRANCH   1   5
TORSDOF 4
ENDMDL
MODEL 4
REMARK VINA RESULT:      -3.1      2.026      2.219
REMARK  Name = 
REMARK  4 active torsions:
REMARK  status: ('A' for Active; 'I' for Inactive)
REMARK    1  A    between atoms: O_1  and  C_2
REMARK    2  A    between atoms: C_2  and  C_3
REMARK    3  A    between atoms: C_3  and  C_4
REMARK    4  A    between atoms: C_4  and  C_5
REMARK                            x       y       z     vdW  Elec       q    Type
REMARK                         _______ _______ _______ _____ _____    ______ ____
ROOT
ATOM      1  C   UNL     1      10.014  -0.197  24.997  0.00  0.00    +0.034 C 
ENDROOT
BRANCH   1   2
ATOM      2  C   UNL     1      10.757   0.983  24.383  0.00  0.00    +0.156 C 
BRANCH   2   3
ATOM      3  O   UNL     1      10.295   1.187  23.047  0.00  0.00    -0.395 OA
ATOM      4  H   UNL     1      11.094   1.374  22.527  0.00  0.00    +0.209 HD
ENDBRANCH   2   3
ENDBRANCH   1   2
BRANCH   1   5
ATOM      5  C   UNL     1       9.206  -0.989  23.977  0.00  0.00    +0.054 C 
BRANCH   5   6
ATOM      6  C   UNL     1      10.050  -2.117  23.387  0.00  0.00    +0.042 C 
ATOM      7  O   UNL     1      10.648  -1.821  22.313  0.00  0.00    -0.550 OA
ATOM      8  O   UNL     1      10.044  -3.194  24.042  0.00  0.00    -0.550 OA
ENDBRANCH   5   6
ENDBRANCH   1   5
TORSDOF 4
ENDMDL
MODEL 5
REMARK VINA RESULT:      -3.1      2.081      3.460
REMARK  Name = 
REMARK  4 active torsions:
REMARK  status: ('A' for Active; 'I' for Inactive)
REMARK    1  A    between atoms: O_1  and  C_2
REMARK    2  A    between atoms: C_2  and  C_3
REMARK    3  A    between atoms: C_3  and  C_4
REMARK    4  A    between atoms: C_4  and  C_5
REMARK                            x       y       z     vdW  Elec       q    Type
REMARK                         _______ _______ _______ _____ _____    ______ ____
ROOT
ATOM      1  C   UNL     1       9.524   0.533  21.629  0.00  0.00    +0.034 C 
ENDROOT
BRANCH   1   2
ATOM      2  C   UNL     1       9.315  -0.976  21.596  0.00  0.00    +0.156 C 
BRANCH   2   3
ATOM      3  O   UNL     1      10.529  -1.628  21.972  0.00  0.00    -0.395 OA
ATOM      4  H   UNL     1      11.211  -1.251  21.391  0.00  0.00    +0.209 HD
ENDBRANCH   2   3
ENDBRANCH   1   2
BRANCH   1   5
ATOM      5  C   UNL     1       9.206   1.150  22.985  0.00  0.00    +0.054 C 
BRANCH   5   6
ATOM      6  C   UNL     1      10.492   1.442  23.754  0.00  0.00    +0.042 C 
ATOM      7  O   UNL     1      10.881   2.643  23.693  0.00  0.00    -0.550 OA
ATOM      8  O   UNL     1      11.001   0.453  24.350  0.00  0.00    -0.550 OA
ENDBRANCH   5   6
ENDBRANCH   1   5
TORSDOF 4
ENDMDL
MODEL 6
REMARK VINA RESULT:      -3.1      5.401      6.613
REMARK  Name = 
REMARK  4 active torsions:
REMARK  status: ('A' for Active; 'I' for Inactive)
REMARK    1  A    between atoms: O_1  and  C_2
REMARK    2  A    between atoms: C_2  and  C_3
REMARK    3  A    between atoms: C_3  and  C_4
REMARK    4  A    between atoms: C_4  and  C_5
REMARK                            x       y       z     vdW  Elec       q    Type
REMARK                         _______ _______ _______ _____ _____    ______ ____
ROOT
ATOM      1  C   UNL     1       6.380  -5.457  25.783  0.00  0.00    +0.034 C 
ENDROOT
BRANCH   1   2
ATOM      2  C   UNL     1       6.887  -5.203  27.197  0.00  0.00    +0.156 C 
BRANCH   2   3
ATOM      3  O   UNL     1       8.170  -5.811  27.353  0.00  0.00    -0.395 OA
ATOM      4  H   UNL     1       8.782  -5.247  26.850  0.00  0.00    +0.209 HD
ENDBRANCH   2   3
ENDBRANCH   1   2
BRANCH   1   5
ATOM      5  C   UNL     1       6.934  -4.469  24.764  0.00  0.00    +0.054 C 
BRANCH   5   6
ATOM      6  C   UNL     1       7.965  -5.150  23.867  0.00  0.00    +0.042 C 
ATOM      7  O   UNL     1       9.085  -5.357  24.415  0.00  0.00    -0.550 OA
ATOM      8  O   UNL     1       7.571  -5.418  22.699  0.00  0.00    -0.550 OA
ENDBRANCH   5   6
ENDBRANCH   1   5
TORSDOF 4
ENDMDL
MODEL 7
REMARK VINA RESULT:      -3.1      1.869      1.997
REMARK  Name = 
REMARK  4 active torsions:
REMARK  status: ('A' for Active; 'I' for Inactive)
REMARK    1  A    between atoms: O_1  and  C_2
REMARK    2  A    between atoms: C_2  and  C_3
REMARK    3  A    between atoms: C_3  and  C_4
REMARK    4  A    between atoms: C_4  and  C_5
REMARK                            x       y       z     vdW  Elec       q    Type
REMARK                         _______ _______ _______ _____ _____    ______ ____
ROOT
ATOM      1  C   UNL     1      10.068   1.003  22.587  0.00  0.00    +0.034 C 
ENDROOT
BRANCH   1   2
ATOM      2  C   UNL     1       9.225   1.088  23.853  0.00  0.00    +0.156 C 
BRANCH   2   3
ATOM      3  O   UNL     1      10.087   1.118  24.992  0.00  0.00    -0.395 OA
ATOM      4  H   UNL     1      10.371   0.198  25.121  0.00  0.00    +0.209 HD
ENDBRANCH   2   3
ENDBRANCH   1   2
BRANCH   1   5
ATOM      5  C   UNL     1       9.469   0.080  21.533  0.00  0.00    +0.054 C 
BRANCH   5   6
ATOM      6  C   UNL     1       9.527  -1.372  22.000  0.00  0.00    +0.042 C 
ATOM      7  O   UNL     1       8.412  -1.966  22.015  0.00  0.00    -0.550 OA
ATOM      8  O   UNL     1      10.675  -1.794  22.309  0.00  0.00    -0.550 OA
ENDBRANCH   5   6
ENDBRANCH   1   5
TORSDOF 4
ENDMDL
MODEL 8
REMARK VINA RESULT:      -3.0      4.853      5.781
REMARK  Name = 
REMARK  4 active torsions:
REMARK  status: ('A' for Active; 'I' for Inactive)
REMARK    1  A    between atoms: O_1  and  C_2
REMARK    2  A    between atoms: C_2  and  C_3
REMARK    3  A    between atoms: C_3  and  C_4
REMARK    4  A    between atoms: C_4  and  C_5
REMARK                            x       y       z     vdW  Elec       q    Type
REMARK                         _______ _______ _______ _____ _____    ______ ____
ROOT
ATOM      1  C   UNL     1       8.026  -5.190  23.906  0.00  0.00    +0.034 C 
ENDROOT
BRANCH   1   2
ATOM      2  C   UNL     1       9.092  -4.683  24.869  0.00  0.00    +0.156 C 
BRANCH   2   3
ATOM      3  O   UNL     1       9.979  -5.753  25.197  0.00  0.00    -0.395 OA
ATOM      4  H   UNL     1      10.778  -5.592  24.668  0.00  0.00    +0.209 HD
ENDBRANCH   2   3
ENDBRANCH   1   2
BRANCH   1   5
ATOM      5  C   UNL     1       7.527  -4.115  22.949  0.00  0.00    +0.054 C 
BRANCH   5   6
ATOM      6  C   UNL     1       6.698  -4.740  21.830  0.00  0.00    +0.042 C 
ATOM      7  O   UNL     1       7.158  -5.827  21.376  0.00  0.00    -0.550 OA
ATOM      8  O   UNL     1       5.663  -4.098  21.501  0.00  0.00    -0.550 OA
ENDBRANCH   5   6
ENDBRANCH   1   5
TORSDOF 4
ENDMDL
MODEL 9
REMARK VINA RESULT:      -3.0      2.647      5.014
REMARK  Name = 
REMARK  4 active torsions:
REMARK  status: ('A' for Active; 'I' for Inactive)
REMARK    1  A    between atoms: O_1  and  C_2
REMARK    2  A    between atoms: C_2  and  C_3
REMARK    3  A    between atoms: C_3  and  C_4
REMARK    4  A    between atoms: C_4  and  C_5
REMARK                            x       y       z     vdW  Elec       q    Type
REMARK                         _______ _______ _______ _____ _____    ______ ____
ROOT
ATOM      1  C   UNL     1       8.707  -4.254  24.383  0.00  0.00    +0.034 C 
ENDROOT
BRANCH   1   2
ATOM      2  C   UNL     1       9.070  -5.365  25.360  0.00  0.00    +0.156 C 
BRANCH   2   3
ATOM      3  O   UNL     1      10.489  -5.529  25.381  0.00  0.00    -0.395 OA
ATOM      4  H   UNL     1      10.835  -4.710  25.774  0.00  0.00    +0.209 HD
ENDBRANCH   2   3
ENDBRANCH   1   2
BRANCH   1   5
ATOM      5  C   UNL     1       9.034  -2.863  24.912  0.00  0.00    +0.054 C 
BRANCH   5   6
ATOM      6  C   UNL     1       9.638  -2.001  23.806  0.00  0.00    +0.042 C 
ATOM      7  O   UNL     1       9.176  -0.825  23.744  0.00  0.00    -0.550 OA
ATOM      8  O   UNL     1      10.516  -2.566  23.099  0.00  0.00    -0.550 OA
ENDBRANCH   5   6
ENDBRANCH   1   5
TORSDOF 4
ENDMDL
