MODEL 1
REMARK VINA RESULT:      -4.5      0.000      0.000
REMARK  Name = 
REMARK  6 active torsions:
REMARK  status: ('A' for Active; 'I' for Inactive)
REMARK    1  A    between atoms: C_1  and  O_2
REMARK    2  A    between atoms: O_2  and  C_3
REMARK    3  A    between atoms: C_6  and  C_8
REMARK    4  A    between atoms: C_9  and  O_11
REMARK    5  A    between atoms: C_12  and  O_14
REMARK    6  A    between atoms: C_15  and  O_17
REMARK                            x       y       z     vdW  Elec       q    Type
REMARK                         _______ _______ _______ _____ _____    ______ ____
ROOT
ATOM      1  C   UNL     1       6.463  -4.725  25.827  0.00  0.00    +0.281 C 
ATOM      2  C   UNL     1       7.513  -4.660  26.960  0.00  0.00    +0.201 C 
ATOM      3  C   UNL     1       8.782  -3.961  26.439  0.00  0.00    +0.179 C 
ATOM      4  C   UNL     1       9.290  -4.669  25.170  0.00  0.00    +0.174 C 
ATOM      5  C   UNL     1       8.185  -4.868  24.113  0.00  0.00    +0.149 C 
ATOM      6  C   UNL     1       7.943  -3.648  23.231  0.00  0.00    +0.041 C 
ATOM      7  O   UNL     1       6.970  -5.390  24.665  0.00  0.00    -0.343 OA
ENDROOT
BRANCH   1   9
ATOM      8  C   UNL     1       4.691  -3.328  25.079  0.00  0.00    +0.197 C 
ATOM      9  O   UNL     1       6.040  -3.391  25.525  0.00  0.00    -0.352 OA
ENDBRANCH   1   9
BRANCH   2  10
ATOM     10  O   UNL     1       7.812  -5.966  27.474  0.00  0.00    -0.384 OA
ATOM     11  H   UNL     1       8.790  -6.027  27.548  0.00  0.00    +0.210 HD
ENDBRANCH   2  10
BRANCH   3  12
ATOM     12  O   UNL     1       8.578  -2.564  26.202  0.00  0.00    -0.386 OA
ATOM     13  H   UNL     1       7.791  -2.286  26.722  0.00  0.00    +0.210 HD
ENDBRANCH   3  12
BRANCH   4  14
ATOM     14  O   UNL     1       9.778  -5.968  25.569  0.00  0.00    -0.387 OA
ATOM     15  H   UNL     1       9.845  -5.966  26.542  0.00  0.00    +0.210 HD
ENDBRANCH   4  14
TORSDOF 4
ENDMDL
MODEL 2
REMARK VINA RESULT:      -4.4      5.169      6.763
REMARK  Name = 
REMARK  6 active torsions:
REMARK  status: ('A' for Active; 'I' for Inactive)
REMARK    1  A    between atoms: C_1  and  O_2
REMARK    2  A    between atoms: O_2  and  C_3
REMARK    3  A    between atoms: C_6  and  C_8
REMARK    4  A    between atoms: C_9  and  O_11
REMARK    5  A    between atoms: C_12  and  O_14
REMARK    6  A    between atoms: C_15  and  O_17
REMARK                            x       y       z     vdW  Elec       q    Type
REMARK                         _______ _______ _______ _____ _____    ______ ____
ROOT
ATOM      1  C   UNL     1       9.836   1.954  23.833  0.00  0.00    +0.281 C 
ATOM      2  C   UNL     1       9.077   1.991  22.487  0.00  0.00    +0.201 C 
ATOM      3  C   UNL     1       8.216   0.723  22.351  0.00  0.00    +0.179 C 
ATOM      4  C   UNL     1       9.092  -0.530  22.528  0.00  0.00    +0.174 C 
ATOM      5  C   UNL     1       9.964  -0.477  23.799  0.00  0.00    +0.149 C 
ATOM      6  C   UNL     1       9.238  -0.912  25.067  0.00  0.00    +0.041 C 
ATOM      7  O   UNL     1      10.639   0.777  23.961  0.00  0.00    -0.343 OA
ENDROOT
BRANCH   1   9
ATOM      8  C   UNL     1       8.394   3.378  25.077  0.00  0.00    +0.197 C 
ATOM      9  O   UNL     1       8.879   2.053  24.894  0.00  0.00    -0.352 OA
ENDBRANCH   1   9
BRANCH   2  10
ATOM     10  O   UNL     1       9.979   2.129  21.379  0.00  0.00    -0.384 OA
ATOM     11  H   UNL     1      10.708   2.717  21.676  0.00  0.00    +0.210 HD
ENDBRANCH   2  10
BRANCH   3  12
ATOM     12  O   UNL     1       7.112   0.711  23.263  0.00  0.00    -0.386 OA
ATOM     13  H   UNL     1       6.510   1.445  23.009  0.00  0.00    +0.210 HD
ENDBRANCH   3  12
BRANCH   4  14
ATOM     14  O   UNL     1       9.965  -0.609  21.380  0.00  0.00    -0.387 OA
ATOM     15  H   UNL     1       9.743   0.138  20.794  0.00  0.00    +0.210 HD
ENDBRANCH   4  14
TORSDOF 4
ENDMDL
MODEL 3
REMARK VINA RESULT:      -4.4      1.363      3.019
REMARK  Name = 
REMARK  6 active torsions:
REMARK  status: ('A' for Active; 'I' for Inactive)
REMARK    1  A    between atoms: C_1  and  O_2
REMARK    2  A    between atoms: O_2  and  C_3
REMARK    3  A    between atoms: C_6  and  C_8
REMARK    4  A    between atoms: C_9  and  O_11
REMARK    5  A    between atoms: C_12  and  O_14
REMARK    6  A    between atoms: C_15  and  O_17
REMARK                            x       y       z     vdW  Elec       q    Type
REMARK                         _______ _______ _______ _____ _____    ______ ____
ROOT
ATOM      1  C   UNL     1       8.124  -2.640  25.370  0.00  0.00    +0.281 C 
ATOM      2  C   UNL     1       8.632  -3.253  24.045  0.00  0.00    +0.201 C 
ATOM      3  C   UNL     1       8.357  -4.768  24.045  0.00  0.00    +0.179 C 
ATOM      4  C   UNL     1       8.974  -5.414  25.299  0.00  0.00    +0.174 C 
ATOM      5  C   UNL     1       8.582  -4.689  26.602  0.00  0.00    +0.149 C 
ATOM      6  C   UNL     1       7.225  -5.105  27.160  0.00  0.00    +0.041 C 
ATOM      7  O   UNL     1       8.718  -3.265  26.512  0.00  0.00    -0.343 OA
ENDROOT
BRANCH   1   9
ATOM      8  C   UNL     1       6.048  -1.639  24.783  0.00  0.00    +0.197 C 
ATOM      9  O   UNL     1       6.696  -2.746  25.399  0.00  0.00    -0.352 OA
ENDBRANCH   1   9
BRANCH   2  10
ATOM     10  O   UNL     1      10.025  -2.978  23.840  0.00  0.00    -0.384 OA
ATOM     11  H   UNL     1      10.078  -2.233  23.201  0.00  0.00    +0.210 HD
ENDBRANCH   2  10
BRANCH   3  12
ATOM     12  O   UNL     1       6.961  -5.070  23.945  0.00  0.00    -0.386 OA
ATOM     13  H   UNL     1       6.873  -5.886  23.404  0.00  0.00    +0.210 HD
ENDBRANCH   3  12
BRANCH   4  14
ATOM     14  O   UNL     1      10.409  -5.348  25.155  0.00  0.00    -0.387 OA
ATOM     15  H   UNL     1      10.617  -5.560  24.226  0.00  0.00    +0.210 HD
ENDBRANCH   4  14
TORSDOF 4
ENDMDL
MODEL 4
REMARK VINA RESULT:      -4.4      3.608      5.044
REMARK  Name = 
REMARK  6 active torsions:
REMARK  status: ('A' for Active; 'I' for Inactive)
REMARK    1  A    between atoms: C_1  and  O_2
REMARK    2  A    between atoms: O_2  and  C_3
REMARK    3  A    between atoms: C_6  and  C_8
REMARK    4  A    between atoms: C_9  and  O_11
REMARK    5  A    between atoms: C_12  and  O_14
REMARK    6  A    between atoms: C_15  and  O_17
REMARK                            x       y       z     vdW  Elec       q    Type
REMARK                         _______ _______ _______ _____ _____    ______ ____
ROOT
ATOM      1  C   UNL     1       9.506  -0.932  24.437  0.00  0.00    +0.281 C 
ATOM      2  C   UNL     1      10.137  -1.956  23.467  0.00  0.00    +0.201 C 
ATOM      3  C   UNL     1       9.435  -1.865  22.100  0.00  0.00    +0.179 C 
ATOM      4  C   UNL     1       7.916  -2.041  22.277  0.00  0.00    +0.174 C 
ATOM      5  C   UNL     1       7.328  -1.120  23.365  0.00  0.00    +0.149 C 
ATOM      6  C   UNL     1       7.021   0.293  22.882  0.00  0.00    +0.041 C 
ATOM      7  O   UNL     1       8.095  -1.126  24.576  0.00  0.00    -0.343 OA
ENDROOT
BRANCH   1   9
ATOM      8  C   UNL     1      11.060   0.868  24.438  0.00  0.00    +0.197 C 
ATOM      9  O   UNL     1       9.808   0.385  23.964  0.00  0.00    -0.352 OA
ENDBRANCH   1   9
BRANCH   2  10
ATOM     10  O   UNL     1      10.075  -3.288  23.997  0.00  0.00    -0.384 OA
ATOM     11  H   UNL     1       9.536  -3.244  24.817  0.00  0.00    +0.210 HD
ENDBRANCH   2  10
BRANCH   3  12
ATOM     12  O   UNL     1       9.734  -0.646  21.411  0.00  0.00    -0.386 OA
ATOM     13  H   UNL     1       9.504   0.098  22.011  0.00  0.00    +0.210 HD
ENDBRANCH   3  12
BRANCH   4  14
ATOM     14  O   UNL     1       7.685  -3.412  22.667  0.00  0.00    -0.387 OA
ATOM     15  H   UNL     1       7.200  -3.843  21.938  0.00  0.00    +0.210 HD
ENDBRANCH   4  14
TORSDOF 4
ENDMDL
MODEL 5
REMARK VINA RESULT:      -4.4      4.003      5.576
REMARK  Name = 
REMARK  6 active torsions:
REMARK  status: ('A' for Active; 'I' for Inactive)
REMARK    1  A    between atoms: C_1  and  O_2
REMARK    2  A    between atoms: O_2  and  C_3
REMARK    3  A    between atoms: C_6  and  C_8
REMARK    4  A    between atoms: C_9  and  O_11
REMARK    5  A    between atoms: C_12  and  O_14
REMARK    6  A    between atoms: C_15  and  O_17
REMARK                            x       y       z     vdW  Elec       q    Type
REMARK                         _______ _______ _______ _____ _____    ______ ____
ROOT
ATOM      1  C   UNL     1       9.793   0.385  22.715  0.00  0.00    +0.281 C 
ATOM      2  C   UNL     1       9.308  -0.866  21.947  0.00  0.00    +0.201 C 
ATOM      3  C   UNL     1       8.363  -1.683  22.846  0.00  0.00    +0.179 C 
ATOM      4  C   UNL     1       9.058  -2.012  24.179  0.00  0.00    +0.174 C 
ATOM      5  C   UNL     1       9.676  -0.771  24.855  0.00  0.00    +0.149 C 
ATOM      6  C   UNL     1       8.684   0.048  25.674  0.00  0.00    +0.041 C 
ATOM      7  O   UNL     1      10.433   0.040  23.948  0.00  0.00    -0.343 OA
ENDROOT
BRANCH   1   9
ATOM      8  C   UNL     1       8.341   2.023  21.787  0.00  0.00    +0.197 C 
ATOM      9  O   UNL     1       8.669   1.245  22.932  0.00  0.00    -0.352 OA
ENDBRANCH   1   9
BRANCH   2  10
ATOM     10  O   UNL     1      10.412  -1.662  21.492  0.00  0.00    -0.384 OA
ATOM     11  H   UNL     1      11.226  -1.132  21.636  0.00  0.00    +0.210 HD
ENDBRANCH   2  10
BRANCH   3  12
ATOM     12  O   UNL     1       7.112  -1.022  23.068  0.00  0.00    -0.386 OA
ATOM     13  H   UNL     1       7.266  -0.312  23.730  0.00  0.00    +0.210 HD
ENDBRANCH   3  12
BRANCH   4  14
ATOM     14  O   UNL     1      10.119  -2.949  23.891  0.00  0.00    -0.387 OA
ATOM     15  H   UNL     1      10.869  -2.725  24.472  0.00  0.00    +0.210 HD
ENDBRANCH   4  14
TORSDOF 4
ENDMDL
MODEL 6
REMARK VINA RESULT:      -4.4      4.690      6.398
REMARK  Name = 
REMARK  6 active torsions:
REMARK  status: ('A' for Active; 'I' for Inactive)
REMARK    1  A    between atoms: C_1  and  O_2
REMARK    2  A    between atoms: O_2  and  C_3
REMARK    3  A    between atoms: C_6  and  C_8
REMARK    4  A    between atoms: C_9  and  O_11
REMARK    5  A    between atoms: C_12  and  O_14
REMARK    6  A    between atoms: C_15  and  O_17
REMARK                            x       y       z     vdW  Elec       q    Type
REMARK                         _______ _______ _______ _____ _____    ______ ____
ROOT
ATOM      1  C   UNL     1       9.889   0.299  24.453  0.00  0.00    +0.281 C 
ATOM      2  C   UNL     1       9.092   1.603  24.223  0.00  0.00    +0.201 C 
ATOM      3  C   UNL     1       8.210   1.448  22.971  0.00  0.00    +0.179 C 
ATOM      4  C   UNL     1       9.075   1.036  21.766  0.00  0.00    +0.174 C 
ATOM      5  C   UNL     1       9.984  -0.173  22.067  0.00  0.00    +0.149 C 
ATOM      6  C   UNL     1       9.289  -1.523  21.920  0.00  0.00    +0.041 C 
ATOM      7  O   UNL     1      10.680  -0.053  23.314  0.00  0.00    -0.343 OA
ENDROOT
BRANCH   1   9
ATOM      8  C   UNL     1       8.789  -0.891  26.194  0.00  0.00    +0.197 C 
ATOM      9  O   UNL     1       8.965  -0.742  24.790  0.00  0.00    -0.352 OA
ENDBRANCH   1   9
BRANCH   2  10
ATOM     10  O   UNL     1       9.963   2.737  24.109  0.00  0.00    -0.384 OA
ATOM     11  H   UNL     1       9.390   3.529  24.016  0.00  0.00    +0.210 HD
ENDBRANCH   2  10
BRANCH   3  12
ATOM     12  O   UNL     1       7.133   0.525  23.171  0.00  0.00    -0.386 OA
ATOM     13  H   UNL     1       6.501   0.642  22.427  0.00  0.00    +0.210 HD
ENDBRANCH   3  12
BRANCH   4  14
ATOM     14  O   UNL     1       9.913   2.163  21.432  0.00  0.00    -0.387 OA
ATOM     15  H   UNL     1       9.463   2.659  20.723  0.00  0.00    +0.210 HD
ENDBRANCH   4  14
TORSDOF 4
ENDMDL
MODEL 7
REMARK VINA RESULT:      -4.3      1.498      2.940
REMARK  Name = 
REMARK  6 active torsions:
REMARK  status: ('A' for Active; 'I' for Inactive)
REMARK    1  A    between atoms: C_1  and  O_2
REMARK    2  A    between atoms: O_2  and  C_3
REMARK    3  A    between atoms: C_6  and  C_8
REMARK    4  A    between atoms: C_9  and  O_11
REMARK    5  A    between atoms: C_12  and  O_14
REMARK    6  A    between atoms: C_15  and  O_17
REMARK                            x       y       z     vdW  Elec       q    Type
REMARK                         _______ _______ _______ _____ _____    ______ ____
ROOT
ATOM      1  C   UNL     1       8.504  -3.599  23.905  0.00  0.00    +0.281 C 
ATOM      2  C   UNL     1       8.360  -5.083  24.315  0.00  0.00    +0.201 C 
ATOM      3  C   UNL     1       7.511  -5.179  25.595  0.00  0.00    +0.179 C 
ATOM      4  C   UNL     1       8.118  -4.292  26.697  0.00  0.00    +0.174 C 
ATOM      5  C   UNL     1       8.402  -2.854  26.221  0.00  0.00    +0.149 C 
ATOM      6  C   UNL     1       7.188  -1.933  26.269  0.00  0.00    +0.041 C 
ATOM      7  O   UNL     1       9.071  -2.807  24.954  0.00  0.00    -0.343 OA
ENDROOT
BRANCH   1   9
ATOM      8  C   UNL     1       6.887  -3.425  22.171  0.00  0.00    +0.197 C 
ATOM      9  O   UNL     1       7.214  -3.110  23.519  0.00  0.00    -0.352 OA
ENDBRANCH   1   9
BRANCH   2  10
ATOM     10  O   UNL     1       9.642  -5.704  24.493  0.00  0.00    -0.384 OA
ATOM     11  H   UNL     1       9.633  -6.128  25.379  0.00  0.00    +0.210 HD
ENDBRANCH   2  10
BRANCH   3  12
ATOM     12  O   UNL     1       6.137  -4.846  25.366  0.00  0.00    -0.386 OA
ATOM     13  H   UNL     1       5.703  -5.635  24.971  0.00  0.00    +0.210 HD
ENDBRANCH   3  12
BRANCH   4  14
ATOM     14  O   UNL     1       9.368  -4.896  27.095  0.00  0.00    -0.387 OA
ATOM     15  H   UNL     1       9.968  -4.852  26.327  0.00  0.00    +0.210 HD
ENDBRANCH   4  14
TORSDOF 4
ENDMDL
MODEL 8
REMARK VINA RESULT:      -4.3      3.387      5.012
REMARK  Name = 
REMARK  6 active torsions:
REMARK  status: ('A' for Active; 'I' for Inactive)
REMARK    1  A    between atoms: C_1  and  O_2
REMARK    2  A    between atoms: O_2  and  C_3
REMARK    3  A    between atoms: C_6  and  C_8
REMARK    4  A    between atoms: C_9  and  O_11
REMARK    5  A    between atoms: C_12  and  O_14
REMARK    6  A    between atoms: C_15  and  O_17
REMARK                            x       y       z     vdW  Elec       q    Type
REMARK                         _______ _______ _______ _____ _____    ______ ____
ROOT
ATOM      1  C   UNL     1       7.825  -1.622  22.591  0.00  0.00    +0.281 C 
ATOM      2  C   UNL     1       9.244  -1.745  21.992  0.00  0.00    +0.201 C 
ATOM      3  C   UNL     1      10.275  -1.820  23.132  0.00  0.00    +0.179 C 
ATOM      4  C   UNL     1      10.108  -0.613  24.073  0.00  0.00    +0.174 C 
ATOM      5  C   UNL     1       8.651  -0.411  24.535  0.00  0.00    +0.149 C 
ATOM      6  C   UNL     1       8.249  -1.281  25.721  0.00  0.00    +0.041 C 
ATOM      7  O   UNL     1       7.707  -0.490  23.458  0.00  0.00    -0.343 OA
ENDROOT
BRANCH   1   9
ATOM      8  C   UNL     1       7.098  -3.877  22.396  0.00  0.00    +0.197 C 
ATOM      9  O   UNL     1       7.515  -2.841  23.276  0.00  0.00    -0.352 OA
ENDBRANCH   1   9
BRANCH   2  10
ATOM     10  O   UNL     1       9.533  -0.660  21.099  0.00  0.00    -0.384 OA
ATOM     11  H   UNL     1       8.894  -0.723  20.356  0.00  0.00    +0.210 HD
ENDBRANCH   2  10
BRANCH   3  12
ATOM     12  O   UNL     1      10.199  -3.052  23.858  0.00  0.00    -0.386 OA
ATOM     13  H   UNL     1      11.119  -3.341  24.049  0.00  0.00    +0.210 HD
ENDBRANCH   3  12
BRANCH   4  14
ATOM     14  O   UNL     1      10.521   0.562  23.342  0.00  0.00    -0.387 OA
ATOM     15  H   UNL     1      11.149   0.270  22.655  0.00  0.00    +0.210 HD
ENDBRANCH   4  14
TORSDOF 4
ENDMDL
MODEL 9
REMARK VINA RESULT:      -4.3      5.392      7.158
REMARK  Name = 
REMARK  6 active torsions:
REMARK  status: ('A' for Active; 'I' for Inactive)
REMARK    1  A    between atoms: C_1  and  O_2
REMARK    2  A    between atoms: O_2  and  C_3
REMARK    3  A    between atoms: C_6  and  C_8
REMARK    4  A    between atoms: C_9  and  O_11
REMARK    5  A    between atoms: C_12  and  O_14
REMARK    6  A    between atoms: C_15  and  O_17
REMARK                            x       y       z     vdW  Elec       q    Type
REMARK                         _______ _______ _______ _____ _____    ______ ____
ROOT
ATOM      1  C   UNL     1       8.924   0.368  22.317  0.00  0.00    +0.281 C 
ATOM      2  C   UNL     1      10.084   1.351  22.597  0.00  0.00    +0.201 C 
ATOM      3  C   UNL     1       9.797   2.122  23.898  0.00  0.00    +0.179 C 
ATOM      4  C   UNL     1       8.420   2.805  23.812  0.00  0.00    +0.174 C 
ATOM      5  C   UNL     1       7.299   1.840  23.375  0.00  0.00    +0.149 C 
ATOM      6  C   UNL     1       6.718   1.007  24.513  0.00  0.00    +0.041 C 
ATOM      7  O   UNL     1       7.661   1.038  22.244  0.00  0.00    -0.343 OA
ENDROOT
BRANCH   1   9
ATOM      8  C   UNL     1       9.869  -1.671  23.093  0.00  0.00    +0.197 C 
ATOM      9  O   UNL     1       8.926  -0.635  23.338  0.00  0.00    -0.352 OA
ENDBRANCH   1   9
BRANCH   2  10
ATOM     10  O   UNL     1      10.290   2.247  21.495  0.00  0.00    -0.384 OA
ATOM     11  H   UNL     1       9.558   2.090  20.859  0.00  0.00    +0.210 HD
ENDBRANCH   2  10
BRANCH   3  12
ATOM     12  O   UNL     1       9.886   1.289  25.059  0.00  0.00    -0.386 OA
ATOM     13  H   UNL     1       9.280   0.527  24.923  0.00  0.00    +0.210 HD
ENDBRANCH   3  12
BRANCH   4  14
ATOM     14  O   UNL     1       8.523   3.858  22.829  0.00  0.00    -0.387 OA
ATOM     15  H   UNL     1       9.382   4.298  22.965  0.00  0.00    +0.210 HD
ENDBRANCH   4  14
TORSDOF 4
ENDMDL
