MODEL 1
REMARK VINA RESULT:      -0.9      0.000      0.000
REMARK  Name = 
REMARK  41 active torsions:
REMARK  status: ('A' for Active; 'I' for Inactive)
REMARK    1  A    between atoms: C_1  and  C_2
REMARK    2  A    between atoms: C_2  and  O_4
REMARK    3  A    between atoms: C_2  and  C_5
REMARK    4  A    between atoms: C_10  and  C_103
REMARK    5  A    between atoms: C_15  and  C_17
REMARK    6  A    between atoms: C_17  and  C_18
REMARK    7  A    between atoms: C_18  and  C_19
REMARK    8  A    between atoms: C_19  and  N_20
REMARK    9  A    between atoms: N_20  and  O_21
REMARK   10  A    between atoms: C_27  and  N_36
REMARK   11  A    between atoms: C_37  and  C_39
REMARK   12  A    between atoms: C_39  and  C_41
REMARK   13  A    between atoms: C_39  and  N_48
REMARK   14  A    between atoms: C_41  and  C_42
REMARK   15  A    between atoms: C_42  and  C_43
REMARK   16  A    between atoms: C_43  and  N_44
REMARK   17  A    between atoms: N_44  and  O_45
REMARK   18  A    between atoms: C_49  and  C_51
REMARK   19  A    between atoms: C_51  and  C_53
REMARK   20  A    between atoms: C_51  and  N_55
REMARK   21  A    between atoms: C_53  and  O_54
REMARK   22  A    between atoms: C_56  and  C_58
REMARK   23  A    between atoms: C_58  and  C_60
REMARK   24  A    between atoms: C_58  and  N_67
REMARK   25  A    between atoms: C_60  and  C_61
REMARK   26  A    between atoms: C_61  and  C_62
REMARK   27  A    between atoms: C_62  and  N_63
REMARK   28  A    between atoms: C_68  and  C_70
REMARK   29  A    between atoms: C_70  and  C_72
REMARK   30  A    between atoms: C_70  and  N_74
REMARK   31  A    between atoms: C_72  and  O_73
REMARK   32  A    between atoms: C_75  and  C_77
REMARK   33  A    between atoms: C_87  and  O_88
REMARK   34  A    between atoms: C_89  and  O_90
REMARK   35  A    between atoms: C_94  and  N_95
REMARK   36  A    between atoms: C_96  and  C_98
REMARK   37  A    between atoms: C_98  and  C_99
REMARK   38  A    between atoms: C_99  and  C_100
REMARK   39  A    between atoms: C_100  and  O_101
REMARK   40  A    between atoms: C_103  and  C_105
REMARK   41  A    between atoms: C_103  and  O_106
REMARK                            x       y       z     vdW  Elec       q    Type
REMARK                         _______ _______ _______ _____ _____    ______ ____
ROOT
ATOM      1  C   UNK A   1       5.680   4.770  22.100  0.00  0.00    +0.184 C 
ENDROOT
BRANCH   1   4
ATOM      2  N   UNK A   1       6.769   4.858  24.323  0.00  0.00    -0.302 N 
ATOM      3  H   UNK A   1       6.015   5.518  24.496  0.00  0.00    +0.150 HD
ATOM      4  C   UNK A   1       6.608   4.133  23.154  0.00  0.00    +0.236 C 
ATOM      5  O   UNK A   1       7.106   3.040  22.939  0.00  0.00    -0.274 OA
BRANCH   2   6
ATOM      6  C   UNK A   1       7.535   4.442  25.520  0.00  0.00    +0.159 C 
BRANCH   6   9
ATOM      7  N   UNK A   1       8.368   2.243  25.727  0.00  0.00    -0.302 N 
ATOM      8  H   UNK A   1       9.233   2.695  25.541  0.00  0.00    +0.150 HD
ATOM      9  C   UNK A   1       7.292   3.032  26.011  0.00  0.00    +0.234 C 
ATOM     10  O   UNK A   1       6.249   2.643  26.534  0.00  0.00    -0.274 OA
BRANCH   7  20
ATOM     11  C   UNK A   1       7.070  -5.715  28.065  0.00  0.00    +0.187 C 
ATOM     12  C   UNK A   1       6.510  -4.317  28.337  0.00  0.00    +0.236 C 
ATOM     13  O   UNK A   1       5.687  -4.516  29.260  0.00  0.00    -0.274 OA
ATOM     14  N   UNK A   1       6.867  -2.836  27.711  0.00  0.00    -0.314 N 
ATOM     15  H   UNK A   1       7.536  -2.882  26.944  0.00  0.00    +0.149 HD
ATOM     16  C   UNK A   1       6.496  -1.084  28.312  0.00  0.00    +0.104 C 
ATOM     17  C   UNK A   1       7.330  -0.011  29.059  0.00  0.00    +0.019 C 
ATOM     18  C   UNK A   1       7.574   1.008  28.007  0.00  0.00    +0.004 C 
ATOM     19  C   UNK A   1       8.433   0.304  26.973  0.00  0.00    +0.032 C 
ATOM     20  C   UNK A   1       8.328   0.835  25.562  0.00  0.00    +0.159 C 
ATOM     21  C   UNK A   1       9.373  -0.075  24.859  0.00  0.00    +0.234 C 
ATOM     22  O   UNK A   1      10.610  -0.103  24.976  0.00  0.00    -0.274 OA
ATOM     23  N   UNK A   1       8.828  -1.133  24.198  0.00  0.00    -0.302 N 
ATOM     24  H   UNK A   1       7.918  -0.795  23.938  0.00  0.00    +0.150 HD
ATOM     25  C   UNK A   1       9.012  -2.587  24.197  0.00  0.00    +0.159 C 
ATOM     26  C   UNK A   1       8.033  -3.507  23.303  0.00  0.00    +0.234 C 
ATOM     27  O   UNK A   1       7.461  -3.050  22.307  0.00  0.00    -0.274 OA
ATOM     28  N   UNK A   1       7.988  -4.878  23.580  0.00  0.00    -0.300 N 
ATOM     29  H   UNK A   1       8.854  -5.156  24.031  0.00  0.00    +0.150 HD
ATOM     30  C   UNK A   1       6.874  -5.535  24.382  0.00  0.00    +0.187 C 
ATOM     31  C   UNK A   1       7.461  -5.437  25.775  0.00  0.00    +0.237 C 
ATOM     32  O   UNK A   1       8.536  -4.889  26.033  0.00  0.00    -0.274 OA
ATOM     33  N   UNK A   1       6.740  -6.046  26.732  0.00  0.00    -0.300 N 
ATOM     34  H   UNK A   1       5.790  -6.331  26.560  0.00  0.00    +0.150 HD
BRANCH  30  35
ATOM     35  C   UNK A   1       5.471  -4.918  24.260  0.00  0.00    +0.141 C 
ATOM     36  C   UNK A   1       4.618  -4.763  22.988  0.00  0.00    +0.040 C 
BRANCH  35  37
ATOM     37  O   UNK A   1       4.719  -5.845  24.967  0.00  0.00    -0.390 OA
ATOM     38  H   UNK A   1       3.813  -5.545  24.801  0.00  0.00    +0.210 HD
ENDBRANCH  35  37
ENDBRANCH  30  35
BRANCH  11  40
ATOM     39  C   UNK A   1       5.183  -7.687  28.449  0.00  0.00    +0.040 C 
ATOM     40  C   UNK A   1       6.328  -6.805  29.050  0.00  0.00    +0.141 C 
BRANCH  40  41
ATOM     41  O   UNK A   1       7.302  -7.725  29.568  0.00  0.00    -0.390 OA
ATOM     42  H   UNK A   1       6.893  -8.148  30.346  0.00  0.00    +0.210 HD
ENDBRANCH  40  41
ENDBRANCH  11  40
BRANCH  25  43
ATOM     43  C   UNK A   1      10.423  -2.870  23.802  0.00  0.00    +0.033 C 
BRANCH  43  44
ATOM     44  C   UNK A   1      10.813  -1.959  22.651  0.00  0.00    +0.024 C 
BRANCH  44  45
ATOM     45  C   UNK A   1       9.621  -1.719  21.777  0.00  0.00    +0.139 C 
BRANCH  45  46
ATOM     46  N   UNK A   1       9.445  -0.324  21.414  0.00  0.00    -0.186 N 
ATOM     47  C   UNK A   1       8.241   0.318  21.522  0.00  0.00    +0.352 C 
ATOM     48  O   UNK A   1       7.151  -0.221  21.671  0.00  0.00    -0.277 OA
BRANCH  46  49
ATOM     49  O   UNK A   1      10.590   0.461  21.661  0.00  0.00    -0.293 OA
ATOM     50  H   UNK A   1      10.414   1.253  21.120  0.00  0.00    +0.242 HD
ENDBRANCH  46  49
ENDBRANCH  45  46
ENDBRANCH  44  45
ENDBRANCH  43  44
ENDBRANCH  25  43
ENDBRANCH   7  20
ENDBRANCH   6   9
BRANCH   6  51
ATOM     51  C   UNK A   1       9.052   4.623  25.231  0.00  0.00    +0.033 C 
BRANCH  51  52
ATOM     52  C   UNK A   1       9.379   5.888  24.471  0.00  0.00    +0.024 C 
BRANCH  52  53
ATOM     53  C   UNK A   1      10.039   5.583  23.142  0.00  0.00    +0.139 C 
BRANCH  53  54
ATOM     54  N   UNK A   1      11.044   4.558  23.306  0.00  0.00    -0.186 N 
ATOM     55  C   UNK A   1      12.372   4.907  23.157  0.00  0.00    +0.352 C 
ATOM     56  O   UNK A   1      12.824   6.044  23.192  0.00  0.00    -0.277 OA
BRANCH  54  57
ATOM     57  O   UNK A   1      10.723   3.399  22.550  0.00  0.00    -0.293 OA
ATOM     58  H   UNK A   1       9.867   3.654  22.158  0.00  0.00    +0.242 HD
ENDBRANCH  54  57
ENDBRANCH  53  54
ENDBRANCH  52  53
ENDBRANCH  51  52
ENDBRANCH   6  51
ENDBRANCH   2   6
ENDBRANCH   1   4
BRANCH   1  59
ATOM     59  N   UNK A   1       4.768   5.744  22.768  0.00  0.00    -0.301 N 
ATOM     60  H   UNK A   1       4.766   5.675  23.778  0.00  0.00    +0.150 HD
ATOM     61  C   UNK A   1       3.574   6.121  22.183  0.00  0.00    +0.234 C 
ATOM     62  O   UNK A   1       3.283   5.773  21.038  0.00  0.00    -0.274 OA
BRANCH  61  63
ATOM     63  C   UNK A   1       2.664   7.108  23.025  0.00  0.00    +0.159 C 
BRANCH  63  64
ATOM     64  N   UNK A   1       2.647   7.068  24.529  0.00  0.00    -0.302 N 
ATOM     65  H   UNK A   1       2.441   7.935  25.000  0.00  0.00    +0.150 HD
ATOM     66  C   UNK A   1       2.592   5.904  25.227  0.00  0.00    +0.236 C 
ATOM     67  O   UNK A   1       3.001   4.900  24.642  0.00  0.00    -0.274 OA
BRANCH  66  68
ATOM     68  C   UNK A   1       2.143   5.950  26.798  0.00  0.00    +0.184 C 
BRANCH  68  69
ATOM     69  N   UNK A   1       2.162   4.596  27.689  0.00  0.00    -0.301 N 
ATOM     70  H   UNK A   1       2.283   3.946  26.929  0.00  0.00    +0.150 HD
ATOM     71  C   UNK A   0       2.059   3.792  29.069  0.00  0.00    +0.234 C 
ATOM     72  O   UNK A   0       1.967   4.560  30.049  0.00  0.00    -0.274 OA
BRANCH  71  73
ATOM     73  C   UNK A   0       2.354   1.793  29.306  0.00  0.00    +0.162 C 
ATOM     74  N   UNK A   0       2.566   0.317  28.185  0.00  0.00    -0.297 N 
ATOM     75  C   UNK A   0       3.529  -0.271  27.188  0.00  0.00    +0.043 A 
ATOM     76  C   UNK A   0       3.900  -1.655  27.203  0.00  0.00    +0.001 A 
ATOM     77  C   UNK A   0       3.289  -2.529  28.134  0.00  0.00    +0.032 C 
ATOM     78  C   UNK A   0       2.067  -2.167  28.483  0.00  0.00    +0.046 C 
ATOM     79  C   UNK A   0       4.768  -2.455  26.361  0.00  0.00    +0.059 A 
ATOM     80  C   UNK A   0       5.372  -1.923  25.229  0.00  0.00    +0.159 A 
ATOM     81  C   UNK A   0       4.920  -0.674  25.020  0.00  0.00    +0.160 A 
ATOM     82  C   UNK A   0       4.090   0.190  25.976  0.00  0.00    +0.073 A 
ATOM     83  C   UNK A   0       1.510  -0.727  28.326  0.00  0.00    +0.188 C 
ATOM     84  N   UNK A   0       0.443  -0.674  29.276  0.00  0.00    -0.294 NA
ATOM     85  H   UNK A   0      -0.452  -0.492  28.840  0.00  0.00    +0.124 HD
ATOM     86  C   UNK A   0       0.753   0.236  30.325  0.00  0.00    +0.085 C 
ATOM     87  C   UNK A   0       1.485   1.492  30.485  0.00  0.00    +0.047 C 
BRANCH  78  88
ATOM     88  N   UNK A   0       1.260  -3.187  28.968  0.00  0.00    -0.286 N 
ATOM     89  H   UNK A   0       0.275  -3.055  28.729  0.00  0.00    +0.155 HD
ATOM     90  C   UNK A   0       1.747  -4.355  29.509  0.00  0.00    +0.218 C 
ATOM     91  O   UNK A   0       2.889  -4.907  29.520  0.00  0.00    -0.275 OA
BRANCH  90  92
ATOM     92  C   UNK A   0       0.632  -5.295  29.991  0.00  0.00    +0.107 C 
BRANCH  92  93
ATOM     93  C   UNK A   0       1.056  -6.707  29.684  0.00  0.00    +0.129 C 
BRANCH  93  94
ATOM     94  C   UNK A   0       1.446  -7.091  28.271  0.00  0.00    +0.305 C 
ATOM     95  O   UNK A   0       0.862  -6.586  27.314  0.00  0.00    -0.251 OA
BRANCH  94  96
ATOM     96  O   UNK A   0       2.432  -7.977  28.076  0.00  0.00    -0.481 OA
ATOM     97  H   UNK A   0       3.239  -7.695  27.586  0.00  0.00    +0.295 HD
ENDBRANCH  94  96
ENDBRANCH  93  94
ENDBRANCH  92  93
ENDBRANCH  90  92
ENDBRANCH  78  88
BRANCH  81  98
ATOM     98  O   UNK A   0       5.360  -0.296  23.753  0.00  0.00    -0.503 OA
ATOM     99  H   UNK A   0       5.077  -0.957  23.062  0.00  0.00    +0.292 HD
ENDBRANCH  81  98
BRANCH  80 100
ATOM    100  O   UNK A   0       6.349  -2.524  24.573  0.00  0.00    -0.503 OA
ATOM    101  H   UNK A   0       6.921  -1.846  24.178  0.00  0.00    +0.292 HD
ENDBRANCH  80 100
ENDBRANCH  71  73
ENDBRANCH  68  69
BRANCH  68 102
ATOM    102  C   UNK A   1       3.207   6.982  27.396  0.00  0.00    +0.187 C 
BRANCH 102 103
ATOM    103  O   UNK A   1       4.531   6.444  27.394  0.00  0.00    -0.393 OA
ATOM    104  H   UNK A   1       4.667   6.034  26.513  0.00  0.00    +0.209 HD
ENDBRANCH 102 103
ENDBRANCH  68 102
ENDBRANCH  66  68
ENDBRANCH  63  64
BRANCH  63 105
ATOM    105  C   UNK A   1       1.198   6.898  22.545  0.00  0.00    +0.035 C 
BRANCH 105 106
ATOM    106  C   UNK A   1       0.629   5.520  22.835  0.00  0.00    +0.039 C 
BRANCH 106 107
ATOM    107  C   UNK A   1       0.944   4.566  21.686  0.00  0.00    +0.196 C 
BRANCH 107 108
ATOM    108  N   UNK A   1       0.665   5.187  20.410  0.00  0.00    -0.276 N 
ATOM    109  H   UNK A   1       0.040   5.980  20.453  0.00  0.00    +0.258 HD
ATOM    110  C   UNK A   1       0.990   4.740  19.177  0.00  0.00    +0.376 C 
ATOM    111  N   UNK A   1       0.617   5.324  18.096  0.00  0.00    -0.130 NA
ATOM    112  H   UNK A   1       0.061   6.147  18.325  0.00  0.00    +0.306 HD
ATOM    113  N   UNK A   1       1.739   3.630  19.088  0.00  0.00    -0.289 N 
ATOM    114  H   UNK A   1       2.090   3.536  18.139  0.00  0.00    +0.255 HD
ATOM    115  H   UNK A   1       2.496   3.572  19.753  0.00  0.00    +0.255 HD
ENDBRANCH 107 108
ENDBRANCH 106 107
ENDBRANCH 105 106
ENDBRANCH  63 105
ENDBRANCH  61  63
ENDBRANCH   1  59
BRANCH   1 116
ATOM    116  C   UNK A   1       6.559   5.456  21.047  0.00  0.00    +0.187 C 
BRANCH 116 117
ATOM    117  O   UNK A   1       7.565   6.276  21.652  0.00  0.00    -0.393 OA
ATOM    118  H   UNK A   1       8.043   6.714  20.922  0.00  0.00    +0.209 HD
ENDBRANCH 116 117
ENDBRANCH   1 116
TORSDOF 39
ENDMDL
MODEL 2
REMARK VINA RESULT:      -0.5      2.603     11.569
REMARK  Name = 
REMARK  41 active torsions:
REMARK  status: ('A' for Active; 'I' for Inactive)
REMARK    1  A    between atoms: C_1  and  C_2
REMARK    2  A    between atoms: C_2  and  O_4
REMARK    3  A    between atoms: C_2  and  C_5
REMARK    4  A    between atoms: C_10  and  C_103
REMARK    5  A    between atoms: C_15  and  C_17
REMARK    6  A    between atoms: C_17  and  C_18
REMARK    7  A    between atoms: C_18  and  C_19
REMARK    8  A    between atoms: C_19  and  N_20
REMARK    9  A    between atoms: N_20  and  O_21
REMARK   10  A    between atoms: C_27  and  N_36
REMARK   11  A    between atoms: C_37  and  C_39
REMARK   12  A    between atoms: C_39  and  C_41
REMARK   13  A    between atoms: C_39  and  N_48
REMARK   14  A    between atoms: C_41  and  C_42
REMARK   15  A    between atoms: C_42  and  C_43
REMARK   16  A    between atoms: C_43  and  N_44
REMARK   17  A    between atoms: N_44  and  O_45
REMARK   18  A    between atoms: C_49  and  C_51
REMARK   19  A    between atoms: C_51  and  C_53
REMARK   20  A    between atoms: C_51  and  N_55
REMARK   21  A    between atoms: C_53  and  O_54
REMARK   22  A    between atoms: C_56  and  C_58
REMARK   23  A    between atoms: C_58  and  C_60
REMARK   24  A    between atoms: C_58  and  N_67
REMARK   25  A    between atoms: C_60  and  C_61
REMARK   26  A    between atoms: C_61  and  C_62
REMARK   27  A    between atoms: C_62  and  N_63
REMARK   28  A    between atoms: C_68  and  C_70
REMARK   29  A    between atoms: C_70  and  C_72
REMARK   30  A    between atoms: C_70  and  N_74
REMARK   31  A    between atoms: C_72  and  O_73
REMARK   32  A    between atoms: C_75  and  C_77
REMARK   33  A    between atoms: C_87  and  O_88
REMARK   34  A    between atoms: C_89  and  O_90
REMARK   35  A    between atoms: C_94  and  N_95
REMARK   36  A    between atoms: C_96  and  C_98
REMARK   37  A    between atoms: C_98  and  C_99
REMARK   38  A    between atoms: C_99  and  C_100
REMARK   39  A    between atoms: C_100  and  O_101
REMARK   40  A    between atoms: C_103  and  C_105
REMARK   41  A    between atoms: C_103  and  O_106
REMARK                            x       y       z     vdW  Elec       q    Type
REMARK                         _______ _______ _______ _____ _____    ______ ____
ROOT
ATOM      1  C   UNK A   1       5.591  -7.312  26.757  0.00  0.00    +0.184 C 
ENDROOT
BRANCH   1   4
ATOM      2  N   UNK A   1       5.374  -5.380  28.293  0.00  0.00    -0.302 N 
ATOM      3  H   UNK A   1       6.041  -4.980  27.637  0.00  0.00    +0.150 HD
ATOM      4  C   UNK A   1       4.798  -6.555  27.842  0.00  0.00    +0.236 C 
ATOM      5  O   UNK A   1       3.717  -6.987  28.211  0.00  0.00    -0.274 OA
BRANCH   2   6
ATOM      6  C   UNK A   1       4.790  -4.427  29.265  0.00  0.00    +0.159 C 
BRANCH   6   9
ATOM      7  N   UNK A   1       4.976  -2.252  28.367  0.00  0.00    -0.302 N 
ATOM      8  H   UNK A   1       5.928  -2.518  28.266  0.00  0.00    +0.150 HD
ATOM      9  C   UNK A   1       4.077  -3.229  28.678  0.00  0.00    +0.234 C 
ATOM     10  O   UNK A   1       2.857  -3.130  28.558  0.00  0.00    -0.274 OA
BRANCH   7  20
ATOM     11  C   UNK A   1       6.681   5.886  27.205  0.00  0.00    +0.187 C 
ATOM     12  C   UNK A   1       7.141   4.517  26.698  0.00  0.00    +0.236 C 
ATOM     13  O   UNK A   1       8.123   4.800  25.974  0.00  0.00    -0.274 OA
ATOM     14  N   UNK A   1       6.622   2.986  27.009  0.00  0.00    -0.314 N 
ATOM     15  H   UNK A   1       5.788   2.962  27.593  0.00  0.00    +0.149 HD
ATOM     16  C   UNK A   1       7.421   1.297  26.729  0.00  0.00    +0.104 C 
ATOM     17  C   UNK A   1       8.173   0.304  27.653  0.00  0.00    +0.019 C 
ATOM     18  C   UNK A   1       7.201  -0.810  27.800  0.00  0.00    +0.004 C 
ATOM     19  C   UNK A   1       6.020  -0.203  28.534  0.00  0.00    +0.032 C 
ATOM     20  C   UNK A   1       4.684  -0.866  28.290  0.00  0.00    +0.159 C 
ATOM     21  C   UNK A   1       3.792  -0.022  29.242  0.00  0.00    +0.234 C 
ATOM     22  O   UNK A   1       3.774   0.023  30.484  0.00  0.00    -0.274 OA
ATOM     23  N   UNK A   1       3.097   0.966  28.615  0.00  0.00    -0.302 N 
ATOM     24  H   UNK A   1       2.967   0.601  27.687  0.00  0.00    +0.150 HD
ATOM     25  C   UNK A   1       2.939   2.414  28.776  0.00  0.00    +0.159 C 
ATOM     26  C   UNK A   1       2.072   3.240  27.694  0.00  0.00    +0.234 C 
ATOM     27  O   UNK A   1       1.190   2.689  27.028  0.00  0.00    -0.274 OA
ATOM     28  N   UNK A   1       2.222   4.631  27.658  0.00  0.00    -0.300 N 
ATOM     29  H   UNK A   1       2.551   4.955  28.563  0.00  0.00    +0.150 HD
ATOM     30  C   UNK A   1       3.072   5.356  26.626  0.00  0.00    +0.187 C 
ATOM     31  C   UNK A   1       4.398   5.393  27.357  0.00  0.00    +0.237 C 
ATOM     32  O   UNK A   1       4.591   4.878  28.461  0.00  0.00    -0.274 OA
ATOM     33  N   UNK A   1       5.365   6.087  26.732  0.00  0.00    -0.300 N 
ATOM     34  H   UNK A   1       5.269   6.350  25.765  0.00  0.00    +0.150 HD
BRANCH  30  35
ATOM     35  C   UNK A   1       3.158   4.724  25.227  0.00  0.00    +0.141 C 
ATOM     36  C   UNK A   1       3.689   3.327  24.856  0.00  0.00    +0.040 C 
BRANCH  35  37
ATOM     37  O   UNK A   1       1.811   4.580  24.925  0.00  0.00    -0.390 OA
ATOM     38  H   UNK A   1       1.769   4.900  24.012  0.00  0.00    +0.210 HD
ENDBRANCH  35  37
ENDBRANCH  30  35
BRANCH  11  40
ATOM     39  C   UNK A   1       9.179   6.965  26.770  0.00  0.00    +0.040 C 
ATOM     40  C   UNK A   1       7.632   7.061  26.555  0.00  0.00    +0.141 C 
BRANCH  40  41
ATOM     41  O   UNK A   1       7.435   7.106  25.132  0.00  0.00    -0.390 OA
ATOM     42  H   UNK A   1       8.236   7.521  24.758  0.00  0.00    +0.210 HD
ENDBRANCH  40  41
ENDBRANCH  11  40
BRANCH  25  43
ATOM     43  C   UNK A   1       2.372   2.665  30.133  0.00  0.00    +0.033 C 
BRANCH  43  44
ATOM     44  C   UNK A   1       0.857   2.580  30.067  0.00  0.00    +0.024 C 
BRANCH  44  45
ATOM     45  C   UNK A   1       0.454   1.736  28.897  0.00  0.00    +0.139 C 
BRANCH  45  46
ATOM     46  N   UNK A   1       0.444   0.313  29.190  0.00  0.00    -0.186 N 
ATOM     47  C   UNK A   1       0.668  -0.637  28.231  0.00  0.00    +0.352 C 
ATOM     48  O   UNK A   1       0.643  -0.455  27.020  0.00  0.00    -0.277 OA
BRANCH  46  49
ATOM     49  O   UNK A   1       0.915   0.012  30.484  0.00  0.00    -0.293 OA
ATOM     50  H   UNK A   1       0.730  -0.944  30.550  0.00  0.00    +0.242 HD
ENDBRANCH  46  49
ENDBRANCH  45  46
ENDBRANCH  44  45
ENDBRANCH  43  44
ENDBRANCH  25  43
ENDBRANCH   7  20
ENDBRANCH   6   9
BRANCH   6  51
ATOM     51  C   UNK A   1       3.809  -5.198  30.192  0.00  0.00    +0.033 C 
BRANCH  51  52
ATOM     52  C   UNK A   1       2.429  -4.584  30.262  0.00  0.00    +0.024 C 
BRANCH  52  53
ATOM     53  C   UNK A   1       1.362  -5.637  30.477  0.00  0.00    +0.139 C 
BRANCH  53  54
ATOM     54  N   UNK A   1       0.744  -5.988  29.219  0.00  0.00    -0.186 N 
ATOM     55  C   UNK A   1       0.645  -7.324  28.883  0.00  0.00    +0.352 C 
ATOM     56  O   UNK A   1       0.750  -8.268  29.655  0.00  0.00    -0.277 OA
BRANCH  54  57
ATOM     57  O   UNK A   1       1.285  -5.222  28.151  0.00  0.00    -0.293 OA
ATOM     58  H   UNK A   1       2.090  -5.730  27.936  0.00  0.00    +0.242 HD
ENDBRANCH  54  57
ENDBRANCH  53  54
ENDBRANCH  52  53
ENDBRANCH  51  52
ENDBRANCH   6  51
ENDBRANCH   2   6
ENDBRANCH   1   4
BRANCH   1  59
ATOM     59  N   UNK A   1       4.876  -7.195  25.452  0.00  0.00    -0.301 N 
ATOM     60  H   UNK A   1       5.488  -7.021  24.664  0.00  0.00    +0.150 HD
ATOM     61  C   UNK A   1       3.616  -6.633  25.376  0.00  0.00    +0.234 C 
ATOM     62  O   UNK A   1       2.986  -6.331  26.391  0.00  0.00    -0.274 OA
BRANCH  61  63
ATOM     63  C   UNK A   1       2.994  -6.504  23.925  0.00  0.00    +0.159 C 
BRANCH  63  64
ATOM     64  N   UNK A   1       3.819  -6.035  22.757  0.00  0.00    -0.302 N 
ATOM     65  H   UNK A   1       3.463  -5.245  22.242  0.00  0.00    +0.150 HD
ATOM     66  C   UNK A   1       5.109  -6.418  22.576  0.00  0.00    +0.236 C 
ATOM     67  O   UNK A   1       5.443  -7.477  23.112  0.00  0.00    -0.274 OA
BRANCH  66  68
ATOM     68  C   UNK A   1       6.053  -5.549  21.562  0.00  0.00    +0.184 C 
BRANCH  68  69
ATOM     69  N   UNK A   1       6.274  -3.963  21.817  0.00  0.00    -0.301 N 
ATOM     70  H   UNK A   1       6.984  -4.047  22.527  0.00  0.00    +0.150 HD
ATOM     71  C   UNK A   0       5.946  -2.417  21.568  0.00  0.00    +0.234 C 
ATOM     72  O   UNK A   0       5.112  -2.260  20.652  0.00  0.00    -0.274 OA
BRANCH  71  73
ATOM     73  C   UNK A   0       6.951  -0.843  22.375  0.00  0.00    +0.162 C 
ATOM     74  N   UNK A   0       7.060   0.993  22.061  0.00  0.00    -0.297 N 
ATOM     75  C   UNK A   0       6.237   2.250  22.149  0.00  0.00    +0.043 A 
ATOM     76  C   UNK A   0       6.746   3.463  22.717  0.00  0.00    +0.001 A 
ATOM     77  C   UNK A   0       8.094   3.519  23.144  0.00  0.00    +0.032 C 
ATOM     78  C   UNK A   0       8.899   2.711  22.477  0.00  0.00    +0.046 C 
ATOM     79  C   UNK A   0       6.178   4.786  22.895  0.00  0.00    +0.059 A 
ATOM     80  C   UNK A   0       4.922   5.109  22.397  0.00  0.00    +0.159 A 
ATOM     81  C   UNK A   0       4.447   4.084  21.668  0.00  0.00    +0.160 A 
ATOM     82  C   UNK A   0       5.010   2.661  21.582  0.00  0.00    +0.073 A 
ATOM     83  C   UNK A   0       8.417   1.476  21.671  0.00  0.00    +0.188 C 
ATOM     84  N   UNK A   0       9.579   0.647  21.598  0.00  0.00    -0.294 NA
ATOM     85  H   UNK A   0       9.876   0.483  20.644  0.00  0.00    +0.124 HD
ATOM     86  C   UNK A   0       9.387  -0.551  22.341  0.00  0.00    +0.085 C 
ATOM     87  C   UNK A   0       8.284  -1.450  22.675  0.00  0.00    +0.047 C 
BRANCH  78  88
ATOM     88  N   UNK A   0      10.241   3.064  22.492  0.00  0.00    -0.286 N 
ATOM     89  H   UNK A   0      10.521   3.576  21.652  0.00  0.00    +0.155 HD
ATOM     90  C   UNK A   0      11.052   2.944  23.598  0.00  0.00    +0.218 C 
ATOM     91  O   UNK A   0      10.829   2.743  24.830  0.00  0.00    -0.275 OA
BRANCH  90  92
ATOM     92  C   UNK A   0      12.498   3.382  23.323  0.00  0.00    +0.107 C 
BRANCH  92  93
ATOM     93  C   UNK A   0      12.509   4.882  23.196  0.00  0.00    +0.129 C 
BRANCH  93  94
ATOM     94  C   UNK A   0      13.446   5.553  22.212  0.00  0.00    +0.305 C 
ATOM     95  O   UNK A   0      13.327   5.339  21.007  0.00  0.00    -0.251 OA
BRANCH  94  96
ATOM     96  O   UNK A   0      14.396   6.382  22.665  0.00  0.00    -0.481 OA
ATOM     97  H   UNK A   0      15.050   6.754  22.028  0.00  0.00    +0.295 HD
ENDBRANCH  94  96
ENDBRANCH  93  94
ENDBRANCH  92  93
ENDBRANCH  90  92
ENDBRANCH  78  88
BRANCH  81  98
ATOM     98  O   UNK A   0       3.320   4.557  20.999  0.00  0.00    -0.503 OA
ATOM     99  H   UNK A   0       2.852   5.257  21.533  0.00  0.00    +0.292 HD
ENDBRANCH  81  98
BRANCH  80 100
ATOM    100  O   UNK A   0       4.263   6.203  22.735  0.00  0.00    -0.503 OA
ATOM    101  H   UNK A   0       4.638   6.548  23.562  0.00  0.00    +0.292 HD
ENDBRANCH  80 100
ENDBRANCH  71  73
ENDBRANCH  68  69
BRANCH  68 102
ATOM    102  C   UNK A   1       7.453  -6.303  21.718  0.00  0.00    +0.187 C 
BRANCH 102 103
ATOM    103  O   UNK A   1       8.382  -5.547  22.499  0.00  0.00    -0.393 OA
ATOM    104  H   UNK A   1       9.276  -5.886  22.278  0.00  0.00    +0.209 HD
ENDBRANCH 102 103
ENDBRANCH  68 102
ENDBRANCH  66  68
ENDBRANCH  63  64
BRANCH  63 105
ATOM    105  C   UNK A   1       1.772  -5.546  24.035  0.00  0.00    +0.035 C 
BRANCH 105 106
ATOM    106  C   UNK A   1       2.130  -4.074  24.143  0.00  0.00    +0.039 C 
BRANCH 106 107
ATOM    107  C   UNK A   1       3.259  -3.877  25.151  0.00  0.00    +0.196 C 
BRANCH 107 108
ATOM    108  N   UNK A   1       3.729  -2.510  25.138  0.00  0.00    -0.276 N 
ATOM    109  H   UNK A   1       3.004  -1.814  25.027  0.00  0.00    +0.258 HD
ATOM    110  C   UNK A   1       5.004  -2.068  25.082  0.00  0.00    +0.376 C 
ATOM    111  N   UNK A   1       5.316  -0.826  24.986  0.00  0.00    -0.130 NA
ATOM    112  H   UNK A   1       4.467  -0.261  24.964  0.00  0.00    +0.306 HD
ATOM    113  N   UNK A   1       5.988  -2.981  25.128  0.00  0.00    -0.289 N 
ATOM    114  H   UNK A   1       6.873  -2.512  25.302  0.00  0.00    +0.255 HD
ATOM    115  H   UNK A   1       5.847  -3.727  25.793  0.00  0.00    +0.255 HD
ENDBRANCH 107 108
ENDBRANCH 106 107
ENDBRANCH 105 106
ENDBRANCH  63 105
ENDBRANCH  61  63
ENDBRANCH   1  59
BRANCH   1 116
ATOM    116  C   UNK A   1       6.996  -6.701  26.683  0.00  0.00    +0.187 C 
BRANCH 116 117
ATOM    117  O   UNK A   1       6.990  -5.446  25.992  0.00  0.00    -0.393 OA
ATOM    118  H   UNK A   1       7.703  -4.909  26.386  0.00  0.00    +0.209 HD
ENDBRANCH 116 117
ENDBRANCH   1 116
TORSDOF 39
ENDMDL
MODEL 3
REMARK VINA RESULT:       0.0      2.546     11.034
REMARK  Name = 
REMARK  41 active torsions:
REMARK  status: ('A' for Active; 'I' for Inactive)
REMARK    1  A    between atoms: C_1  and  C_2
REMARK    2  A    between atoms: C_2  and  O_4
REMARK    3  A    between atoms: C_2  and  C_5
REMARK    4  A    between atoms: C_10  and  C_103
REMARK    5  A    between atoms: C_15  and  C_17
REMARK    6  A    between atoms: C_17  and  C_18
REMARK    7  A    between atoms: C_18  and  C_19
REMARK    8  A    between atoms: C_19  and  N_20
REMARK    9  A    between atoms: N_20  and  O_21
REMARK   10  A    between atoms: C_27  and  N_36
REMARK   11  A    between atoms: C_37  and  C_39
REMARK   12  A    between atoms: C_39  and  C_41
REMARK   13  A    between atoms: C_39  and  N_48
REMARK   14  A    between atoms: C_41  and  C_42
REMARK   15  A    between atoms: C_42  and  C_43
REMARK   16  A    between atoms: C_43  and  N_44
REMARK   17  A    between atoms: N_44  and  O_45
REMARK   18  A    between atoms: C_49  and  C_51
REMARK   19  A    between atoms: C_51  and  C_53
REMARK   20  A    between atoms: C_51  and  N_55
REMARK   21  A    between atoms: C_53  and  O_54
REMARK   22  A    between atoms: C_56  and  C_58
REMARK   23  A    between atoms: C_58  and  C_60
REMARK   24  A    between atoms: C_58  and  N_67
REMARK   25  A    between atoms: C_60  and  C_61
REMARK   26  A    between atoms: C_61  and  C_62
REMARK   27  A    between atoms: C_62  and  N_63
REMARK   28  A    between atoms: C_68  and  C_70
REMARK   29  A    between atoms: C_70  and  C_72
REMARK   30  A    between atoms: C_70  and  N_74
REMARK   31  A    between atoms: C_72  and  O_73
REMARK   32  A    between atoms: C_75  and  C_77
REMARK   33  A    between atoms: C_87  and  O_88
REMARK   34  A    between atoms: C_89  and  O_90
REMARK   35  A    between atoms: C_94  and  N_95
REMARK   36  A    between atoms: C_96  and  C_98
REMARK   37  A    between atoms: C_98  and  C_99
REMARK   38  A    between atoms: C_99  and  C_100
REMARK   39  A    between atoms: C_100  and  O_101
REMARK   40  A    between atoms: C_103  and  C_105
REMARK   41  A    between atoms: C_103  and  O_106
REMARK                            x       y       z     vdW  Elec       q    Type
REMARK                         _______ _______ _______ _____ _____    ______ ____
ROOT
ATOM      1  C   UNK A   1       5.941  -5.909  22.316  0.00  0.00    +0.184 C 
ENDROOT
BRANCH   1   4
ATOM      2  N   UNK A   1       5.190  -5.344  24.608  0.00  0.00    -0.302 N 
ATOM      3  H   UNK A   1       5.204  -4.406  24.217  0.00  0.00    +0.150 HD
ATOM      4  C   UNK A   1       5.306  -6.340  23.653  0.00  0.00    +0.236 C 
ATOM      5  O   UNK A   1       4.908  -7.486  23.790  0.00  0.00    -0.274 OA
BRANCH   2   6
ATOM      6  C   UNK A   1       4.550  -5.468  25.938  0.00  0.00    +0.159 C 
BRANCH   6   9
ATOM      7  N   UNK A   1       3.600  -3.338  25.576  0.00  0.00    -0.302 N 
ATOM      8  H   UNK A   1       3.387  -3.729  24.688  0.00  0.00    +0.150 HD
ATOM      9  C   UNK A   1       4.036  -4.184  26.552  0.00  0.00    +0.234 C 
ATOM     10  O   UNK A   1       4.065  -3.922  27.753  0.00  0.00    -0.274 OA
BRANCH   7  20
ATOM     11  C   UNK A   1       5.785   4.591  23.887  0.00  0.00    +0.187 C 
ATOM     12  C   UNK A   1       5.705   3.232  23.187  0.00  0.00    +0.236 C 
ATOM     13  O   UNK A   1       6.228   3.458  22.072  0.00  0.00    -0.274 OA
ATOM     14  N   UNK A   1       5.171   1.756  23.684  0.00  0.00    -0.314 N 
ATOM     15  H   UNK A   1       4.746   1.781  24.610  0.00  0.00    +0.149 HD
ATOM     16  C   UNK A   1       5.441   0.016  23.002  0.00  0.00    +0.104 C 
ATOM     17  C   UNK A   1       6.382  -1.153  23.396  0.00  0.00    +0.019 C 
ATOM     18  C   UNK A   1       5.447  -2.142  23.991  0.00  0.00    +0.004 C 
ATOM     19  C   UNK A   1       4.903  -1.466  25.235  0.00  0.00    +0.032 C 
ATOM     20  C   UNK A   1       3.536  -1.925  25.687  0.00  0.00    +0.159 C 
ATOM     21  C   UNK A   1       3.384  -1.073  26.977  0.00  0.00    +0.234 C 
ATOM     22  O   UNK A   1       3.993  -1.150  28.058  0.00  0.00    -0.274 OA
ATOM     23  N   UNK A   1       2.638   0.054  26.811  0.00  0.00    -0.302 N 
ATOM     24  H   UNK A   1       2.008  -0.198  26.069  0.00  0.00    +0.150 HD
ATOM     25  C   UNK A   1       2.817   1.487  27.061  0.00  0.00    +0.159 C 
ATOM     26  C   UNK A   1       1.673   2.521  26.586  0.00  0.00    +0.234 C 
ATOM     27  O   UNK A   1       0.501   2.156  26.447  0.00  0.00    -0.274 OA
ATOM     28  N   UNK A   1       2.006   3.877  26.509  0.00  0.00    -0.300 N 
ATOM     29  H   UNK A   1       2.789   4.065  27.130  0.00  0.00    +0.150 HD
ATOM     30  C   UNK A   1       2.335   4.587  25.204  0.00  0.00    +0.187 C 
ATOM     31  C   UNK A   1       3.835   4.382  25.164  0.00  0.00    +0.237 C 
ATOM     32  O   UNK A   1       4.466   3.738  26.007  0.00  0.00    -0.274 OA
ATOM     33  N   UNK A   1       4.460   5.005  24.151  0.00  0.00    -0.300 N 
ATOM     34  H   UNK A   1       3.940   5.374  23.371  0.00  0.00    +0.150 HD
BRANCH  30  35
ATOM     35  C   UNK A   1       1.611   4.092  23.942  0.00  0.00    +0.141 C 
ATOM     36  C   UNK A   1       1.727   4.648  22.511  0.00  0.00    +0.040 C 
BRANCH  35  37
ATOM     37  O   UNK A   1       2.193   2.842  23.783  0.00  0.00    -0.390 OA
ATOM     38  H   UNK A   1       1.506   2.250  24.123  0.00  0.00    +0.210 HD
ENDBRANCH  35  37
ENDBRANCH  30  35
BRANCH  11  40
ATOM     39  C   UNK A   1       5.583   6.267  21.709  0.00  0.00    +0.040 C 
ATOM     40  C   UNK A   1       6.462   5.694  22.870  0.00  0.00    +0.141 C 
BRANCH  40  41
ATOM     41  O   UNK A   1       6.907   6.832  23.624  0.00  0.00    -0.390 OA
ATOM     42  H   UNK A   1       6.110   7.357  23.827  0.00  0.00    +0.210 HD
ENDBRANCH  40  41
ENDBRANCH  11  40
BRANCH  25  43
ATOM     43  C   UNK A   1       3.048   1.671  28.524  0.00  0.00    +0.033 C 
BRANCH  43  44
ATOM     44  C   UNK A   1       1.710   1.740  29.238  0.00  0.00    +0.024 C 
BRANCH  44  45
ATOM     45  C   UNK A   1       1.449   0.442  29.939  0.00  0.00    +0.139 C 
BRANCH  45  46
ATOM     46  N   UNK A   1       2.653  -0.185  30.456  0.00  0.00    -0.186 N 
ATOM     47  C   UNK A   1       2.822  -1.543  30.482  0.00  0.00    +0.352 C 
ATOM     48  O   UNK A   1       1.938  -2.379  30.339  0.00  0.00    -0.277 OA
BRANCH  46  49
ATOM     49  O   UNK A   1       3.816   0.580  30.229  0.00  0.00    -0.293 OA
ATOM     50  H   UNK A   1       4.396  -0.062  29.779  0.00  0.00    +0.242 HD
ENDBRANCH  46  49
ENDBRANCH  45  46
ENDBRANCH  44  45
ENDBRANCH  43  44
ENDBRANCH  25  43
ENDBRANCH   7  20
ENDBRANCH   6   9
BRANCH   6  51
ATOM     51  C   UNK A   1       3.380  -6.486  25.837  0.00  0.00    +0.033 C 
BRANCH  51  52
ATOM     52  C   UNK A   1       2.013  -5.843  25.827  0.00  0.00    +0.024 C 
BRANCH  52  53
ATOM     53  C   UNK A   1       1.119  -6.453  24.766  0.00  0.00    +0.139 C 
BRANCH  53  54
ATOM     54  N   UNK A   1       1.877  -6.715  23.565  0.00  0.00    -0.186 N 
ATOM     55  C   UNK A   1       2.274  -5.644  22.789  0.00  0.00    +0.352 C 
ATOM     56  O   UNK A   1       2.318  -4.474  23.149  0.00  0.00    -0.277 OA
BRANCH  54  57
ATOM     57  O   UNK A   1       1.259  -7.725  22.778  0.00  0.00    -0.293 OA
ATOM     58  H   UNK A   1       0.674  -7.193  22.206  0.00  0.00    +0.242 HD
ENDBRANCH  54  57
ENDBRANCH  53  54
ENDBRANCH  52  53
ENDBRANCH  51  52
ENDBRANCH   6  51
ENDBRANCH   2   6
ENDBRANCH   1   4
BRANCH   1  59
ATOM     59  N   UNK A   1       7.281  -5.305  22.578  0.00  0.00    -0.301 N 
ATOM     60  H   UNK A   1       7.617  -5.450  23.522  0.00  0.00    +0.150 HD
ATOM     61  C   UNK A   1       7.661  -4.121  21.974  0.00  0.00    +0.234 C 
ATOM     62  O   UNK A   1       6.968  -3.595  21.103  0.00  0.00    -0.274 OA
BRANCH  61  63
ATOM     63  C   UNK A   1       9.079  -3.549  22.388  0.00  0.00    +0.159 C 
BRANCH  63  64
ATOM     64  N   UNK A   1       9.388  -3.171  23.811  0.00  0.00    -0.302 N 
ATOM     65  H   UNK A   1       9.308  -2.194  24.045  0.00  0.00    +0.150 HD
ATOM     66  C   UNK A   1       9.458  -4.089  24.810  0.00  0.00    +0.236 C 
ATOM     67  O   UNK A   1       9.707  -5.247  24.469  0.00  0.00    -0.274 OA
BRANCH  66  68
ATOM     68  C   UNK A   1       9.361  -3.574  26.359  0.00  0.00    +0.184 C 
BRANCH  68  69
ATOM     69  N   UNK A   1       9.057  -2.015  26.680  0.00  0.00    -0.301 N 
ATOM     70  H   UNK A   1       9.978  -1.662  26.477  0.00  0.00    +0.150 HD
ATOM     71  C   UNK A   0       8.117  -0.812  27.162  0.00  0.00    +0.234 C 
ATOM     72  O   UNK A   0       6.946  -1.192  27.371  0.00  0.00    -0.274 OA
BRANCH  71  73
ATOM     73  C   UNK A   0       8.610   1.161  27.150  0.00  0.00    +0.162 C 
ATOM     74  N   UNK A   0       7.688   2.783  27.145  0.00  0.00    -0.297 N 
ATOM     75  C   UNK A   0       6.798   3.630  28.015  0.00  0.00    +0.043 A 
ATOM     76  C   UNK A   0       6.996   5.040  28.174  0.00  0.00    +0.001 A 
ATOM     77  C   UNK A   0       8.012   5.688  27.431  0.00  0.00    +0.032 C 
ATOM     78  C   UNK A   0       8.282   5.106  26.275  0.00  0.00    +0.046 C 
ATOM     79  C   UNK A   0       6.283   6.062  28.917  0.00  0.00    +0.059 A 
ATOM     80  C   UNK A   0       5.110   5.774  29.602  0.00  0.00    +0.159 A 
ATOM     81  C   UNK A   0       4.734   4.508  29.344  0.00  0.00    +0.160 A 
ATOM     82  C   UNK A   0       5.553   3.416  28.648  0.00  0.00    +0.073 A 
ATOM     83  C   UNK A   0       7.932   3.631  25.943  0.00  0.00    +0.188 C 
ATOM     84  N   UNK A   0       8.839   3.300  24.890  0.00  0.00    -0.294 NA
ATOM     85  H   UNK A   0       8.360   3.044  24.035  0.00  0.00    +0.124 HD
ATOM     86  C   UNK A   0       9.774   2.319  25.326  0.00  0.00    +0.085 C 
ATOM     87  C   UNK A   0       9.794   1.177  26.238  0.00  0.00    +0.047 C 
BRANCH  78  88
ATOM     88  N   UNK A   0       8.869   5.925  25.320  0.00  0.00    -0.286 N 
ATOM     89  H   UNK A   0       8.317   6.765  25.131  0.00  0.00    +0.155 HD
ATOM     90  C   UNK A   0      10.148   5.749  24.845  0.00  0.00    +0.218 C 
ATOM     91  O   UNK A   0      11.139   5.057  25.229  0.00  0.00    -0.275 OA
BRANCH  90  92
ATOM     92  C   UNK A   0      10.530   6.781  23.774  0.00  0.00    +0.107 C 
BRANCH  92  93
ATOM     93  C   UNK A   0      12.033   6.867  23.732  0.00  0.00    +0.129 C 
BRANCH  93  94
ATOM     94  C   UNK A   0      12.794   6.276  22.563  0.00  0.00    +0.305 C 
ATOM     95  O   UNK A   0      12.445   5.197  22.085  0.00  0.00    -0.251 OA
BRANCH  94  96
ATOM     96  O   UNK A   0      13.842   6.938  22.055  0.00  0.00    -0.481 OA
ATOM     97  H   UNK A   0      14.461   6.463  21.451  0.00  0.00    +0.295 HD
ENDBRANCH  94  96
ENDBRANCH  93  94
ENDBRANCH  92  93
ENDBRANCH  90  92
ENDBRANCH  78  88
BRANCH  81  98
ATOM     98  O   UNK A   0       3.442   4.364  29.845  0.00  0.00    -0.503 OA
ATOM     99  H   UNK A   0       3.364   3.544  30.408  0.00  0.00    +0.292 HD
ENDBRANCH  81  98
BRANCH  80 100
ATOM    100  O   UNK A   0       4.560   6.592  30.481  0.00  0.00    -0.503 OA
ATOM    101  H   UNK A   0       4.396   7.447  30.051  0.00  0.00    +0.292 HD
ENDBRANCH  80 100
ENDBRANCH  71  73
ENDBRANCH  68  69
BRANCH  68 102
ATOM    102  C   UNK A   1       8.153  -4.465  26.908  0.00  0.00    +0.187 C 
BRANCH 102 103
ATOM    103  O   UNK A   1       8.323  -5.848  26.589  0.00  0.00    -0.393 OA
ATOM    104  H   UNK A   1       7.570  -6.098  26.012  0.00  0.00    +0.209 HD
ENDBRANCH 102 103
ENDBRANCH  68 102
ENDBRANCH  66  68
ENDBRANCH  63  64
BRANCH  63 105
ATOM    105  C   UNK A   1       9.335  -2.287  21.514  0.00  0.00    +0.035 C 
BRANCH 105 106
ATOM    106  C   UNK A   1       9.436  -0.987  22.293  0.00  0.00    +0.039 C 
BRANCH 106 107
ATOM    107  C   UNK A   1       9.842   0.155  21.366  0.00  0.00    +0.196 C 
BRANCH 107 108
ATOM    108  N   UNK A   1       9.085   1.351  21.659  0.00  0.00    -0.276 N 
ATOM    109  H   UNK A   1       8.140   1.353  21.300  0.00  0.00    +0.258 HD
ATOM    110  C   UNK A   1       9.531   2.510  22.189  0.00  0.00    +0.376 C 
ATOM    111  N   UNK A   1       8.793   3.551  22.330  0.00  0.00    -0.130 NA
ATOM    112  H   UNK A   1       7.853   3.353  21.987  0.00  0.00    +0.306 HD
ATOM    113  N   UNK A   1      10.813   2.568  22.585  0.00  0.00    -0.289 N 
ATOM    114  H   UNK A   1      10.951   3.397  23.157  0.00  0.00    +0.255 HD
ATOM    115  H   UNK A   1      11.148   1.747  23.067  0.00  0.00    +0.255 HD
ENDBRANCH 107 108
ENDBRANCH 106 107
ENDBRANCH 105 106
ENDBRANCH  63 105
ENDBRANCH  61  63
ENDBRANCH   1  59
BRANCH   1 116
ATOM    116  C   UNK A   1       6.051  -7.149  21.420  0.00  0.00    +0.187 C 
BRANCH 116 117
ATOM    117  O   UNK A   1       6.673  -6.841  20.167  0.00  0.00    -0.393 OA
ATOM    118  H   UNK A   1       7.376  -7.505  20.035  0.00  0.00    +0.209 HD
ENDBRANCH 116 117
ENDBRANCH   1 116
TORSDOF 39
ENDMDL
MODEL 4
REMARK VINA RESULT:       0.3      2.551     11.428
REMARK  Name = 
REMARK  41 active torsions:
REMARK  status: ('A' for Active; 'I' for Inactive)
REMARK    1  A    between atoms: C_1  and  C_2
REMARK    2  A    between atoms: C_2  and  O_4
REMARK    3  A    between atoms: C_2  and  C_5
REMARK    4  A    between atoms: C_10  and  C_103
REMARK    5  A    between atoms: C_15  and  C_17
REMARK    6  A    between atoms: C_17  and  C_18
REMARK    7  A    between atoms: C_18  and  C_19
REMARK    8  A    between atoms: C_19  and  N_20
REMARK    9  A    between atoms: N_20  and  O_21
REMARK   10  A    between atoms: C_27  and  N_36
REMARK   11  A    between atoms: C_37  and  C_39
REMARK   12  A    between atoms: C_39  and  C_41
REMARK   13  A    between atoms: C_39  and  N_48
REMARK   14  A    between atoms: C_41  and  C_42
REMARK   15  A    between atoms: C_42  and  C_43
REMARK   16  A    between atoms: C_43  and  N_44
REMARK   17  A    between atoms: N_44  and  O_45
REMARK   18  A    between atoms: C_49  and  C_51
REMARK   19  A    between atoms: C_51  and  C_53
REMARK   20  A    between atoms: C_51  and  N_55
REMARK   21  A    between atoms: C_53  and  O_54
REMARK   22  A    between atoms: C_56  and  C_58
REMARK   23  A    between atoms: C_58  and  C_60
REMARK   24  A    between atoms: C_58  and  N_67
REMARK   25  A    between atoms: C_60  and  C_61
REMARK   26  A    between atoms: C_61  and  C_62
REMARK   27  A    between atoms: C_62  and  N_63
REMARK   28  A    between atoms: C_68  and  C_70
REMARK   29  A    between atoms: C_70  and  C_72
REMARK   30  A    between atoms: C_70  and  N_74
REMARK   31  A    between atoms: C_72  and  O_73
REMARK   32  A    between atoms: C_75  and  C_77
REMARK   33  A    between atoms: C_87  and  O_88
REMARK   34  A    between atoms: C_89  and  O_90
REMARK   35  A    between atoms: C_94  and  N_95
REMARK   36  A    between atoms: C_96  and  C_98
REMARK   37  A    between atoms: C_98  and  C_99
REMARK   38  A    between atoms: C_99  and  C_100
REMARK   39  A    between atoms: C_100  and  O_101
REMARK   40  A    between atoms: C_103  and  C_105
REMARK   41  A    between atoms: C_103  and  O_106
REMARK                            x       y       z     vdW  Elec       q    Type
REMARK                         _______ _______ _______ _____ _____    ______ ____
ROOT
ATOM      1  C   UNK A   1       2.458  -6.551  26.752  0.00  0.00    +0.184 C 
ENDROOT
BRANCH   1   4
ATOM      2  N   UNK A   1       3.326  -4.388  27.593  0.00  0.00    -0.302 N 
ATOM      3  H   UNK A   1       3.086  -4.099  26.648  0.00  0.00    +0.150 HD
ATOM      4  C   UNK A   1       2.814  -5.628  27.936  0.00  0.00    +0.236 C 
ATOM      5  O   UNK A   1       2.597  -6.001  29.078  0.00  0.00    -0.274 OA
BRANCH   2   6
ATOM      6  C   UNK A   1       3.673  -3.289  28.524  0.00  0.00    +0.159 C 
BRANCH   6   9
ATOM      7  N   UNK A   1       4.232  -1.021  28.856  0.00  0.00    -0.302 N 
ATOM      8  H   UNK A   1       4.501  -1.355  29.753  0.00  0.00    +0.150 HD
ATOM      9  C   UNK A   1       3.962  -1.946  27.891  0.00  0.00    +0.234 C 
ATOM     10  O   UNK A   1       3.901  -1.712  26.686  0.00  0.00    -0.274 OA
BRANCH   7  20
ATOM     11  C   UNK A   1       3.713   6.278  24.740  0.00  0.00    +0.187 C 
ATOM     12  C   UNK A   1       3.409   4.794  24.519  0.00  0.00    +0.236 C 
ATOM     13  O   UNK A   1       3.079   4.749  23.312  0.00  0.00    -0.274 OA
ATOM     14  N   UNK A   1       3.522   3.479  25.504  0.00  0.00    -0.314 N 
ATOM     15  H   UNK A   1       3.772   3.722  26.461  0.00  0.00    +0.149 HD
ATOM     16  C   UNK A   1       3.552   1.626  25.143  0.00  0.00    +0.104 C 
ATOM     17  C   UNK A   1       4.687   0.573  25.047  0.00  0.00    +0.019 C 
ATOM     18  C   UNK A   1       4.485  -0.243  26.271  0.00  0.00    +0.004 C 
ATOM     19  C   UNK A   1       4.749   0.710  27.422  0.00  0.00    +0.032 C 
ATOM     20  C   UNK A   1       4.050   0.380  28.721  0.00  0.00    +0.159 C 
ATOM     21  C   UNK A   1       4.619   1.510  29.622  0.00  0.00    +0.234 C 
ATOM     22  O   UNK A   1       5.773   1.681  30.050  0.00  0.00    -0.274 OA
ATOM     23  N   UNK A   1       3.781   2.573  29.770  0.00  0.00    -0.302 N 
ATOM     24  H   UNK A   1       2.870   2.161  29.669  0.00  0.00    +0.150 HD
ATOM     25  C   UNK A   1       3.870   4.023  29.578  0.00  0.00    +0.159 C 
ATOM     26  C   UNK A   1       2.547   4.928  29.769  0.00  0.00    +0.234 C 
ATOM     27  O   UNK A   1       1.613   4.550  30.485  0.00  0.00    -0.274 OA
ATOM     28  N   UNK A   1       2.560   6.226  29.249  0.00  0.00    -0.300 N 
ATOM     29  H   UNK A   1       3.521   6.547  29.173  0.00  0.00    +0.150 HD
ATOM     30  C   UNK A   1       1.893   6.610  27.936  0.00  0.00    +0.187 C 
ATOM     31  C   UNK A   1       3.047   6.388  26.980  0.00  0.00    +0.237 C 
ATOM     32  O   UNK A   1       4.151   5.953  27.321  0.00  0.00    -0.274 OA
ATOM     33  N   UNK A   1       2.803   6.753  25.710  0.00  0.00    -0.300 N 
ATOM     34  H   UNK A   1       1.863   6.934  25.396  0.00  0.00    +0.150 HD
BRANCH  30  35
ATOM     35  C   UNK A   1       0.619   5.840  27.551  0.00  0.00    +0.141 C 
ATOM     36  C   UNK A   1       0.451   4.796  26.432  0.00  0.00    +0.040 C 
BRANCH  35  37
ATOM     37  O   UNK A   1       0.447   5.046  28.677  0.00  0.00    -0.390 OA
ATOM     38  H   UNK A   1       1.177   4.416  28.599  0.00  0.00    +0.210 HD
ENDBRANCH  35  37
ENDBRANCH  30  35
BRANCH  11  40
ATOM     39  C   UNK A   1       4.241   6.696  22.067  0.00  0.00    +0.040 C 
ATOM     40  C   UNK A   1       3.438   7.108  23.346  0.00  0.00    +0.141 C 
BRANCH  40  41
ATOM     41  O   UNK A   1       2.050   7.001  22.989  0.00  0.00    -0.390 OA
ATOM     42  H   UNK A   1       1.993   6.293  22.319  0.00  0.00    +0.210 HD
ENDBRANCH  40  41
ENDBRANCH  11  40
BRANCH  25  43
ATOM     43  C   UNK A   1       4.936   4.541  30.485  0.00  0.00    +0.033 C 
BRANCH  43  44
ATOM     44  C   UNK A   1       6.211   4.754  29.688  0.00  0.00    +0.024 C 
BRANCH  44  45
ATOM     45  C   UNK A   1       5.948   4.478  28.240  0.00  0.00    +0.139 C 
BRANCH  45  46
ATOM     46  N   UNK A   1       7.155   4.436  27.433  0.00  0.00    -0.186 N 
ATOM     47  C   UNK A   1       8.017   5.494  27.343  0.00  0.00    +0.352 C 
ATOM     48  O   UNK A   1       7.779   6.646  27.685  0.00  0.00    -0.277 OA
BRANCH  46  49
ATOM     49  O   UNK A   1       7.740   3.154  27.380  0.00  0.00    -0.293 OA
ATOM     50  H   UNK A   1       6.961   2.572  27.462  0.00  0.00    +0.242 HD
ENDBRANCH  46  49
ENDBRANCH  45  46
ENDBRANCH  44  45
ENDBRANCH  43  44
ENDBRANCH  25  43
ENDBRANCH   7  20
ENDBRANCH   6   9
BRANCH   6  51
ATOM     51  C   UNK A   1       2.522  -3.126  29.556  0.00  0.00    +0.033 C 
BRANCH  51  52
ATOM     52  C   UNK A   1       1.384  -2.259  29.066  0.00  0.00    +0.024 C 
BRANCH  52  53
ATOM     53  C   UNK A   1       1.630  -0.795  29.371  0.00  0.00    +0.139 C 
BRANCH  53  54
ATOM     54  N   UNK A   1       0.549   0.011  28.853  0.00  0.00    -0.186 N 
ATOM     55  C   UNK A   1       0.464   0.202  27.488  0.00  0.00    +0.352 C 
ATOM     56  O   UNK A   1       1.022  -0.473  26.633  0.00  0.00    -0.277 OA
BRANCH  54  57
ATOM     57  O   UNK A   1       0.443   1.241  29.557  0.00  0.00    -0.293 OA
ATOM     58  H   UNK A   1      -0.407   1.126  30.022  0.00  0.00    +0.242 HD
ENDBRANCH  54  57
ENDBRANCH  53  54
ENDBRANCH  52  53
ENDBRANCH  51  52
ENDBRANCH   6  51
ENDBRANCH   2   6
ENDBRANCH   1   4
BRANCH   1  59
ATOM     59  N   UNK A   1       3.513  -6.436  25.702  0.00  0.00    -0.301 N 
ATOM     60  H   UNK A   1       4.404  -6.835  25.971  0.00  0.00    +0.150 HD
ATOM     61  C   UNK A   1       3.569  -5.339  24.864  0.00  0.00    +0.234 C 
ATOM     62  O   UNK A   1       2.679  -4.486  24.864  0.00  0.00    -0.274 OA
BRANCH  61  63
ATOM     63  C   UNK A   1       4.775  -5.303  23.838  0.00  0.00    +0.159 C 
BRANCH  63  64
ATOM     64  N   UNK A   1       6.193  -5.102  24.301  0.00  0.00    -0.302 N 
ATOM     65  H   UNK A   1       6.719  -4.376  23.841  0.00  0.00    +0.150 HD
ATOM     66  C   UNK A   1       6.659  -5.622  25.466  0.00  0.00    +0.236 C 
ATOM     67  O   UNK A   1       6.059  -6.608  25.900  0.00  0.00    -0.274 OA
BRANCH  66  68
ATOM     68  C   UNK A   1       8.037  -5.014  26.103  0.00  0.00    +0.184 C 
BRANCH  68  69
ATOM     69  N   UNK A   1       8.569  -3.553  25.644  0.00  0.00    -0.301 N 
ATOM     70  H   UNK A   1       7.865  -3.008  26.115  0.00  0.00    +0.150 HD
ATOM     71  C   UNK A   0       9.555  -2.579  24.844  0.00  0.00    +0.234 C 
ATOM     72  O   UNK A   0      10.481  -3.207  24.290  0.00  0.00    -0.274 OA
BRANCH  71  73
ATOM     73  C   UNK A   0       9.553  -0.546  24.937  0.00  0.00    +0.162 C 
ATOM     74  N   UNK A   0       8.991   0.854  23.839  0.00  0.00    -0.297 N 
ATOM     75  C   UNK A   0       7.741   1.479  23.282  0.00  0.00    +0.043 A 
ATOM     76  C   UNK A   0       7.524   2.896  23.283  0.00  0.00    +0.001 A 
ATOM     77  C   UNK A   0       8.547   3.755  23.750  0.00  0.00    +0.032 C 
ATOM     78  C   UNK A   0       9.766   3.271  23.590  0.00  0.00    +0.046 C 
ATOM     79  C   UNK A   0       6.443   3.731  22.797  0.00  0.00    +0.059 A 
ATOM     80  C   UNK A   0       5.366   3.193  22.103  0.00  0.00    +0.159 A 
ATOM     81  C   UNK A   0       5.582   1.885  21.877  0.00  0.00    +0.160 A 
ATOM     82  C   UNK A   0       6.673   1.001  22.490  0.00  0.00    +0.073 A 
ATOM     83  C   UNK A   0      10.083   1.765  23.389  0.00  0.00    +0.188 C 
ATOM     84  N   UNK A   0      11.449   1.653  23.795  0.00  0.00    -0.294 NA
ATOM     85  H   UNK A   0      12.048   1.327  23.046  0.00  0.00    +0.124 HD
ATOM     86  C   UNK A   0      11.555   0.871  24.980  0.00  0.00    +0.085 C 
ATOM     87  C   UNK A   0      10.869  -0.267  25.588  0.00  0.00    +0.047 C 
BRANCH  78  88
ATOM     88  N   UNK A   0      10.782   4.217  23.556  0.00  0.00    -0.286 N 
ATOM     89  H   UNK A   0      11.372   4.129  22.726  0.00  0.00    +0.155 HD
ATOM     90  C   UNK A   0      10.857   5.289  24.416  0.00  0.00    +0.218 C 
ATOM     91  O   UNK A   0      10.038   5.824  25.223  0.00  0.00    -0.275 OA
BRANCH  90  92
ATOM     92  C   UNK A   0      12.099   6.158  24.172  0.00  0.00    +0.107 C 
BRANCH  92  93
ATOM     93  C   UNK A   0      12.256   6.331  22.685  0.00  0.00    +0.129 C 
BRANCH  93  94
ATOM     94  C   UNK A   0      13.277   5.504  21.929  0.00  0.00    +0.305 C 
ATOM     95  O   UNK A   0      14.469   5.582  22.223  0.00  0.00    -0.251 OA
BRANCH  94  96
ATOM     96  O   UNK A   0      12.871   4.688  20.948  0.00  0.00    -0.481 OA
ATOM     97  H   UNK A   0      12.114   4.080  21.114  0.00  0.00    +0.295 HD
ENDBRANCH  94  96
ENDBRANCH  93  94
ENDBRANCH  92  93
ENDBRANCH  90  92
ENDBRANCH  78  88
BRANCH  81  98
ATOM     98  O   UNK A   0       4.606   1.469  20.975  0.00  0.00    -0.503 OA
ATOM     99  H   UNK A   0       5.015   1.018  20.184  0.00  0.00    +0.292 HD
ENDBRANCH  81  98
BRANCH  80 100
ATOM    100  O   UNK A   0       4.253   3.859  21.856  0.00  0.00    -0.503 OA
ATOM    101  H   UNK A   0       4.267   4.688  22.362  0.00  0.00    +0.292 HD
ENDBRANCH  80 100
ENDBRANCH  71  73
ENDBRANCH  68  69
BRANCH  68 102
ATOM    102  C   UNK A   1       7.666  -4.968  27.657  0.00  0.00    +0.187 C 
BRANCH 102 103
ATOM    103  O   UNK A   1       6.345  -5.455  27.905  0.00  0.00    -0.393 OA
ATOM    104  H   UNK A   1       5.986  -5.746  27.040  0.00  0.00    +0.209 HD
ENDBRANCH 102 103
ENDBRANCH  68 102
ENDBRANCH  66  68
ENDBRANCH  63  64
BRANCH  63 105
ATOM    105  C   UNK A   1       4.466  -4.176  22.810  0.00  0.00    +0.035 C 
BRANCH 105 106
ATOM    106  C   UNK A   1       5.566  -3.139  22.657  0.00  0.00    +0.039 C 
BRANCH 106 107
ATOM    107  C   UNK A   1       6.512  -3.536  21.527  0.00  0.00    +0.196 C 
BRANCH 107 108
ATOM    108  N   UNK A   1       5.894  -4.508  20.655  0.00  0.00    -0.276 N 
ATOM    109  H   UNK A   1       5.153  -4.143  20.071  0.00  0.00    +0.258 HD
ATOM    110  C   UNK A   1       6.062  -5.848  20.649  0.00  0.00    +0.376 C 
ATOM    111  N   UNK A   1       5.396  -6.639  19.886  0.00  0.00    -0.130 NA
ATOM    112  H   UNK A   1       4.751  -6.097  19.311  0.00  0.00    +0.306 HD
ATOM    113  N   UNK A   1       6.971  -6.371  21.486  0.00  0.00    -0.289 N 
ATOM    114  H   UNK A   1       7.152  -7.337  21.226  0.00  0.00    +0.255 HD
ATOM    115  H   UNK A   1       7.836  -5.856  21.553  0.00  0.00    +0.255 HD
ENDBRANCH 107 108
ENDBRANCH 106 107
ENDBRANCH 105 106
ENDBRANCH  63 105
ENDBRANCH  61  63
ENDBRANCH   1  59
BRANCH   1 116
ATOM    116  C   UNK A   1       2.352  -7.986  27.284  0.00  0.00    +0.187 C 
BRANCH 116 117
ATOM    117  O   UNK A   1       1.153  -8.627  26.835  0.00  0.00    -0.393 OA
ATOM    118  H   UNK A   1       1.430  -9.349  26.240  0.00  0.00    +0.209 HD
ENDBRANCH 116 117
ENDBRANCH   1 116
TORSDOF 39
ENDMDL
MODEL 5
REMARK VINA RESULT:       0.6      2.503      9.565
REMARK  Name = 
REMARK  41 active torsions:
REMARK  status: ('A' for Active; 'I' for Inactive)
REMARK    1  A    between atoms: C_1  and  C_2
REMARK    2  A    between atoms: C_2  and  O_4
REMARK    3  A    between atoms: C_2  and  C_5
REMARK    4  A    between atoms: C_10  and  C_103
REMARK    5  A    between atoms: C_15  and  C_17
REMARK    6  A    between atoms: C_17  and  C_18
REMARK    7  A    between atoms: C_18  and  C_19
REMARK    8  A    between atoms: C_19  and  N_20
REMARK    9  A    between atoms: N_20  and  O_21
REMARK   10  A    between atoms: C_27  and  N_36
REMARK   11  A    between atoms: C_37  and  C_39
REMARK   12  A    between atoms: C_39  and  C_41
REMARK   13  A    between atoms: C_39  and  N_48
REMARK   14  A    between atoms: C_41  and  C_42
REMARK   15  A    between atoms: C_42  and  C_43
REMARK   16  A    between atoms: C_43  and  N_44
REMARK   17  A    between atoms: N_44  and  O_45
REMARK   18  A    between atoms: C_49  and  C_51
REMARK   19  A    between atoms: C_51  and  C_53
REMARK   20  A    between atoms: C_51  and  N_55
REMARK   21  A    between atoms: C_53  and  O_54
REMARK   22  A    between atoms: C_56  and  C_58
REMARK   23  A    between atoms: C_58  and  C_60
REMARK   24  A    between atoms: C_58  and  N_67
REMARK   25  A    between atoms: C_60  and  C_61
REMARK   26  A    between atoms: C_61  and  C_62
REMARK   27  A    between atoms: C_62  and  N_63
REMARK   28  A    between atoms: C_68  and  C_70
REMARK   29  A    between atoms: C_70  and  C_72
REMARK   30  A    between atoms: C_70  and  N_74
REMARK   31  A    between atoms: C_72  and  O_73
REMARK   32  A    between atoms: C_75  and  C_77
REMARK   33  A    between atoms: C_87  and  O_88
REMARK   34  A    between atoms: C_89  and  O_90
REMARK   35  A    between atoms: C_94  and  N_95
REMARK   36  A    between atoms: C_96  and  C_98
REMARK   37  A    between atoms: C_98  and  C_99
REMARK   38  A    between atoms: C_99  and  C_100
REMARK   39  A    between atoms: C_100  and  O_101
REMARK   40  A    between atoms: C_103  and  C_105
REMARK   41  A    between atoms: C_103  and  O_106
REMARK                            x       y       z     vdW  Elec       q    Type
REMARK                         _______ _______ _______ _____ _____    ______ ____
ROOT
ATOM      1  C   UNK A   1       6.682   1.860  28.484  0.00  0.00    +0.184 C 
ENDROOT
BRANCH   1   4
ATOM      2  N   UNK A   1       4.240   1.934  28.897  0.00  0.00    -0.302 N 
ATOM      3  H   UNK A   1       4.303   2.686  28.216  0.00  0.00    +0.150 HD
ATOM      4  C   UNK A   1       5.395   1.174  28.984  0.00  0.00    +0.236 C 
ATOM      5  O   UNK A   1       5.441   0.019  29.378  0.00  0.00    -0.274 OA
BRANCH   2   6
ATOM      6  C   UNK A   1       2.867   1.492  29.231  0.00  0.00    +0.159 C 
BRANCH   6   9
ATOM      7  N   UNK A   1       3.747  -0.683  28.978  0.00  0.00    -0.302 N 
ATOM      8  H   UNK A   1       4.589  -0.181  28.813  0.00  0.00    +0.150 HD
ATOM      9  C   UNK A   1       2.684   0.011  29.477  0.00  0.00    +0.234 C 
ATOM     10  O   UNK A   1       1.691  -0.496  29.996  0.00  0.00    -0.274 OA
BRANCH   7  20
ATOM     11  C   UNK A   1       1.211  -7.248  24.400  0.00  0.00    +0.187 C 
ATOM     12  C   UNK A   1       1.423  -5.739  24.252  0.00  0.00    +0.236 C 
ATOM     13  O   UNK A   1       0.969  -5.501  23.110  0.00  0.00    -0.274 OA
ATOM     14  N   UNK A   1       2.009  -4.594  25.280  0.00  0.00    -0.314 N 
ATOM     15  H   UNK A   1       2.364  -4.988  26.150  0.00  0.00    +0.149 HD
ATOM     16  C   UNK A   1       1.895  -2.709  25.274  0.00  0.00    +0.104 C 
ATOM     17  C   UNK A   1       1.001  -1.689  26.027  0.00  0.00    +0.019 C 
ATOM     18  C   UNK A   1       1.949  -1.064  26.984  0.00  0.00    +0.004 C 
ATOM     19  C   UNK A   1       2.360  -2.189  27.916  0.00  0.00    +0.032 C 
ATOM     20  C   UNK A   1       3.717  -2.040  28.565  0.00  0.00    +0.159 C 
ATOM     21  C   UNK A   1       3.723  -3.312  29.458  0.00  0.00    +0.234 C 
ATOM     22  O   UNK A   1       3.044  -3.582  30.463  0.00  0.00    -0.274 OA
ATOM     23  N   UNK A   1       4.409  -4.359  28.923  0.00  0.00    -0.302 N 
ATOM     24  H   UNK A   1       5.105  -3.909  28.354  0.00  0.00    +0.150 HD
ATOM     25  C   UNK A   1       4.126  -5.765  28.621  0.00  0.00    +0.159 C 
ATOM     26  C   UNK A   1       5.236  -6.647  27.851  0.00  0.00    +0.234 C 
ATOM     27  O   UNK A   1       6.436  -6.355  27.908  0.00  0.00    -0.274 OA
ATOM     28  N   UNK A   1       4.827  -7.851  27.267  0.00  0.00    -0.300 N 
ATOM     29  H   UNK A   1       3.992  -8.185  27.739  0.00  0.00    +0.150 HD
ATOM     30  C   UNK A   1       4.551  -8.008  25.779  0.00  0.00    +0.187 C 
ATOM     31  C   UNK A   1       3.073  -7.679  25.750  0.00  0.00    +0.237 C 
ATOM     32  O   UNK A   1       2.424  -7.335  26.741  0.00  0.00    -0.274 OA
ATOM     33  N   UNK A   1       2.485  -7.838  24.552  0.00  0.00    -0.300 N 
ATOM     34  H   UNK A   1       3.037  -7.940  23.715  0.00  0.00    +0.150 HD
BRANCH  30  35
ATOM     35  C   UNK A   1       5.392  -7.151  24.820  0.00  0.00    +0.141 C 
ATOM     36  C   UNK A   1       5.519  -7.295  23.292  0.00  0.00    +0.040 C 
BRANCH  35  37
ATOM     37  O   UNK A   1       4.731  -5.934  24.913  0.00  0.00    -0.390 OA
ATOM     38  H   UNK A   1       4.145  -6.075  25.670  0.00  0.00    +0.210 HD
ENDBRANCH  35  37
ENDBRANCH  30  35
BRANCH  11  40
ATOM     39  C   UNK A   1       1.257  -7.546  21.660  0.00  0.00    +0.040 C 
ATOM     40  C   UNK A   1       0.543  -7.846  23.020  0.00  0.00    +0.141 C 
BRANCH  40  41
ATOM     41  O   UNK A   1       0.455  -9.277  23.110  0.00  0.00    -0.390 OA
ATOM     42  H   UNK A   1      -0.116  -9.564  22.373  0.00  0.00    +0.210 HD
ENDBRANCH  40  41
ENDBRANCH  11  40
BRANCH  25  43
ATOM     43  C   UNK A   1       3.780  -6.447  29.902  0.00  0.00    +0.033 C 
BRANCH  43  44
ATOM     44  C   UNK A   1       3.020  -7.727  29.599  0.00  0.00    +0.024 C 
BRANCH  44  45
ATOM     45  C   UNK A   1       1.698  -7.390  28.982  0.00  0.00    +0.139 C 
BRANCH  45  46
ATOM     46  N   UNK A   1       1.373  -5.975  29.053  0.00  0.00    -0.186 N 
ATOM     47  C   UNK A   1       0.697  -5.325  28.057  0.00  0.00    +0.352 C 
ATOM     48  O   UNK A   1       0.518  -5.743  26.919  0.00  0.00    -0.277 OA
BRANCH  46  49
ATOM     49  O   UNK A   1       1.118  -5.532  30.367  0.00  0.00    -0.293 OA
ATOM     50  H   UNK A   1       0.751  -6.334  30.783  0.00  0.00    +0.242 HD
ENDBRANCH  46  49
ENDBRANCH  45  46
ENDBRANCH  44  45
ENDBRANCH  43  44
ENDBRANCH  25  43
ENDBRANCH   7  20
ENDBRANCH   6   9
BRANCH   6  51
ATOM     51  C   UNK A   1       2.378   2.278  30.481  0.00  0.00    +0.033 C 
BRANCH  51  52
ATOM     52  C   UNK A   1       1.205   3.190  30.205  0.00  0.00    +0.024 C 
BRANCH  52  53
ATOM     53  C   UNK A   1       1.612   4.649  30.255  0.00  0.00    +0.139 C 
BRANCH  53  54
ATOM     54  N   UNK A   1       1.856   5.146  28.921  0.00  0.00    -0.186 N 
ATOM     55  C   UNK A   1       3.026   5.840  28.679  0.00  0.00    +0.352 C 
ATOM     56  O   UNK A   1       4.025   5.831  29.388  0.00  0.00    -0.277 OA
BRANCH  54  57
ATOM     57  O   UNK A   1       0.725   5.845  28.418  0.00  0.00    -0.293 OA
ATOM     58  H   UNK A   1       0.034   5.574  29.052  0.00  0.00    +0.242 HD
ENDBRANCH  54  57
ENDBRANCH  53  54
ENDBRANCH  52  53
ENDBRANCH  51  52
ENDBRANCH   6  51
ENDBRANCH   2   6
ENDBRANCH   1   4
BRANCH   1  59
ATOM     59  N   UNK A   1       7.115   1.225  27.204  0.00  0.00    -0.301 N 
ATOM     60  H   UNK A   1       6.357   1.055  26.555  0.00  0.00    +0.150 HD
ATOM     61  C   UNK A   1       8.154   0.314  27.176  0.00  0.00    +0.234 C 
ATOM     62  O   UNK A   1       8.843   0.095  28.174  0.00  0.00    -0.274 OA
BRANCH  61  63
ATOM     63  C   UNK A   1       8.472  -0.339  25.768  0.00  0.00    +0.159 C 
BRANCH  63  64
ATOM     64  N   UNK A   1       8.983   0.486  24.618  0.00  0.00    -0.302 N 
ATOM     65  H   UNK A   1       8.678   0.213  23.697  0.00  0.00    +0.150 HD
ATOM     66  C   UNK A   1       9.553   1.706  24.793  0.00  0.00    +0.236 C 
ATOM     67  O   UNK A   1      10.044   1.923  25.903  0.00  0.00    -0.274 OA
BRANCH  66  68
ATOM     68  C   UNK A   1       9.679   2.708  23.507  0.00  0.00    +0.184 C 
BRANCH  68  69
ATOM     69  N   UNK A   1       8.557   3.851  23.254  0.00  0.00    -0.301 N 
ATOM     70  H   UNK A   1       7.748   3.270  23.409  0.00  0.00    +0.150 HD
ATOM     71  C   UNK A   0       8.087   5.332  22.871  0.00  0.00    +0.234 C 
ATOM     72  O   UNK A   0       9.057   6.105  22.726  0.00  0.00    -0.274 OA
BRANCH  71  73
ATOM     73  C   UNK A   0       6.173   6.021  22.911  0.00  0.00    +0.162 C 
ATOM     74  N   UNK A   0       4.475   5.277  23.114  0.00  0.00    -0.297 N 
ATOM     75  C   UNK A   0       3.609   4.589  24.135  0.00  0.00    +0.043 A 
ATOM     76  C   UNK A   0       2.238   4.948  24.348  0.00  0.00    +0.001 A 
ATOM     77  C   UNK A   0       1.641   5.931  23.523  0.00  0.00    +0.032 C 
ATOM     78  C   UNK A   0       2.164   6.000  22.311  0.00  0.00    +0.046 C 
ATOM     79  C   UNK A   0       1.208   4.438  25.231  0.00  0.00    +0.059 A 
ATOM     80  C   UNK A   0       1.429   3.330  26.040  0.00  0.00    +0.159 A 
ATOM     81  C   UNK A   0       2.632   2.798  25.759  0.00  0.00    +0.160 A 
ATOM     82  C   UNK A   0       3.746   3.412  24.905  0.00  0.00    +0.073 A 
ATOM     83  C   UNK A   0       3.572   5.463  21.941  0.00  0.00    +0.188 C 
ATOM     84  N   UNK A   0       3.915   6.200  20.766  0.00  0.00    -0.294 NA
ATOM     85  H   UNK A   0       4.064   5.600  19.964  0.00  0.00    +0.124 HD
ATOM     86  C   UNK A   0       5.008   7.074  21.025  0.00  0.00    +0.085 C 
ATOM     87  C   UNK A   0       6.208   7.084  21.861  0.00  0.00    +0.047 C 
BRANCH  78  88
ATOM     88  N   UNK A   0       1.341   6.551  21.339  0.00  0.00    -0.286 N 
ATOM     89  H   UNK A   0       0.680   7.230  21.723  0.00  0.00    +0.155 HD
ATOM     90  C   UNK A   0       1.535   6.380  19.987  0.00  0.00    +0.218 C 
ATOM     91  O   UNK A   0       2.500   5.949  19.287  0.00  0.00    -0.275 OA
BRANCH  90  92
ATOM     92  C   UNK A   0       0.458   7.076  19.141  0.00  0.00    +0.107 C 
BRANCH  92  93
ATOM     93  C   UNK A   0       0.528   6.508  17.748  0.00  0.00    +0.129 C 
BRANCH  93  94
ATOM     94  C   UNK A   0       1.430   5.326  17.456  0.00  0.00    +0.305 C 
ATOM     95  O   UNK A   0       1.184   4.229  17.954  0.00  0.00    -0.251 OA
BRANCH  94  96
ATOM     96  O   UNK A   0       2.488   5.486  16.650  0.00  0.00    -0.481 OA
ATOM     97  H   UNK A   0       2.371   5.371  15.678  0.00  0.00    +0.295 HD
ENDBRANCH  94  96
ENDBRANCH  93  94
ENDBRANCH  92  93
ENDBRANCH  90  92
ENDBRANCH  78  88
BRANCH  81  98
ATOM     98  O   UNK A   0       2.686   1.566  26.408  0.00  0.00    -0.503 OA
ATOM     99  H   UNK A   0       1.775   1.171  26.506  0.00  0.00    +0.292 HD
ENDBRANCH  81  98
BRANCH  80 100
ATOM    100  O   UNK A   0       0.625   2.975  27.026  0.00  0.00    -0.503 OA
ATOM    101  H   UNK A   0      -0.076   3.642  27.111  0.00  0.00    +0.292 HD
ENDBRANCH  80 100
ENDBRANCH  71  73
ENDBRANCH  68  69
BRANCH  68 102
ATOM    102  C   UNK A   1      11.083   3.412  23.797  0.00  0.00    +0.187 C 
BRANCH 102 103
ATOM    103  O   UNK A   1      10.947   4.825  23.965  0.00  0.00    -0.393 OA
ATOM    104  H   UNK A   1      11.202   5.236  23.111  0.00  0.00    +0.209 HD
ENDBRANCH 102 103
ENDBRANCH  68 102
ENDBRANCH  66  68
ENDBRANCH  63  64
BRANCH  63 105
ATOM    105  C   UNK A   1       7.169  -1.039  25.285  0.00  0.00    +0.035 C 
BRANCH 105 106
ATOM    106  C   UNK A   1       6.817  -2.311  26.037  0.00  0.00    +0.039 C 
BRANCH 106 107
ATOM    107  C   UNK A   1       7.192  -3.536  25.207  0.00  0.00    +0.196 C 
BRANCH 107 108
ATOM    108  N   UNK A   1       8.600  -3.836  25.339  0.00  0.00    -0.276 N 
ATOM    109  H   UNK A   1       9.220  -3.160  24.913  0.00  0.00    +0.258 HD
ATOM    110  C   UNK A   1       9.171  -4.971  25.798  0.00  0.00    +0.376 C 
ATOM    111  N   UNK A   1      10.439  -5.174  25.794  0.00  0.00    -0.130 NA
ATOM    112  H   UNK A   1      10.914  -4.362  25.402  0.00  0.00    +0.306 HD
ATOM    113  N   UNK A   1       8.364  -5.930  26.280  0.00  0.00    -0.289 N 
ATOM    114  H   UNK A   1       8.919  -6.614  26.787  0.00  0.00    +0.255 HD
ATOM    115  H   UNK A   1       7.603  -5.598  26.855  0.00  0.00    +0.255 HD
ENDBRANCH 107 108
ENDBRANCH 106 107
ENDBRANCH 105 106
ENDBRANCH  63 105
ENDBRANCH  61  63
ENDBRANCH   1  59
BRANCH   1 116
ATOM    116  C   UNK A   1       6.382   3.352  28.295  0.00  0.00    +0.187 C 
BRANCH 116 117
ATOM    117  O   UNK A   1       5.986   3.645  26.950  0.00  0.00    -0.393 OA
ATOM    118  H   UNK A   1       5.785   4.600  26.921  0.00  0.00    +0.209 HD
ENDBRANCH 116 117
ENDBRANCH   1 116
TORSDOF 39
ENDMDL
MODEL 6
REMARK VINA RESULT:       1.4      2.414     11.208
REMARK  Name = 
REMARK  41 active torsions:
REMARK  status: ('A' for Active; 'I' for Inactive)
REMARK    1  A    between atoms: C_1  and  C_2
REMARK    2  A    between atoms: C_2  and  O_4
REMARK    3  A    between atoms: C_2  and  C_5
REMARK    4  A    between atoms: C_10  and  C_103
REMARK    5  A    between atoms: C_15  and  C_17
REMARK    6  A    between atoms: C_17  and  C_18
REMARK    7  A    between atoms: C_18  and  C_19
REMARK    8  A    between atoms: C_19  and  N_20
REMARK    9  A    between atoms: N_20  and  O_21
REMARK   10  A    between atoms: C_27  and  N_36
REMARK   11  A    between atoms: C_37  and  C_39
REMARK   12  A    between atoms: C_39  and  C_41
REMARK   13  A    between atoms: C_39  and  N_48
REMARK   14  A    between atoms: C_41  and  C_42
REMARK   15  A    between atoms: C_42  and  C_43
REMARK   16  A    between atoms: C_43  and  N_44
REMARK   17  A    between atoms: N_44  and  O_45
REMARK   18  A    between atoms: C_49  and  C_51
REMARK   19  A    between atoms: C_51  and  C_53
REMARK   20  A    between atoms: C_51  and  N_55
REMARK   21  A    between atoms: C_53  and  O_54
REMARK   22  A    between atoms: C_56  and  C_58
REMARK   23  A    between atoms: C_58  and  C_60
REMARK   24  A    between atoms: C_58  and  N_67
REMARK   25  A    between atoms: C_60  and  C_61
REMARK   26  A    between atoms: C_61  and  C_62
REMARK   27  A    between atoms: C_62  and  N_63
REMARK   28  A    between atoms: C_68  and  C_70
REMARK   29  A    between atoms: C_70  and  C_72
REMARK   30  A    between atoms: C_70  and  N_74
REMARK   31  A    between atoms: C_72  and  O_73
REMARK   32  A    between atoms: C_75  and  C_77
REMARK   33  A    between atoms: C_87  and  O_88
REMARK   34  A    between atoms: C_89  and  O_90
REMARK   35  A    between atoms: C_94  and  N_95
REMARK   36  A    between atoms: C_96  and  C_98
REMARK   37  A    between atoms: C_98  and  C_99
REMARK   38  A    between atoms: C_99  and  C_100
REMARK   39  A    between atoms: C_100  and  O_101
REMARK   40  A    between atoms: C_103  and  C_105
REMARK   41  A    between atoms: C_103  and  O_106
REMARK                            x       y       z     vdW  Elec       q    Type
REMARK                         _______ _______ _______ _____ _____    ______ ____
ROOT
ATOM      1  C   UNK A   1       8.609  -5.623  25.301  0.00  0.00    +0.184 C 
ENDROOT
BRANCH   1   4
ATOM      2  N   UNK A   1       6.827  -5.137  26.953  0.00  0.00    -0.302 N 
ATOM      3  H   UNK A   1       6.254  -5.162  26.113  0.00  0.00    +0.150 HD
ATOM      4  C   UNK A   1       8.108  -5.628  26.759  0.00  0.00    +0.236 C 
ATOM      5  O   UNK A   1       8.818  -6.088  27.640  0.00  0.00    -0.274 OA
BRANCH   2   6
ATOM      6  C   UNK A   1       6.080  -5.103  28.231  0.00  0.00    +0.159 C 
BRANCH   6   9
ATOM      7  N   UNK A   1       5.270  -2.967  27.636  0.00  0.00    -0.302 N 
ATOM      8  H   UNK A   1       5.998  -3.024  26.962  0.00  0.00    +0.150 HD
ATOM      9  C   UNK A   1       4.945  -4.106  28.313  0.00  0.00    +0.234 C 
ATOM     10  O   UNK A   1       3.908  -4.276  28.951  0.00  0.00    -0.274 OA
BRANCH   7  20
ATOM     11  C   UNK A   1       5.473   5.371  28.591  0.00  0.00    +0.187 C 
ATOM     12  C   UNK A   1       6.167   4.277  27.777  0.00  0.00    +0.236 C 
ATOM     13  O   UNK A   1       7.075   4.900  27.181  0.00  0.00    -0.274 OA
ATOM     14  N   UNK A   1       5.935   2.649  27.679  0.00  0.00    -0.314 N 
ATOM     15  H   UNK A   1       5.124   2.333  28.209  0.00  0.00    +0.149 HD
ATOM     16  C   UNK A   1       7.020   1.253  27.017  0.00  0.00    +0.104 C 
ATOM     17  C   UNK A   1       7.948   0.209  27.692  0.00  0.00    +0.019 C 
ATOM     18  C   UNK A   1       7.194  -1.060  27.523  0.00  0.00    +0.004 C 
ATOM     19  C   UNK A   1       5.931  -0.874  28.343  0.00  0.00    +0.032 C 
ATOM     20  C   UNK A   1       4.733  -1.680  27.895  0.00  0.00    +0.159 C 
ATOM     21  C   UNK A   1       3.714  -1.272  28.994  0.00  0.00    +0.234 C 
ATOM     22  O   UNK A   1       3.701  -1.544  30.207  0.00  0.00    -0.274 OA
ATOM     23  N   UNK A   1       2.846  -0.297  28.608  0.00  0.00    -0.302 N 
ATOM     24  H   UNK A   1       2.775  -0.436  27.615  0.00  0.00    +0.150 HD
ATOM     25  C   UNK A   1       2.433   1.013  29.118  0.00  0.00    +0.159 C 
ATOM     26  C   UNK A   1       1.420   1.917  28.246  0.00  0.00    +0.234 C 
ATOM     27  O   UNK A   1       0.645   1.403  27.433  0.00  0.00    -0.274 OA
ATOM     28  N   UNK A   1       1.317   3.276  28.561  0.00  0.00    -0.300 N 
ATOM     29  H   UNK A   1       1.592   3.417  29.530  0.00  0.00    +0.150 HD
ATOM     30  C   UNK A   1       2.013   4.375  27.772  0.00  0.00    +0.187 C 
ATOM     31  C   UNK A   1       3.318   4.462  28.536  0.00  0.00    +0.237 C 
ATOM     32  O   UNK A   1       3.612   3.728  29.484  0.00  0.00    -0.274 OA
ATOM     33  N   UNK A   1       4.138   5.449  28.138  0.00  0.00    -0.300 N 
ATOM     34  H   UNK A   1       3.986   5.925  27.263  0.00  0.00    +0.150 HD
BRANCH  30  35
ATOM     35  C   UNK A   1       2.197   4.139  26.264  0.00  0.00    +0.141 C 
ATOM     36  C   UNK A   1       2.633   2.841  25.560  0.00  0.00    +0.040 C 
BRANCH  35  37
ATOM     37  O   UNK A   1       0.885   4.247  25.823  0.00  0.00    -0.390 OA
ATOM     38  H   UNK A   1       0.448   4.670  26.577  0.00  0.00    +0.210 HD
ENDBRANCH  35  37
ENDBRANCH  30  35
BRANCH  11  40
ATOM     39  C   UNK A   1       7.587   7.106  28.935  0.00  0.00    +0.040 C 
ATOM     40  C   UNK A   1       6.191   6.820  28.287  0.00  0.00    +0.141 C 
BRANCH  40  41
ATOM     41  O   UNK A   1       6.377   6.978  26.871  0.00  0.00    -0.390 OA
ATOM     42  H   UNK A   1       7.259   7.377  26.753  0.00  0.00    +0.210 HD
ENDBRANCH  40  41
ENDBRANCH  11  40
BRANCH  25  43
ATOM     43  C   UNK A   1       1.843   0.811  30.475  0.00  0.00    +0.033 C 
BRANCH  43  44
ATOM     44  C   UNK A   1       0.731  -0.219  30.390  0.00  0.00    +0.024 C 
BRANCH  44  45
ATOM     45  C   UNK A   1       1.322  -1.595  30.396  0.00  0.00    +0.139 C 
BRANCH  45  46
ATOM     46  N   UNK A   1       0.520  -2.571  29.679  0.00  0.00    -0.186 N 
ATOM     47  C   UNK A   1       0.452  -2.606  28.313  0.00  0.00    +0.352 C 
ATOM     48  O   UNK A   1       0.814  -1.716  27.553  0.00  0.00    -0.277 OA
BRANCH  46  49
ATOM     49  O   UNK A   1       0.446  -3.816  30.336  0.00  0.00    -0.293 OA
ATOM     50  H   UNK A   1      -0.292  -3.675  30.957  0.00  0.00    +0.242 HD
ENDBRANCH  46  49
ENDBRANCH  45  46
ENDBRANCH  44  45
ENDBRANCH  43  44
ENDBRANCH  25  43
ENDBRANCH   7  20
ENDBRANCH   6   9
BRANCH   6  51
ATOM     51  C   UNK A   1       5.526  -6.526  28.525  0.00  0.00    +0.033 C 
BRANCH  51  52
ATOM     52  C   UNK A   1       4.486  -6.559  29.622  0.00  0.00    +0.024 C 
BRANCH  52  53
ATOM     53  C   UNK A   1       3.358  -7.514  29.289  0.00  0.00    +0.139 C 
BRANCH  53  54
ATOM     54  N   UNK A   1       2.201  -6.780  28.830  0.00  0.00    -0.186 N 
ATOM     55  C   UNK A   1       0.963  -7.389  28.902  0.00  0.00    +0.352 C 
ATOM     56  O   UNK A   1       0.683  -8.367  29.582  0.00  0.00    -0.277 OA
BRANCH  54  57
ATOM     57  O   UNK A   1       2.427  -6.214  27.547  0.00  0.00    -0.293 OA
ATOM     58  H   UNK A   1       2.156  -6.946  26.961  0.00  0.00    +0.242 HD
ENDBRANCH  54  57
ENDBRANCH  53  54
ENDBRANCH  52  53
ENDBRANCH  51  52
ENDBRANCH   6  51
ENDBRANCH   2   6
ENDBRANCH   1   4
BRANCH   1  59
ATOM     59  N   UNK A   1       7.458  -5.868  24.383  0.00  0.00    -0.301 N 
ATOM     60  H   UNK A   1       7.726  -5.989  23.414  0.00  0.00    +0.150 HD
ATOM     61  C   UNK A   1       6.231  -5.273  24.602  0.00  0.00    +0.234 C 
ATOM     62  O   UNK A   1       6.004  -4.629  25.629  0.00  0.00    -0.274 OA
BRANCH  61  63
ATOM     63  C   UNK A   1       5.111  -5.558  23.519  0.00  0.00    +0.159 C 
BRANCH  63  64
ATOM     64  N   UNK A   1       4.916  -4.650  22.335  0.00  0.00    -0.302 N 
ATOM     65  H   UNK A   1       3.966  -4.395  22.114  0.00  0.00    +0.150 HD
ATOM     66  C   UNK A   1       5.937  -3.947  21.779  0.00  0.00    +0.236 C 
ATOM     67  O   UNK A   1       7.070  -4.398  21.962  0.00  0.00    -0.274 OA
BRANCH  66  68
ATOM     68  C   UNK A   1       5.583  -2.681  20.807  0.00  0.00    +0.184 C 
BRANCH  68  69
ATOM     69  N   UNK A   1       6.174  -1.209  21.143  0.00  0.00    -0.301 N 
ATOM     70  H   UNK A   1       5.420  -0.676  20.741  0.00  0.00    +0.150 HD
ATOM     71  C   UNK A   0       7.288  -0.213  21.716  0.00  0.00    +0.234 C 
ATOM     72  O   UNK A   0       8.218  -0.829  22.278  0.00  0.00    -0.274 OA
BRANCH  71  73
ATOM     73  C   UNK A   0       7.125   1.811  21.838  0.00  0.00    +0.162 C 
ATOM     74  N   UNK A   0       7.944   3.175  22.812  0.00  0.00    -0.297 N 
ATOM     75  C   UNK A   0       9.267   3.876  22.966  0.00  0.00    +0.043 A 
ATOM     76  C   UNK A   0       9.377   5.303  23.036  0.00  0.00    +0.001 A 
ATOM     77  C   UNK A   0       8.201   6.091  23.040  0.00  0.00    +0.032 C 
ATOM     78  C   UNK A   0       7.150   5.481  23.560  0.00  0.00    +0.046 C 
ATOM     79  C   UNK A   0      10.503   6.201  23.203  0.00  0.00    +0.059 A 
ATOM     80  C   UNK A   0      11.787   5.721  23.425  0.00  0.00    +0.159 A 
ATOM     81  C   UNK A   0      11.751   4.385  23.576  0.00  0.00    +0.160 A 
ATOM     82  C   UNK A   0      10.574   3.446  23.289  0.00  0.00    +0.073 A 
ATOM     83  C   UNK A   0       7.023   3.941  23.701  0.00  0.00    +0.188 C 
ATOM     84  N   UNK A   0       5.612   3.727  23.781  0.00  0.00    -0.294 NA
ATOM     85  H   UNK A   0       5.338   3.291  24.653  0.00  0.00    +0.124 HD
ATOM     86  C   UNK A   0       5.147   3.027  22.632  0.00  0.00    +0.085 C 
ATOM     87  C   UNK A   0       5.649   2.009  21.711  0.00  0.00    +0.047 C 
BRANCH  78  88
ATOM     88  N   UNK A   0       6.153   6.319  24.038  0.00  0.00    -0.286 N 
ATOM     89  H   UNK A   0       6.216   7.264  23.653  0.00  0.00    +0.155 HD
ATOM     90  C   UNK A   0       5.070   5.880  24.766  0.00  0.00    +0.218 C 
ATOM     91  O   UNK A   0       4.572   4.736  24.994  0.00  0.00    -0.275 OA
BRANCH  90  92
ATOM     92  C   UNK A   0       4.138   7.025  25.191  0.00  0.00    +0.107 C 
BRANCH  92  93
ATOM     93  C   UNK A   0       3.022   7.107  24.183  0.00  0.00    +0.129 C 
BRANCH  93  94
ATOM     94  C   UNK A   0       2.742   5.935  23.264  0.00  0.00    +0.305 C 
ATOM     95  O   UNK A   0       3.667   5.396  22.659  0.00  0.00    -0.251 OA
BRANCH  94  96
ATOM     96  O   UNK A   0       1.486   5.492  23.122  0.00  0.00    -0.481 OA
ATOM     97  H   UNK A   0       1.300   4.787  22.459  0.00  0.00    +0.295 HD
ENDBRANCH  94  96
ENDBRANCH  93  94
ENDBRANCH  92  93
ENDBRANCH  90  92
ENDBRANCH  78  88
BRANCH  81  98
ATOM     98  O   UNK A   0      13.007   4.000  24.040  0.00  0.00    -0.503 OA
ATOM     99  H   UNK A   0      13.431   3.340  23.424  0.00  0.00    +0.292 HD
ENDBRANCH  81  98
BRANCH  80 100
ATOM    100  O   UNK A   0      12.871   6.471  23.341  0.00  0.00    -0.503 OA
ATOM    101  H   UNK A   0      12.650   7.284  22.859  0.00  0.00    +0.292 HD
ENDBRANCH  80 100
ENDBRANCH  71  73
ENDBRANCH  68  69
BRANCH  68 102
ATOM    102  C   UNK A   1       6.187  -3.180  19.414  0.00  0.00    +0.187 C 
BRANCH 102 103
ATOM    103  O   UNK A   1       5.252  -3.030  18.343  0.00  0.00    -0.393 OA
ATOM    104  H   UNK A   1       4.732  -3.861  18.307  0.00  0.00    +0.209 HD
ENDBRANCH 102 103
ENDBRANCH  68 102
ENDBRANCH  66  68
ENDBRANCH  63  64
BRANCH  63 105
ATOM    105  C   UNK A   1       3.751  -5.624  24.274  0.00  0.00    +0.035 C 
BRANCH 105 106
ATOM    106  C   UNK A   1       2.560  -5.121  23.476  0.00  0.00    +0.039 C 
BRANCH 106 107
ATOM    107  C   UNK A   1       1.293  -5.862  23.897  0.00  0.00    +0.196 C 
BRANCH 107 108
ATOM    108  N   UNK A   1       1.601  -6.916  24.837  0.00  0.00    -0.276 N 
ATOM    109  H   UNK A   1       1.704  -6.612  25.796  0.00  0.00    +0.258 HD
ATOM    110  C   UNK A   1       1.931  -8.199  24.573  0.00  0.00    +0.376 C 
ATOM    111  N   UNK A   1       2.274  -9.040  25.481  0.00  0.00    -0.130 NA
ATOM    112  H   UNK A   1       2.250  -8.587  26.394  0.00  0.00    +0.306 HD
ATOM    113  N   UNK A   1       1.899  -8.605  23.294  0.00  0.00    -0.289 N 
ATOM    114  H   UNK A   1       1.947  -9.620  23.262  0.00  0.00    +0.255 HD
ATOM    115  H   UNK A   1       1.109  -8.272  22.761  0.00  0.00    +0.255 HD
ENDBRANCH 107 108
ENDBRANCH 106 107
ENDBRANCH 105 106
ENDBRANCH  63 105
ENDBRANCH  61  63
ENDBRANCH   1  59
BRANCH   1 116
ATOM    116  C   UNK A   1       9.263  -4.264  25.029  0.00  0.00    +0.187 C 
BRANCH 116 117
ATOM    117  O   UNK A   1       8.768  -3.671  23.822  0.00  0.00    -0.393 OA
ATOM    118  H   UNK A   1       8.214  -4.348  23.388  0.00  0.00    +0.209 HD
ENDBRANCH 116 117
ENDBRANCH   1 116
TORSDOF 39
ENDMDL
MODEL 7
REMARK VINA RESULT:       1.9      2.408      5.907
REMARK  Name = 
REMARK  41 active torsions:
REMARK  status: ('A' for Active; 'I' for Inactive)
REMARK    1  A    between atoms: C_1  and  C_2
REMARK    2  A    between atoms: C_2  and  O_4
REMARK    3  A    between atoms: C_2  and  C_5
REMARK    4  A    between atoms: C_10  and  C_103
REMARK    5  A    between atoms: C_15  and  C_17
REMARK    6  A    between atoms: C_17  and  C_18
REMARK    7  A    between atoms: C_18  and  C_19
REMARK    8  A    between atoms: C_19  and  N_20
REMARK    9  A    between atoms: N_20  and  O_21
REMARK   10  A    between atoms: C_27  and  N_36
REMARK   11  A    between atoms: C_37  and  C_39
REMARK   12  A    between atoms: C_39  and  C_41
REMARK   13  A    between atoms: C_39  and  N_48
REMARK   14  A    between atoms: C_41  and  C_42
REMARK   15  A    between atoms: C_42  and  C_43
REMARK   16  A    between atoms: C_43  and  N_44
REMARK   17  A    between atoms: N_44  and  O_45
REMARK   18  A    between atoms: C_49  and  C_51
REMARK   19  A    between atoms: C_51  and  C_53
REMARK   20  A    between atoms: C_51  and  N_55
REMARK   21  A    between atoms: C_53  and  O_54
REMARK   22  A    between atoms: C_56  and  C_58
REMARK   23  A    between atoms: C_58  and  C_60
REMARK   24  A    between atoms: C_58  and  N_67
REMARK   25  A    between atoms: C_60  and  C_61
REMARK   26  A    between atoms: C_61  and  C_62
REMARK   27  A    between atoms: C_62  and  N_63
REMARK   28  A    between atoms: C_68  and  C_70
REMARK   29  A    between atoms: C_70  and  C_72
REMARK   30  A    between atoms: C_70  and  N_74
REMARK   31  A    between atoms: C_72  and  O_73
REMARK   32  A    between atoms: C_75  and  C_77
REMARK   33  A    between atoms: C_87  and  O_88
REMARK   34  A    between atoms: C_89  and  O_90
REMARK   35  A    between atoms: C_94  and  N_95
REMARK   36  A    between atoms: C_96  and  C_98
REMARK   37  A    between atoms: C_98  and  C_99
REMARK   38  A    between atoms: C_99  and  C_100
REMARK   39  A    between atoms: C_100  and  O_101
REMARK   40  A    between atoms: C_103  and  C_105
REMARK   41  A    between atoms: C_103  and  O_106
REMARK                            x       y       z     vdW  Elec       q    Type
REMARK                         _______ _______ _______ _____ _____    ______ ____
ROOT
ATOM      1  C   UNK A   1       7.138   6.406  25.961  0.00  0.00    +0.184 C 
ENDROOT
BRANCH   1   4
ATOM      2  N   UNK A   1       4.968   5.845  24.906  0.00  0.00    -0.302 N 
ATOM      3  H   UNK A   1       4.699   6.717  25.353  0.00  0.00    +0.150 HD
ATOM      4  C   UNK A   1       6.336   5.631  24.897  0.00  0.00    +0.236 C 
ATOM      5  O   UNK A   1       6.925   4.923  24.094  0.00  0.00    -0.274 OA
BRANCH   2   6
ATOM      6  C   UNK A   1       3.982   5.291  23.949  0.00  0.00    +0.159 C 
BRANCH   6   9
ATOM      7  N   UNK A   1       4.978   3.222  24.495  0.00  0.00    -0.302 N 
ATOM      8  H   UNK A   1       5.135   3.677  25.365  0.00  0.00    +0.150 HD
ATOM      9  C   UNK A   1       4.133   3.825  23.610  0.00  0.00    +0.234 C 
ATOM     10  O   UNK A   1       3.616   3.274  22.639  0.00  0.00    -0.274 OA
BRANCH   7  20
ATOM     11  C   UNK A   1       6.882  -4.945  24.891  0.00  0.00    +0.187 C 
ATOM     12  C   UNK A   1       5.649  -4.038  24.864  0.00  0.00    +0.236 C 
ATOM     13  O   UNK A   1       4.705  -4.838  25.057  0.00  0.00    -0.274 OA
ATOM     14  N   UNK A   1       5.473  -2.408  24.713  0.00  0.00    -0.314 N 
ATOM     15  H   UNK A   1       6.354  -1.930  24.528  0.00  0.00    +0.149 HD
ATOM     16  C   UNK A   1       4.028  -1.250  25.087  0.00  0.00    +0.104 C 
ATOM     17  C   UNK A   1       3.693  -0.307  26.272  0.00  0.00    +0.019 C 
ATOM     18  C   UNK A   1       3.885   1.043  25.682  0.00  0.00    +0.004 C 
ATOM     19  C   UNK A   1       5.365   1.118  25.355  0.00  0.00    +0.032 C 
ATOM     20  C   UNK A   1       5.742   2.056  24.232  0.00  0.00    +0.159 C 
ATOM     21  C   UNK A   1       7.287   1.898  24.263  0.00  0.00    +0.234 C 
ATOM     22  O   UNK A   1       8.108   2.267  25.121  0.00  0.00    -0.274 OA
ATOM     23  N   UNK A   1       7.773   1.038  23.327  0.00  0.00    -0.302 N 
ATOM     24  H   UNK A   1       7.099   1.104  22.584  0.00  0.00    +0.150 HD
ATOM     25  C   UNK A   1       8.634  -0.149  23.327  0.00  0.00    +0.159 C 
ATOM     26  C   UNK A   1       8.864  -0.958  21.950  0.00  0.00    +0.234 C 
ATOM     27  O   UNK A   1       8.741  -0.401  20.854  0.00  0.00    -0.274 OA
ATOM     28  N   UNK A   1       9.381  -2.255  22.031  0.00  0.00    -0.300 N 
ATOM     29  H   UNK A   1       9.898  -2.356  22.899  0.00  0.00    +0.150 HD
ATOM     30  C   UNK A   1       8.525  -3.508  21.913  0.00  0.00    +0.187 C 
ATOM     31  C   UNK A   1       8.179  -3.728  23.370  0.00  0.00    +0.237 C 
ATOM     32  O   UNK A   1       8.524  -2.972  24.283  0.00  0.00    -0.274 OA
ATOM     33  N   UNK A   1       7.495  -4.857  23.621  0.00  0.00    -0.300 N 
ATOM     34  H   UNK A   1       7.060  -5.374  22.874  0.00  0.00    +0.150 HD
BRANCH  30  35
ATOM     35  C   UNK A   1       7.295  -3.426  20.993  0.00  0.00    +0.141 C 
ATOM     36  C   UNK A   1       6.460  -4.591  20.432  0.00  0.00    +0.040 C 
BRANCH  35  37
ATOM     37  O   UNK A   1       6.374  -2.831  21.845  0.00  0.00    -0.390 OA
ATOM     38  H   UNK A   1       6.522  -3.308  22.674  0.00  0.00    +0.210 HD
ENDBRANCH  35  37
ENDBRANCH  30  35
BRANCH  11  40
ATOM     39  C   UNK A   1       5.068  -6.774  25.871  0.00  0.00    +0.040 C 
ATOM     40  C   UNK A   1       6.410  -6.506  25.113  0.00  0.00    +0.141 C 
BRANCH  40  41
ATOM     41  O   UNK A   1       6.277  -7.154  23.837  0.00  0.00    -0.390 OA
ATOM     42  H   UNK A   1       6.197  -8.109  24.021  0.00  0.00    +0.210 HD
ENDBRANCH  40  41
ENDBRANCH  11  40
BRANCH  25  43
ATOM     43  C   UNK A   1       9.964   0.250  23.874  0.00  0.00    +0.033 C 
BRANCH  43  44
ATOM     44  C   UNK A   1       9.909   1.701  24.317  0.00  0.00    +0.024 C 
BRANCH  44  45
ATOM     45  C   UNK A   1      10.872   2.509  23.503  0.00  0.00    +0.139 C 
BRANCH  45  46
ATOM     46  N   UNK A   1      10.485   3.903  23.368  0.00  0.00    -0.186 N 
ATOM     47  C   UNK A   1      11.393   4.925  23.401  0.00  0.00    +0.352 C 
ATOM     48  O   UNK A   1      12.550   4.845  23.795  0.00  0.00    -0.277 OA
BRANCH  46  49
ATOM     49  O   UNK A   1       9.374   4.088  22.520  0.00  0.00    -0.293 OA
ATOM     50  H   UNK A   1       9.801   4.243  21.657  0.00  0.00    +0.242 HD
ENDBRANCH  46  49
ENDBRANCH  45  46
ENDBRANCH  44  45
ENDBRANCH  43  44
ENDBRANCH  25  43
ENDBRANCH   7  20
ENDBRANCH   6   9
BRANCH   6  51
ATOM     51  C   UNK A   1       2.551   5.538  24.505  0.00  0.00    +0.033 C 
BRANCH  51  52
ATOM     52  C   UNK A   1       1.832   4.274  24.916  0.00  0.00    +0.024 C 
BRANCH  52  53
ATOM     53  C   UNK A   1       0.567   4.067  24.108  0.00  0.00    +0.139 C 
BRANCH  53  54
ATOM     54  N   UNK A   1       0.562   2.750  23.515  0.00  0.00    -0.186 N 
ATOM     55  C   UNK A   1       0.801   1.660  24.328  0.00  0.00    +0.352 C 
ATOM     56  O   UNK A   1       0.726   1.645  25.550  0.00  0.00    -0.277 OA
BRANCH  54  57
ATOM     57  O   UNK A   1       1.367   2.712  22.344  0.00  0.00    -0.293 OA
ATOM     58  H   UNK A   1       0.781   2.238  21.722  0.00  0.00    +0.242 HD
ENDBRANCH  54  57
ENDBRANCH  53  54
ENDBRANCH  52  53
ENDBRANCH  51  52
ENDBRANCH   6  51
ENDBRANCH   2   6
ENDBRANCH   1   4
BRANCH   1  59
ATOM     59  N   UNK A   1       7.300   5.553  27.175  0.00  0.00    -0.301 N 
ATOM     60  H   UNK A   1       7.559   4.596  26.971  0.00  0.00    +0.150 HD
ATOM     61  C   UNK A   1       6.507   5.742  28.291  0.00  0.00    +0.234 C 
ATOM     62  O   UNK A   1       5.735   6.699  28.375  0.00  0.00    -0.274 OA
BRANCH  61  63
ATOM     63  C   UNK A   1       6.732   4.729  29.488  0.00  0.00    +0.159 C 
BRANCH  63  64
ATOM     64  N   UNK A   1       7.240   3.332  29.248  0.00  0.00    -0.302 N 
ATOM     65  H   UNK A   1       7.924   2.983  29.900  0.00  0.00    +0.150 HD
ATOM     66  C   UNK A   1       6.612   2.461  28.416  0.00  0.00    +0.236 C 
ATOM     67  O   UNK A   1       5.903   2.961  27.540  0.00  0.00    -0.274 OA
BRANCH  66  68
ATOM     68  C   UNK A   1       6.956   0.868  28.540  0.00  0.00    +0.184 C 
BRANCH  68  69
ATOM     69  N   UNK A   1       5.764  -0.207  28.763  0.00  0.00    -0.301 N 
ATOM     70  H   UNK A   1       6.226  -0.998  28.343  0.00  0.00    +0.150 HD
ATOM     71  C   UNK A   0       4.299  -0.637  29.243  0.00  0.00    +0.234 C 
ATOM     72  O   UNK A   0       3.707   0.297  29.824  0.00  0.00    -0.274 OA
BRANCH  71  73
ATOM     73  C   UNK A   0       3.550  -2.528  29.231  0.00  0.00    +0.162 C 
ATOM     74  N   UNK A   0       4.115  -4.200  28.627  0.00  0.00    -0.297 N 
ATOM     75  C   UNK A   0       5.150  -5.258  28.899  0.00  0.00    +0.043 A 
ATOM     76  C   UNK A   0       4.824  -6.652  28.969  0.00  0.00    +0.001 A 
ATOM     77  C   UNK A   0       3.499  -7.071  28.696  0.00  0.00    +0.032 C 
ATOM     78  C   UNK A   0       2.850  -6.279  27.861  0.00  0.00    +0.046 C 
ATOM     79  C   UNK A   0       5.620  -7.844  29.189  0.00  0.00    +0.059 A 
ATOM     80  C   UNK A   0       7.003  -7.782  29.298  0.00  0.00    +0.159 A 
ATOM     81  C   UNK A   0       7.422  -6.530  29.044  0.00  0.00    +0.160 A 
ATOM     82  C   UNK A   0       6.562  -5.267  28.922  0.00  0.00    +0.073 A 
ATOM     83  C   UNK A   0       3.246  -4.806  27.576  0.00  0.00    +0.188 C 
ATOM     84  N   UNK A   0       2.036  -4.220  27.091  0.00  0.00    -0.294 NA
ATOM     85  H   UNK A   0       2.131  -3.865  26.148  0.00  0.00    +0.124 HD
ATOM     86  C   UNK A   0       1.547  -3.250  28.011  0.00  0.00    +0.085 C 
ATOM     87  C   UNK A   0       2.101  -2.283  28.957  0.00  0.00    +0.047 C 
BRANCH  78  88
ATOM     88  N   UNK A   0       1.788  -6.867  27.188  0.00  0.00    -0.286 N 
ATOM     89  H   UNK A   0       0.910  -6.802  27.707  0.00  0.00    +0.155 HD
ATOM     90  C   UNK A   0       1.853  -7.290  25.880  0.00  0.00    +0.218 C 
ATOM     91  O   UNK A   0       2.676  -7.094  24.935  0.00  0.00    -0.275 OA
BRANCH  90  92
ATOM     92  C   UNK A   0       0.543  -7.931  25.398  0.00  0.00    +0.107 C 
BRANCH  92  93
ATOM     93  C   UNK A   0       0.897  -9.055  24.461  0.00  0.00    +0.129 C 
BRANCH  93  94
ATOM     94  C   UNK A   0       1.155  -8.768  22.995  0.00  0.00    +0.305 C 
ATOM     95  O   UNK A   0       0.778  -9.566  22.138  0.00  0.00    -0.251 OA
BRANCH  94  96
ATOM     96  O   UNK A   0       1.788  -7.641  22.644  0.00  0.00    -0.481 OA
ATOM     97  H   UNK A   0       2.774  -7.623  22.652  0.00  0.00    +0.295 HD
ENDBRANCH  94  96
ENDBRANCH  93  94
ENDBRANCH  92  93
ENDBRANCH  90  92
ENDBRANCH  78  88
BRANCH  81  98
ATOM     98  O   UNK A   0       8.808  -6.588  28.921  0.00  0.00    -0.503 OA
ATOM     99  H   UNK A   0       9.111  -7.512  28.697  0.00  0.00    +0.292 HD
ENDBRANCH  81  98
BRANCH  80 100
ATOM    100  O   UNK A   0       7.745  -8.784  29.735  0.00  0.00    -0.503 OA
ATOM    101  H   UNK A   0       8.609  -8.747  29.294  0.00  0.00    +0.292 HD
ENDBRANCH  80 100
ENDBRANCH  71  73
ENDBRANCH  68  69
BRANCH  68 102
ATOM    102  C   UNK A   1       7.652   0.590  27.129  0.00  0.00    +0.187 C 
BRANCH 102 103
ATOM    103  O   UNK A   1       7.909  -0.802  26.926  0.00  0.00    -0.393 OA
ATOM    104  H   UNK A   1       7.116  -1.284  27.244  0.00  0.00    +0.209 HD
ENDBRANCH 102 103
ENDBRANCH  68 102
ENDBRANCH  66  68
ENDBRANCH  63  64
BRANCH  63 105
ATOM    105  C   UNK A   1       5.373   4.598  30.236  0.00  0.00    +0.035 C 
BRANCH 105 106
ATOM    106  C   UNK A   1       4.214   4.138  29.368  0.00  0.00    +0.039 C 
BRANCH 106 107
ATOM    107  C   UNK A   1       3.040   5.105  29.499  0.00  0.00    +0.196 C 
BRANCH 107 108
ATOM    108  N   UNK A   1       1.898   4.635  28.748  0.00  0.00    -0.276 N 
ATOM    109  H   UNK A   1       1.184   5.332  28.582  0.00  0.00    +0.258 HD
ATOM    110  C   UNK A   1       1.595   3.366  28.400  0.00  0.00    +0.376 C 
ATOM    111  N   UNK A   1       0.505   3.040  27.804  0.00  0.00    -0.130 NA
ATOM    112  H   UNK A   1      -0.061   3.873  27.646  0.00  0.00    +0.306 HD
ATOM    113  N   UNK A   1       2.483   2.404  28.697  0.00  0.00    -0.289 N 
ATOM    114  H   UNK A   1       2.241   1.556  28.192  0.00  0.00    +0.255 HD
ATOM    115  H   UNK A   1       3.448   2.649  28.533  0.00  0.00    +0.255 HD
ENDBRANCH 107 108
ENDBRANCH 106 107
ENDBRANCH 105 106
ENDBRANCH  63 105
ENDBRANCH  61  63
ENDBRANCH   1  59
BRANCH   1 116
ATOM    116  C   UNK A   1       8.496   6.780  25.354  0.00  0.00    +0.187 C 
BRANCH 116 117
ATOM    117  O   UNK A   1       8.441   6.820  23.923  0.00  0.00    -0.393 OA
ATOM    118  H   UNK A   1       8.233   7.742  23.678  0.00  0.00    +0.209 HD
ENDBRANCH 116 117
ENDBRANCH   1 116
TORSDOF 39
ENDMDL
