MODEL 1
REMARK VINA RESULT:      -6.8      0.000      0.000
REMARK  Name = 
REMARK  5 active torsions:
REMARK  status: ('A' for Active; 'I' for Inactive)
REMARK    1  A    between atoms: C_1  and  C_2
REMARK    2  A    between atoms: C_2  and  C_3
REMARK    3  A    between atoms: C_3  and  C_4
REMARK    4  A    between atoms: C_3  and  C_10
REMARK    5  A    between atoms: C_11  and  O_12
REMARK                            x       y       z     vdW  Elec       q    Type
REMARK                         _______ _______ _______ _____ _____    ______ ____
ROOT
ATOM      1  C   UNL     1       8.185  -2.467  24.281  0.00  0.00    +0.086 A 
ATOM      2  C   UNL     1       9.637  -2.445  23.927  0.00  0.00    +0.345 A 
ATOM      3  O   UNL     1      10.353  -3.428  24.096  0.00  0.00    -0.245 OA
ATOM      4  O   UNL     1      10.181  -1.259  23.458  0.00  0.00    -0.422 OA
ATOM      5  C   UNL     1       9.347  -0.225  22.999  0.00  0.00    +0.143 A 
ATOM      6  C   UNL     1       9.941   0.792  22.251  0.00  0.00    +0.047 A 
ATOM      7  C   UNL     1       9.127   1.763  21.669  0.00  0.00    +0.004 A 
ATOM      8  C   UNL     1       7.746   1.713  21.848  0.00  0.00    +0.001 A 
ATOM      9  C   UNL     1       7.178   0.709  22.641  0.00  0.00    +0.015 A 
ATOM     10  C   UNL     1       7.984  -0.270  23.236  0.00  0.00    +0.059 A 
ATOM     11  C   UNL     1       7.439  -1.373  24.024  0.00  0.00    +0.138 A 
ENDROOT
BRANCH  11  12
ATOM     12  O   UNL     1       6.124  -1.197  24.397  0.00  0.00    -0.506 OA
ATOM     13  H   UNL     1       5.568  -1.893  24.010  0.00  0.00    +0.292 HD
ENDBRANCH  11  12
BRANCH   1  14
ATOM     14  C   UNL     1       7.693  -3.813  24.838  0.00  0.00    +0.059 C 
BRANCH  14  15
ATOM     15  C   UNL     1       6.903  -4.651  23.815  0.00  0.00    -0.040 A 
ATOM     16  C   UNL     1       7.611  -5.379  22.838  0.00  0.00    +0.004 A 
ATOM     17  C   UNL     1       6.946  -6.037  21.803  0.00  0.00    +0.000 A 
ATOM     18  C   UNL     1       5.558  -6.014  21.744  0.00  0.00    +0.000 A 
ATOM     19  C   UNL     1       4.836  -5.377  22.747  0.00  0.00    +0.000 A 
ATOM     20  C   UNL     1       5.504  -4.720  23.785  0.00  0.00    +0.004 A 
ENDBRANCH  14  15
BRANCH  14  22
ATOM     21  C   UNL     1       7.154  -4.850  27.180  0.00  0.00    +0.005 C 
ATOM     22  C   UNL     1       7.055  -3.649  26.243  0.00  0.00    +0.010 C 
ENDBRANCH  14  22
ENDBRANCH   1  14
TORSDOF 4
ENDMDL
MODEL 2
REMARK VINA RESULT:      -6.4      2.008      2.304
REMARK  Name = 
REMARK  5 active torsions:
REMARK  status: ('A' for Active; 'I' for Inactive)
REMARK    1  A    between atoms: C_1  and  C_2
REMARK    2  A    between atoms: C_2  and  C_3
REMARK    3  A    between atoms: C_3  and  C_4
REMARK    4  A    between atoms: C_3  and  C_10
REMARK    5  A    between atoms: C_11  and  O_12
REMARK                            x       y       z     vdW  Elec       q    Type
REMARK                         _______ _______ _______ _____ _____    ______ ____
ROOT
ATOM      1  C   UNL     1       9.132  -1.682  24.400  0.00  0.00    +0.086 A 
ATOM      2  C   UNL     1      10.191  -1.380  23.389  0.00  0.00    +0.345 A 
ATOM      3  O   UNL     1      10.659  -2.257  22.669  0.00  0.00    -0.245 OA
ATOM      4  O   UNL     1      10.686  -0.087  23.324  0.00  0.00    -0.422 OA
ATOM      5  C   UNL     1       9.990   0.975  23.926  0.00  0.00    +0.143 A 
ATOM      6  C   UNL     1      10.354   2.270  23.559  0.00  0.00    +0.047 A 
ATOM      7  C   UNL     1       9.601   3.343  24.034  0.00  0.00    +0.004 A 
ATOM      8  C   UNL     1       8.509   3.111  24.870  0.00  0.00    +0.001 A 
ATOM      9  C   UNL     1       8.191   1.806  25.262  0.00  0.00    +0.015 A 
ATOM     10  C   UNL     1       8.943   0.720  24.796  0.00  0.00    +0.059 A 
ATOM     11  C   UNL     1       8.621  -0.667  25.126  0.00  0.00    +0.138 A 
ENDROOT
BRANCH  11  12
ATOM     12  O   UNL     1       7.730  -0.800  26.170  0.00  0.00    -0.506 OA
ATOM     13  H   UNL     1       6.852  -1.046  25.835  0.00  0.00    +0.292 HD
ENDBRANCH  11  12
BRANCH   1  14
ATOM     14  C   UNL     1       8.686  -3.153  24.425  0.00  0.00    +0.059 C 
BRANCH  14  15
ATOM     15  C   UNL     1       7.244  -3.369  23.928  0.00  0.00    -0.040 A 
ATOM     16  C   UNL     1       6.352  -4.111  24.727  0.00  0.00    +0.004 A 
ATOM     17  C   UNL     1       5.083  -4.457  24.264  0.00  0.00    +0.000 A 
ATOM     18  C   UNL     1       4.664  -4.039  23.006  0.00  0.00    +0.000 A 
ATOM     19  C   UNL     1       5.493  -3.231  22.238  0.00  0.00    +0.000 A 
ATOM     20  C   UNL     1       6.765  -2.882  22.705  0.00  0.00    +0.004 A 
ENDBRANCH  14  15
BRANCH  14  22
ATOM     21  C   UNL     1       9.837  -5.159  25.651  0.00  0.00    +0.005 C 
ATOM     22  C   UNL     1       9.072  -3.843  25.760  0.00  0.00    +0.010 C 
ENDBRANCH  14  22
ENDBRANCH   1  14
TORSDOF 4
ENDMDL
MODEL 3
REMARK VINA RESULT:      -6.3      1.492      5.895
REMARK  Name = 
REMARK  5 active torsions:
REMARK  status: ('A' for Active; 'I' for Inactive)
REMARK    1  A    between atoms: C_1  and  C_2
REMARK    2  A    between atoms: C_2  and  C_3
REMARK    3  A    between atoms: C_3  and  C_4
REMARK    4  A    between atoms: C_3  and  C_10
REMARK    5  A    between atoms: C_11  and  O_12
REMARK                            x       y       z     vdW  Elec       q    Type
REMARK                         _______ _______ _______ _____ _____    ______ ____
ROOT
ATOM      1  C   UNL     1       7.209  -1.834  24.563  0.00  0.00    +0.086 A 
ATOM      2  C   UNL     1       5.716  -1.783  24.560  0.00  0.00    +0.345 A 
ATOM      3  O   UNL     1       5.107  -0.779  24.920  0.00  0.00    -0.245 OA
ATOM      4  O   UNL     1       5.021  -2.927  24.199  0.00  0.00    -0.422 OA
ATOM      5  C   UNL     1       5.673  -3.976  23.528  0.00  0.00    +0.143 A 
ATOM      6  C   UNL     1       4.874  -4.938  22.912  0.00  0.00    +0.047 A 
ATOM      7  C   UNL     1       5.480  -5.918  22.129  0.00  0.00    +0.004 A 
ATOM      8  C   UNL     1       6.867  -5.930  21.979  0.00  0.00    +0.001 A 
ATOM      9  C   UNL     1       7.652  -4.982  22.644  0.00  0.00    +0.015 A 
ATOM     10  C   UNL     1       7.055  -3.995  23.439  0.00  0.00    +0.059 A 
ATOM     11  C   UNL     1       7.821  -2.946  24.108  0.00  0.00    +0.138 A 
ENDROOT
BRANCH  11  12
ATOM     12  O   UNL     1       9.177  -3.189  24.156  0.00  0.00    -0.506 OA
ATOM     13  H   UNL     1       9.441  -3.452  25.054  0.00  0.00    +0.292 HD
ENDBRANCH  11  12
BRANCH   1  14
ATOM     14  C   UNL     1       7.883  -0.531  25.026  0.00  0.00    +0.059 C 
BRANCH  14  15
ATOM     15  C   UNL     1       8.691   0.172  23.920  0.00  0.00    -0.040 A 
ATOM     16  C   UNL     1       9.774   0.996  24.285  0.00  0.00    +0.004 A 
ATOM     17  C   UNL     1      10.448   1.767  23.338  0.00  0.00    +0.000 A 
ATOM     18  C   UNL     1      10.079   1.703  22.000  0.00  0.00    +0.000 A 
ATOM     19  C   UNL     1       9.072   0.830  21.604  0.00  0.00    +0.000 A 
ATOM     20  C   UNL     1       8.399   0.056  22.554  0.00  0.00    +0.004 A 
ENDBRANCH  14  15
BRANCH  14  22
ATOM     21  C   UNL     1       7.884  -0.111  27.610  0.00  0.00    +0.005 C 
ATOM     22  C   UNL     1       8.589  -0.710  26.396  0.00  0.00    +0.010 C 
ENDBRANCH  14  22
ENDBRANCH   1  14
TORSDOF 4
ENDMDL
MODEL 4
REMARK VINA RESULT:      -6.2      1.472      1.650
REMARK  Name = 
REMARK  5 active torsions:
REMARK  status: ('A' for Active; 'I' for Inactive)
REMARK    1  A    between atoms: C_1  and  C_2
REMARK    2  A    between atoms: C_2  and  C_3
REMARK    3  A    between atoms: C_3  and  C_4
REMARK    4  A    between atoms: C_3  and  C_10
REMARK    5  A    between atoms: C_11  and  O_12
REMARK                            x       y       z     vdW  Elec       q    Type
REMARK                         _______ _______ _______ _____ _____    ______ ____
ROOT
ATOM      1  C   UNL     1       7.302  -2.065  24.782  0.00  0.00    +0.086 A 
ATOM      2  C   UNL     1       8.451  -1.893  25.721  0.00  0.00    +0.345 A 
ATOM      3  O   UNL     1       8.626  -2.653  26.669  0.00  0.00    -0.245 OA
ATOM      4  O   UNL     1       9.292  -0.805  25.537  0.00  0.00    -0.422 OA
ATOM      5  C   UNL     1       9.284  -0.095  24.324  0.00  0.00    +0.143 A 
ATOM      6  C   UNL     1      10.353   0.764  24.077  0.00  0.00    +0.047 A 
ATOM      7  C   UNL     1      10.447   1.384  22.832  0.00  0.00    +0.004 A 
ATOM      8  C   UNL     1       9.475   1.148  21.862  0.00  0.00    +0.001 A 
ATOM      9  C   UNL     1       8.386   0.318  22.148  0.00  0.00    +0.015 A 
ATOM     10  C   UNL     1       8.276  -0.307  23.397  0.00  0.00    +0.059 A 
ATOM     11  C   UNL     1       7.192  -1.229  23.730  0.00  0.00    +0.138 A 
ENDROOT
BRANCH  11  12
ATOM     12  O   UNL     1       6.133  -1.187  22.849  0.00  0.00    -0.506 OA
ATOM     13  H   UNL     1       6.442  -1.344  21.942  0.00  0.00    +0.292 HD
ENDBRANCH  11  12
BRANCH   1  14
ATOM     14  C   UNL     1       6.403  -3.272  25.102  0.00  0.00    +0.059 C 
BRANCH  14  15
ATOM     15  C   UNL     1       6.372  -4.331  23.985  0.00  0.00    -0.040 A 
ATOM     16  C   UNL     1       7.589  -4.874  23.527  0.00  0.00    +0.004 A 
ATOM     17  C   UNL     1       7.630  -5.728  22.424  0.00  0.00    +0.000 A 
ATOM     18  C   UNL     1       6.453  -6.086  21.778  0.00  0.00    +0.000 A 
ATOM     19  C   UNL     1       5.234  -5.634  22.268  0.00  0.00    +0.000 A 
ATOM     20  C   UNL     1       5.193  -4.780  23.376  0.00  0.00    +0.004 A 
ENDBRANCH  14  15
BRANCH  14  22
ATOM     21  C   UNL     1       4.671  -3.345  27.064  0.00  0.00    +0.005 C 
ATOM     22  C   UNL     1       5.032  -2.825  25.675  0.00  0.00    +0.010 C 
ENDBRANCH  14  22
ENDBRANCH   1  14
TORSDOF 4
ENDMDL
MODEL 5
REMARK VINA RESULT:      -6.2      1.437      3.743
REMARK  Name = 
REMARK  5 active torsions:
REMARK  status: ('A' for Active; 'I' for Inactive)
REMARK    1  A    between atoms: C_1  and  C_2
REMARK    2  A    between atoms: C_2  and  C_3
REMARK    3  A    between atoms: C_3  and  C_4
REMARK    4  A    between atoms: C_3  and  C_10
REMARK    5  A    between atoms: C_11  and  O_12
REMARK                            x       y       z     vdW  Elec       q    Type
REMARK                         _______ _______ _______ _____ _____    ______ ____
ROOT
ATOM      1  C   UNL     1       7.543  -3.070  23.553  0.00  0.00    +0.086 A 
ATOM      2  C   UNL     1       6.571  -2.066  23.024  0.00  0.00    +0.345 A 
ATOM      3  O   UNL     1       5.411  -2.371  22.762  0.00  0.00    -0.245 OA
ATOM      4  O   UNL     1       7.028  -0.781  22.770  0.00  0.00    -0.422 OA
ATOM      5  C   UNL     1       8.248  -0.338  23.310  0.00  0.00    +0.143 A 
ATOM      6  C   UNL     1       8.494   1.034  23.294  0.00  0.00    +0.047 A 
ATOM      7  C   UNL     1       9.631   1.522  23.937  0.00  0.00    +0.004 A 
ATOM      8  C   UNL     1      10.504   0.640  24.574  0.00  0.00    +0.001 A 
ATOM      9  C   UNL     1      10.259  -0.737  24.537  0.00  0.00    +0.015 A 
ATOM     10  C   UNL     1       9.124  -1.241  23.889  0.00  0.00    +0.059 A 
ATOM     11  C   UNL     1       8.789  -2.663  23.869  0.00  0.00    +0.138 A 
ENDROOT
BRANCH  11  12
ATOM     12  O   UNL     1       9.825  -3.487  24.255  0.00  0.00    -0.506 OA
ATOM     13  H   UNL     1      10.679  -3.072  24.050  0.00  0.00    +0.292 HD
ENDBRANCH  11  12
BRANCH   1  14
ATOM     14  C   UNL     1       6.950  -4.475  23.753  0.00  0.00    +0.059 C 
BRANCH  14  15
ATOM     15  C   UNL     1       6.666  -4.820  25.227  0.00  0.00    -0.040 A 
ATOM     16  C   UNL     1       5.391  -4.545  25.759  0.00  0.00    +0.004 A 
ATOM     17  C   UNL     1       5.125  -4.703  27.119  0.00  0.00    +0.000 A 
ATOM     18  C   UNL     1       6.116  -5.176  27.971  0.00  0.00    +0.000 A 
ATOM     19  C   UNL     1       7.354  -5.539  27.452  0.00  0.00    +0.000 A 
ATOM     20  C   UNL     1       7.619  -5.382  26.088  0.00  0.00    +0.004 A 
ENDBRANCH  14  15
BRANCH  14  22
ATOM     21  C   UNL     1       7.143  -5.875  21.550  0.00  0.00    +0.005 C 
ATOM     22  C   UNL     1       7.715  -5.540  22.924  0.00  0.00    +0.010 C 
ENDBRANCH  14  22
ENDBRANCH   1  14
TORSDOF 4
ENDMDL
MODEL 6
REMARK VINA RESULT:      -6.2      1.674      3.565
REMARK  Name = 
REMARK  5 active torsions:
REMARK  status: ('A' for Active; 'I' for Inactive)
REMARK    1  A    between atoms: C_1  and  C_2
REMARK    2  A    between atoms: C_2  and  C_3
REMARK    3  A    between atoms: C_3  and  C_4
REMARK    4  A    between atoms: C_3  and  C_10
REMARK    5  A    between atoms: C_11  and  O_12
REMARK                            x       y       z     vdW  Elec       q    Type
REMARK                         _______ _______ _______ _____ _____    ______ ____
ROOT
ATOM      1  C   UNL     1       6.777  -1.386  23.557  0.00  0.00    +0.086 A 
ATOM      2  C   UNL     1       6.115  -0.252  24.270  0.00  0.00    +0.345 A 
ATOM      3  O   UNL     1       5.216  -0.443  25.084  0.00  0.00    -0.245 OA
ATOM      4  O   UNL     1       6.496   1.041  23.943  0.00  0.00    -0.422 OA
ATOM      5  C   UNL     1       7.690   1.276  23.239  0.00  0.00    +0.143 A 
ATOM      6  C   UNL     1       8.178   2.581  23.224  0.00  0.00    +0.047 A 
ATOM      7  C   UNL     1       9.423   2.829  22.648  0.00  0.00    +0.004 A 
ATOM      8  C   UNL     1      10.154   1.780  22.091  0.00  0.00    +0.001 A 
ATOM      9  C   UNL     1       9.622   0.486  22.077  0.00  0.00    +0.015 A 
ATOM     10  C   UNL     1       8.370   0.224  22.647  0.00  0.00    +0.059 A 
ATOM     11  C   UNL     1       7.793  -1.117  22.712  0.00  0.00    +0.138 A 
ENDROOT
BRANCH  11  12
ATOM     12  O   UNL     1       8.421  -2.035  21.898  0.00  0.00    -0.506 OA
ATOM     13  H   UNL     1       9.374  -2.055  22.085  0.00  0.00    +0.292 HD
ENDBRANCH  11  12
BRANCH   1  14
ATOM     14  C   UNL     1       6.248  -2.774  23.955  0.00  0.00    +0.059 C 
BRANCH  14  15
ATOM     15  C   UNL     1       7.296  -3.653  24.664  0.00  0.00    -0.040 A 
ATOM     16  C   UNL     1       7.667  -3.338  25.986  0.00  0.00    +0.004 A 
ATOM     17  C   UNL     1       8.710  -4.010  26.623  0.00  0.00    +0.000 A 
ATOM     18  C   UNL     1       9.381  -5.035  25.967  0.00  0.00    +0.000 A 
ATOM     19  C   UNL     1       8.972  -5.422  24.696  0.00  0.00    +0.000 A 
ATOM     20  C   UNL     1       7.924  -4.750  24.059  0.00  0.00    +0.004 A 
ENDBRANCH  14  15
BRANCH  14  22
ATOM     21  C   UNL     1       4.361  -4.422  23.196  0.00  0.00    +0.005 C 
ATOM     22  C   UNL     1       5.455  -3.435  22.797  0.00  0.00    +0.010 C 
ENDBRANCH  14  22
ENDBRANCH   1  14
TORSDOF 4
ENDMDL
MODEL 7
REMARK VINA RESULT:      -6.2      1.045      2.986
REMARK  Name = 
REMARK  5 active torsions:
REMARK  status: ('A' for Active; 'I' for Inactive)
REMARK    1  A    between atoms: C_1  and  C_2
REMARK    2  A    between atoms: C_2  and  C_3
REMARK    3  A    between atoms: C_3  and  C_4
REMARK    4  A    between atoms: C_3  and  C_10
REMARK    5  A    between atoms: C_11  and  O_12
REMARK                            x       y       z     vdW  Elec       q    Type
REMARK                         _______ _______ _______ _____ _____    ______ ____
ROOT
ATOM      1  C   UNL     1       7.803  -2.790  23.768  0.00  0.00    +0.086 A 
ATOM      2  C   UNL     1       9.261  -2.887  24.082  0.00  0.00    +0.345 A 
ATOM      3  O   UNL     1       9.770  -3.944  24.444  0.00  0.00    -0.245 OA
ATOM      4  O   UNL     1      10.024  -1.732  24.018  0.00  0.00    -0.422 OA
ATOM      5  C   UNL     1       9.540  -0.593  23.351  0.00  0.00    +0.143 A 
ATOM      6  C   UNL     1      10.461   0.408  23.042  0.00  0.00    +0.047 A 
ATOM      7  C   UNL     1      10.045   1.490  22.268  0.00  0.00    +0.004 A 
ATOM      8  C   UNL     1       8.725   1.563  21.824  0.00  0.00    +0.001 A 
ATOM      9  C   UNL     1       7.809   0.570  22.186  0.00  0.00    +0.015 A 
ATOM     10  C   UNL     1       8.211  -0.520  22.968  0.00  0.00    +0.059 A 
ATOM     11  C   UNL     1       7.312  -1.614  23.326  0.00  0.00    +0.138 A 
ENDROOT
BRANCH  11  12
ATOM     12  O   UNL     1       5.979  -1.336  23.108  0.00  0.00    -0.506 OA
ATOM     13  H   UNL     1       5.576  -2.027  22.557  0.00  0.00    +0.292 HD
ENDBRANCH  11  12
BRANCH   1  14
ATOM     14  C   UNL     1       7.037  -4.115  23.916  0.00  0.00    +0.059 C 
BRANCH  14  15
ATOM     15  C   UNL     1       6.598  -4.415  25.362  0.00  0.00    -0.040 A 
ATOM     16  C   UNL     1       5.583  -3.629  25.943  0.00  0.00    +0.004 A 
ATOM     17  C   UNL     1       5.247  -3.762  27.290  0.00  0.00    +0.000 A 
ATOM     18  C   UNL     1       5.891  -4.709  28.077  0.00  0.00    +0.000 A 
ATOM     19  C   UNL     1       6.832  -5.556  27.503  0.00  0.00    +0.000 A 
ATOM     20  C   UNL     1       7.166  -5.423  26.151  0.00  0.00    +0.004 A 
ENDBRANCH  14  15
BRANCH  14  22
ATOM     21  C   UNL     1       7.117  -5.678  21.818  0.00  0.00    +0.005 C 
ATOM     22  C   UNL     1       7.739  -5.268  23.150  0.00  0.00    +0.010 C 
ENDBRANCH  14  22
ENDBRANCH   1  14
TORSDOF 4
ENDMDL
MODEL 8
REMARK VINA RESULT:      -6.1      1.349      2.316
REMARK  Name = 
REMARK  5 active torsions:
REMARK  status: ('A' for Active; 'I' for Inactive)
REMARK    1  A    between atoms: C_1  and  C_2
REMARK    2  A    between atoms: C_2  and  C_3
REMARK    3  A    between atoms: C_3  and  C_4
REMARK    4  A    between atoms: C_3  and  C_10
REMARK    5  A    between atoms: C_11  and  O_12
REMARK                            x       y       z     vdW  Elec       q    Type
REMARK                         _______ _______ _______ _____ _____    ______ ____
ROOT
ATOM      1  C   UNL     1       8.264  -2.244  23.413  0.00  0.00    +0.086 A 
ATOM      2  C   UNL     1       7.132  -1.577  24.125  0.00  0.00    +0.345 A 
ATOM      3  O   UNL     1       6.431  -2.186  24.928  0.00  0.00    -0.245 OA
ATOM      4  O   UNL     1       6.844  -0.258  23.809  0.00  0.00    -0.422 OA
ATOM      5  C   UNL     1       7.780   0.531  23.118  0.00  0.00    +0.143 A 
ATOM      6  C   UNL     1       7.578   1.910  23.115  0.00  0.00    +0.047 A 
ATOM      7  C   UNL     1       8.553   2.734  22.554  0.00  0.00    +0.004 A 
ATOM      8  C   UNL     1       9.703   2.173  22.000  0.00  0.00    +0.001 A 
ATOM      9  C   UNL     1       9.862   0.784  21.973  0.00  0.00    +0.015 A 
ATOM     10  C   UNL     1       8.888  -0.056  22.529  0.00  0.00    +0.059 A 
ATOM     11  C   UNL     1       9.030  -1.509  22.581  0.00  0.00    +0.138 A 
ENDROOT
BRANCH  11  12
ATOM     12  O   UNL     1      10.030  -2.002  21.770  0.00  0.00    -0.506 OA
ATOM     13  H   UNL     1      10.899  -1.720  22.097  0.00  0.00    +0.292 HD
ENDBRANCH  11  12
BRANCH   1  14
ATOM     14  C   UNL     1       8.469  -3.718  23.799  0.00  0.00    +0.059 C 
BRANCH  14  15
ATOM     15  C   UNL     1       7.342  -4.646  23.307  0.00  0.00    -0.040 A 
ATOM     16  C   UNL     1       7.184  -4.853  21.923  0.00  0.00    +0.004 A 
ATOM     17  C   UNL     1       6.096  -5.565  21.417  0.00  0.00    +0.000 A 
ATOM     18  C   UNL     1       5.163  -6.118  22.286  0.00  0.00    +0.000 A 
ATOM     19  C   UNL     1       5.348  -6.003  23.658  0.00  0.00    +0.000 A 
ATOM     20  C   UNL     1       6.440  -5.291  24.165  0.00  0.00    +0.004 A 
ENDBRANCH  14  15
BRANCH  14  22
ATOM     21  C   UNL     1       9.811  -5.037  25.618  0.00  0.00    +0.005 C 
ATOM     22  C   UNL     1       8.892  -3.865  25.284  0.00  0.00    +0.010 C 
ENDBRANCH  14  22
ENDBRANCH   1  14
TORSDOF 4
ENDMDL
MODEL 9
REMARK VINA RESULT:      -6.0      1.550      5.668
REMARK  Name = 
REMARK  5 active torsions:
REMARK  status: ('A' for Active; 'I' for Inactive)
REMARK    1  A    between atoms: C_1  and  C_2
REMARK    2  A    between atoms: C_2  and  C_3
REMARK    3  A    between atoms: C_3  and  C_4
REMARK    4  A    between atoms: C_3  and  C_10
REMARK    5  A    between atoms: C_11  and  O_12
REMARK                            x       y       z     vdW  Elec       q    Type
REMARK                         _______ _______ _______ _____ _____    ______ ____
ROOT
ATOM      1  C   UNL     1       7.689  -1.809  24.053  0.00  0.00    +0.086 A 
ATOM      2  C   UNL     1       8.866  -2.645  23.666  0.00  0.00    +0.345 A 
ATOM      3  O   UNL     1      10.013  -2.311  23.951  0.00  0.00    -0.245 OA
ATOM      4  O   UNL     1       8.640  -3.786  22.912  0.00  0.00    -0.422 OA
ATOM      5  C   UNL     1       7.348  -4.331  22.813  0.00  0.00    +0.143 A 
ATOM      6  C   UNL     1       7.237  -5.632  22.324  0.00  0.00    +0.047 A 
ATOM      7  C   UNL     1       5.989  -6.253  22.334  0.00  0.00    +0.004 A 
ATOM      8  C   UNL     1       4.875  -5.568  22.819  0.00  0.00    +0.001 A 
ATOM      9  C   UNL     1       5.003  -4.247  23.262  0.00  0.00    +0.015 A 
ATOM     10  C   UNL     1       6.250  -3.610  23.252  0.00  0.00    +0.059 A 
ATOM     11  C   UNL     1       6.451  -2.254  23.756  0.00  0.00    +0.138 A 
ENDROOT
BRANCH  11  12
ATOM     12  O   UNL     1       5.282  -1.547  23.942  0.00  0.00    -0.506 OA
ATOM     13  H   UNL     1       5.162  -0.900  23.228  0.00  0.00    +0.292 HD
ENDBRANCH  11  12
BRANCH   1  14
ATOM     14  C   UNL     1       8.052  -0.540  24.844  0.00  0.00    +0.059 C 
BRANCH  14  15
ATOM     15  C   UNL     1       8.813   0.508  24.012  0.00  0.00    -0.040 A 
ATOM     16  C   UNL     1       8.439   0.716  22.669  0.00  0.00    +0.004 A 
ATOM     17  C   UNL     1       9.183   1.546  21.831  0.00  0.00    +0.000 A 
ATOM     18  C   UNL     1      10.295   2.216  22.326  0.00  0.00    +0.000 A 
ATOM     19  C   UNL     1      10.630   2.097  23.669  0.00  0.00    +0.000 A 
ATOM     20  C   UNL     1       9.881   1.266  24.510  0.00  0.00    +0.004 A 
ENDBRANCH  14  15
BRANCH  14  22
ATOM     21  C   UNL     1       7.966  -0.244  27.443  0.00  0.00    +0.005 C 
ATOM     22  C   UNL     1       8.643  -0.886  26.236  0.00  0.00    +0.010 C 
ENDBRANCH  14  22
ENDBRANCH   1  14
TORSDOF 4
ENDMDL
