MODEL 1
REMARK VINA RESULT:      -6.0      0.000      0.000
REMARK  Name = 
REMARK  8 active torsions:
REMARK  status: ('A' for Active; 'I' for Inactive)
REMARK    1  A    between atoms: C_1  and  N_2
REMARK    2  A    between atoms: N_2  and  N_3
REMARK    3  A    between atoms: N_3  and  C_4
REMARK    4  A    between atoms: C_4  and  C_5
REMARK    5  A    between atoms: C_8  and  C_11
REMARK    6  A    between atoms: N_13  and  C_14
REMARK    7  A    between atoms: C_14  and  C_15
REMARK    8  A    between atoms: C_14  and  C_16
REMARK                            x       y       z     vdW  Elec       q    Type
REMARK                         _______ _______ _______ _____ _____    ______ ____
ROOT
ATOM      1  C   UNL     1       9.992  -0.554  22.990  0.00  0.00    -0.032 A 
ATOM      2  C   UNL     1      10.396  -0.016  24.221  0.00  0.00    +0.005 A 
ATOM      3  C   UNL     1      10.587   1.363  24.371  0.00  0.00    +0.013 A 
ATOM      4  C   UNL     1      10.392   2.222  23.284  0.00  0.00    +0.037 A 
ATOM      5  C   UNL     1       9.958   1.695  22.062  0.00  0.00    +0.013 A 
ATOM      6  C   UNL     1       9.756   0.321  21.918  0.00  0.00    +0.005 A 
ENDROOT
BRANCH   4   7
ATOM      7  C   UNL     1      10.607   3.694  23.378  0.00  0.00    +0.244 C 
ATOM      8  N   UNL     1      11.867   4.154  23.047  0.00  0.00    -0.309 N 
ATOM      9  H   UNL     1      12.497   3.526  22.567  0.00  0.00    +0.149 HD
ATOM     10  O   UNL     1       9.683   4.432  23.698  0.00  0.00    -0.270 OA
BRANCH   8  11
ATOM     11  C   UNL     1      12.162   5.579  22.980  0.00  0.00    +0.067 C 
ATOM     12  C   UNL     1      13.382   5.841  22.099  0.00  0.00    +0.027 C 
ATOM     13  C   UNL     1      12.383   6.133  24.383  0.00  0.00    +0.027 C 
ENDBRANCH   8  11
ENDBRANCH   4   7
BRANCH   1  14
ATOM     14  C   UNL     1       9.811  -2.048  22.820  0.00  0.00    +0.133 C 
BRANCH  14  15
ATOM     15  N   UNL     1       9.027  -2.615  23.931  0.00  0.00    -0.253 NA
ATOM     16  H   UNL     1       8.957  -1.893  24.653  0.00  0.00    +0.141 HD
BRANCH  15  18
ATOM     17  C   UNL     1       8.721  -4.872  24.567  0.00  0.00    +0.120 C 
ATOM     18  N   UNL     1       9.703  -3.790  24.456  0.00  0.00    -0.259 NA
ATOM     19  H   UNL     1      10.434  -4.102  23.809  0.00  0.00    +0.140 HD
ENDBRANCH  15  18
ENDBRANCH  14  15
ENDBRANCH   1  14
TORSDOF 5
ENDMDL
MODEL 2
REMARK VINA RESULT:      -6.0      2.492      7.639
REMARK  Name = 
REMARK  8 active torsions:
REMARK  status: ('A' for Active; 'I' for Inactive)
REMARK    1  A    between atoms: C_1  and  N_2
REMARK    2  A    between atoms: N_2  and  N_3
REMARK    3  A    between atoms: N_3  and  C_4
REMARK    4  A    between atoms: C_4  and  C_5
REMARK    5  A    between atoms: C_8  and  C_11
REMARK    6  A    between atoms: N_13  and  C_14
REMARK    7  A    between atoms: C_14  and  C_15
REMARK    8  A    between atoms: C_14  and  C_16
REMARK                            x       y       z     vdW  Elec       q    Type
REMARK                         _______ _______ _______ _____ _____    ______ ____
ROOT
ATOM      1  C   UNL     1      10.039   0.916  22.520  0.00  0.00    -0.032 A 
ATOM      2  C   UNL     1      10.240   0.513  23.849  0.00  0.00    +0.005 A 
ATOM      3  C   UNL     1       9.965  -0.800  24.247  0.00  0.00    +0.013 A 
ATOM      4  C   UNL     1       9.469  -1.726  23.322  0.00  0.00    +0.037 A 
ATOM      5  C   UNL     1       9.297  -1.339  21.988  0.00  0.00    +0.013 A 
ATOM      6  C   UNL     1       9.584  -0.031  21.590  0.00  0.00    +0.005 A 
ENDROOT
BRANCH   4   7
ATOM      7  C   UNL     1       9.133  -3.129  23.695  0.00  0.00    +0.244 C 
ATOM      8  N   UNL     1       7.964  -3.644  23.165  0.00  0.00    -0.309 N 
ATOM      9  H   UNL     1       7.521  -3.145  22.407  0.00  0.00    +0.149 HD
ATOM     10  O   UNL     1       9.893  -3.777  24.406  0.00  0.00    -0.270 OA
BRANCH   8  11
ATOM     11  C   UNL     1       7.595  -5.040  23.356  0.00  0.00    +0.067 C 
ATOM     12  C   UNL     1       7.190  -5.681  22.030  0.00  0.00    +0.027 C 
ATOM     13  C   UNL     1       6.463  -5.146  24.372  0.00  0.00    +0.027 C 
ENDBRANCH   8  11
ENDBRANCH   4   7
BRANCH   1  14
ATOM     14  C   UNL     1      10.312   2.344  22.095  0.00  0.00    +0.133 C 
BRANCH  14  15
ATOM     15  N   UNL     1      10.524   3.213  23.265  0.00  0.00    -0.253 NA
ATOM     16  H   UNL     1       9.646   3.709  23.439  0.00  0.00    +0.141 HD
BRANCH  15  18
ATOM     17  C   UNL     1      11.232   5.447  23.585  0.00  0.00    +0.120 C 
ATOM     18  N   UNL     1      11.592   4.160  22.984  0.00  0.00    -0.259 NA
ATOM     19  H   UNL     1      12.467   3.851  23.417  0.00  0.00    +0.140 HD
ENDBRANCH  15  18
ENDBRANCH  14  15
ENDBRANCH   1  14
TORSDOF 5
ENDMDL
MODEL 3
REMARK VINA RESULT:      -5.9      3.208      7.545
REMARK  Name = 
REMARK  8 active torsions:
REMARK  status: ('A' for Active; 'I' for Inactive)
REMARK    1  A    between atoms: C_1  and  N_2
REMARK    2  A    between atoms: N_2  and  N_3
REMARK    3  A    between atoms: N_3  and  C_4
REMARK    4  A    between atoms: C_4  and  C_5
REMARK    5  A    between atoms: C_8  and  C_11
REMARK    6  A    between atoms: N_13  and  C_14
REMARK    7  A    between atoms: C_14  and  C_15
REMARK    8  A    between atoms: C_14  and  C_16
REMARK                            x       y       z     vdW  Elec       q    Type
REMARK                         _______ _______ _______ _____ _____    ______ ____
ROOT
ATOM      1  C   UNL     1      10.138   0.582  23.391  0.00  0.00    -0.032 A 
ATOM      2  C   UNL     1       9.816   0.144  24.685  0.00  0.00    +0.005 A 
ATOM      3  C   UNL     1       9.465  -1.189  24.922  0.00  0.00    +0.013 A 
ATOM      4  C   UNL     1       9.415  -2.102  23.862  0.00  0.00    +0.037 A 
ATOM      5  C   UNL     1       9.765  -1.679  22.575  0.00  0.00    +0.013 A 
ATOM      6  C   UNL     1      10.128  -0.351  22.343  0.00  0.00    +0.005 A 
ENDROOT
BRANCH   4   7
ATOM      7  C   UNL     1       9.021  -3.527  24.050  0.00  0.00    +0.244 C 
ATOM      8  N   UNL     1       7.823  -3.915  23.479  0.00  0.00    -0.309 N 
ATOM      9  H   UNL     1       7.392  -3.300  22.804  0.00  0.00    +0.149 HD
ATOM     10  O   UNL     1       9.760  -4.296  24.653  0.00  0.00    -0.270 OA
BRANCH   8  11
ATOM     11  C   UNL     1       7.393  -5.307  23.489  0.00  0.00    +0.067 C 
ATOM     12  C   UNL     1       7.136  -5.805  22.068  0.00  0.00    +0.027 C 
ATOM     13  C   UNL     1       6.143  -5.461  24.348  0.00  0.00    +0.027 C 
ENDBRANCH   8  11
ENDBRANCH   4   7
BRANCH   1  14
ATOM     14  C   UNL     1      10.494   2.031  23.130  0.00  0.00    +0.133 C 
BRANCH  14  15
ATOM     15  N   UNL     1       9.862   2.515  21.891  0.00  0.00    -0.253 NA
ATOM     16  H   UNL     1      10.520   3.161  21.446  0.00  0.00    +0.141 HD
BRANCH  15  18
ATOM     17  C   UNL     1       7.505   2.351  21.787  0.00  0.00    +0.120 C 
ATOM     18  N   UNL     1       8.620   3.201  22.210  0.00  0.00    -0.259 NA
ATOM     19  H   UNL     1       8.537   3.338  23.223  0.00  0.00    +0.140 HD
ENDBRANCH  15  18
ENDBRANCH  14  15
ENDBRANCH   1  14
TORSDOF 5
ENDMDL
MODEL 4
REMARK VINA RESULT:      -5.9      2.052      7.391
REMARK  Name = 
REMARK  8 active torsions:
REMARK  status: ('A' for Active; 'I' for Inactive)
REMARK    1  A    between atoms: C_1  and  N_2
REMARK    2  A    between atoms: N_2  and  N_3
REMARK    3  A    between atoms: N_3  and  C_4
REMARK    4  A    between atoms: C_4  and  C_5
REMARK    5  A    between atoms: C_8  and  C_11
REMARK    6  A    between atoms: N_13  and  C_14
REMARK    7  A    between atoms: C_14  and  C_15
REMARK    8  A    between atoms: C_14  and  C_16
REMARK                            x       y       z     vdW  Elec       q    Type
REMARK                         _______ _______ _______ _____ _____    ______ ____
ROOT
ATOM      1  C   UNL     1      10.541   1.969  23.297  0.00  0.00    -0.032 A 
ATOM      2  C   UNL     1      10.033   1.444  22.099  0.00  0.00    +0.005 A 
ATOM      3  C   UNL     1       9.553   0.131  22.039  0.00  0.00    +0.013 A 
ATOM      4  C   UNL     1       9.590  -0.683  23.177  0.00  0.00    +0.037 A 
ATOM      5  C   UNL     1      10.065  -0.156  24.383  0.00  0.00    +0.013 A 
ATOM      6  C   UNL     1      10.532   1.160  24.444  0.00  0.00    +0.005 A 
ENDROOT
BRANCH   4   7
ATOM      7  C   UNL     1       9.119  -2.097  23.166  0.00  0.00    +0.244 C 
ATOM      8  N   UNL     1       9.297  -2.814  24.334  0.00  0.00    -0.309 N 
ATOM      9  H   UNL     1       9.529  -2.308  25.178  0.00  0.00    +0.149 HD
ATOM     10  O   UNL     1       8.572  -2.556  22.171  0.00  0.00    -0.270 OA
BRANCH   8  11
ATOM     11  C   UNL     1       8.767  -4.163  24.486  0.00  0.00    +0.067 C 
ATOM     12  C   UNL     1       7.368  -4.129  25.100  0.00  0.00    +0.027 C 
ATOM     13  C   UNL     1       9.710  -5.002  25.340  0.00  0.00    +0.027 C 
ENDBRANCH   8  11
ENDBRANCH   4   7
BRANCH   1  14
ATOM     14  C   UNL     1      11.084   3.382  23.355  0.00  0.00    +0.133 C 
BRANCH  14  15
ATOM     15  N   UNL     1       9.993   4.370  23.312  0.00  0.00    -0.253 NA
ATOM     16  H   UNL     1       9.410   4.145  22.501  0.00  0.00    +0.141 HD
BRANCH  15  18
ATOM     17  C   UNL     1      11.933   5.677  23.655  0.00  0.00    +0.120 C 
ATOM     18  N   UNL     1      10.548   5.707  23.179  0.00  0.00    -0.259 NA
ATOM     19  H   UNL     1      10.567   5.990  22.194  0.00  0.00    +0.140 HD
ENDBRANCH  15  18
ENDBRANCH  14  15
ENDBRANCH   1  14
TORSDOF 5
ENDMDL
MODEL 5
REMARK VINA RESULT:      -5.8      3.135      7.655
REMARK  Name = 
REMARK  8 active torsions:
REMARK  status: ('A' for Active; 'I' for Inactive)
REMARK    1  A    between atoms: C_1  and  N_2
REMARK    2  A    between atoms: N_2  and  N_3
REMARK    3  A    between atoms: N_3  and  C_4
REMARK    4  A    between atoms: C_4  and  C_5
REMARK    5  A    between atoms: C_8  and  C_11
REMARK    6  A    between atoms: N_13  and  C_14
REMARK    7  A    between atoms: C_14  and  C_15
REMARK    8  A    between atoms: C_14  and  C_16
REMARK                            x       y       z     vdW  Elec       q    Type
REMARK                         _______ _______ _______ _____ _____    ______ ____
ROOT
ATOM      1  C   UNL     1      10.036   0.793  22.565  0.00  0.00    -0.032 A 
ATOM      2  C   UNL     1       9.562  -0.109  21.600  0.00  0.00    +0.005 A 
ATOM      3  C   UNL     1       9.226  -1.421  21.952  0.00  0.00    +0.013 A 
ATOM      4  C   UNL     1       9.376  -1.855  23.275  0.00  0.00    +0.037 A 
ATOM      5  C   UNL     1       9.818  -0.951  24.248  0.00  0.00    +0.013 A 
ATOM      6  C   UNL     1      10.140   0.362  23.897  0.00  0.00    +0.005 A 
ENDROOT
BRANCH   4   7
ATOM      7  C   UNL     1       9.060  -3.247  23.702  0.00  0.00    +0.244 C 
ATOM      8  N   UNL     1       7.900  -3.799  23.191  0.00  0.00    -0.309 N 
ATOM      9  H   UNL     1       7.450  -3.337  22.414  0.00  0.00    +0.149 HD
ATOM     10  O   UNL     1       9.829  -3.855  24.438  0.00  0.00    -0.270 OA
BRANCH   8  11
ATOM     11  C   UNL     1       7.551  -5.193  23.437  0.00  0.00    +0.067 C 
ATOM     12  C   UNL     1       7.207  -5.904  22.129  0.00  0.00    +0.027 C 
ATOM     13  C   UNL     1       6.386  -5.274  24.416  0.00  0.00    +0.027 C 
ENDBRANCH   8  11
ENDBRANCH   4   7
BRANCH   1  14
ATOM     14  C   UNL     1      10.424   2.206  22.179  0.00  0.00    +0.133 C 
BRANCH  14  15
ATOM     15  N   UNL     1       9.517   3.189  22.795  0.00  0.00    -0.253 NA
ATOM     16  H   UNL     1       9.337   2.880  23.754  0.00  0.00    +0.141 HD
BRANCH  15  18
ATOM     17  C   UNL     1       7.421   4.274  22.645  0.00  0.00    +0.120 C 
ATOM     18  N   UNL     1       8.275   3.248  22.042  0.00  0.00    -0.259 NA
ATOM     19  H   UNL     1       8.456   3.528  21.073  0.00  0.00    +0.140 HD
ENDBRANCH  15  18
ENDBRANCH  14  15
ENDBRANCH   1  14
TORSDOF 5
ENDMDL
MODEL 6
REMARK VINA RESULT:      -5.8      2.574      7.500
REMARK  Name = 
REMARK  8 active torsions:
REMARK  status: ('A' for Active; 'I' for Inactive)
REMARK    1  A    between atoms: C_1  and  N_2
REMARK    2  A    between atoms: N_2  and  N_3
REMARK    3  A    between atoms: N_3  and  C_4
REMARK    4  A    between atoms: C_4  and  C_5
REMARK    5  A    between atoms: C_8  and  C_11
REMARK    6  A    between atoms: N_13  and  C_14
REMARK    7  A    between atoms: C_14  and  C_15
REMARK    8  A    between atoms: C_14  and  C_16
REMARK                            x       y       z     vdW  Elec       q    Type
REMARK                         _______ _______ _______ _____ _____    ______ ____
ROOT
ATOM      1  C   UNL     1      10.446   1.883  23.300  0.00  0.00    -0.032 A 
ATOM      2  C   UNL     1      10.006   1.217  22.146  0.00  0.00    +0.005 A 
ATOM      3  C   UNL     1       9.655  -0.137  22.191  0.00  0.00    +0.013 A 
ATOM      4  C   UNL     1       9.755  -0.849  23.392  0.00  0.00    +0.037 A 
ATOM      5  C   UNL     1      10.163  -0.183  24.553  0.00  0.00    +0.013 A 
ATOM      6  C   UNL     1      10.501   1.171  24.509  0.00  0.00    +0.005 A 
ENDROOT
BRANCH   4   7
ATOM      7  C   UNL     1       9.421  -2.298  23.493  0.00  0.00    +0.244 C 
ATOM      8  N   UNL     1       8.138  -2.660  23.130  0.00  0.00    -0.309 N 
ATOM      9  H   UNL     1       7.575  -1.991  22.625  0.00  0.00    +0.149 HD
ATOM     10  O   UNL     1      10.274  -3.103  23.848  0.00  0.00    -0.270 OA
BRANCH   8  11
ATOM     11  C   UNL     1       7.733  -4.059  23.068  0.00  0.00    +0.067 C 
ATOM     12  C   UNL     1       6.752  -4.290  21.920  0.00  0.00    +0.027 C 
ATOM     13  C   UNL     1       7.116  -4.482  24.396  0.00  0.00    +0.027 C 
ENDBRANCH   8  11
ENDBRANCH   4   7
BRANCH   1  14
ATOM     14  C   UNL     1      10.851   3.342  23.246  0.00  0.00    +0.133 C 
BRANCH  14  15
ATOM     15  N   UNL     1       9.674   4.221  23.336  0.00  0.00    -0.253 NA
ATOM     16  H   UNL     1       9.026   3.940  22.595  0.00  0.00    +0.141 HD
BRANCH  15  18
ATOM     17  C   UNL     1       8.894   6.453  23.292  0.00  0.00    +0.120 C 
ATOM     18  N   UNL     1      10.080   5.605  23.152  0.00  0.00    -0.259 NA
ATOM     19  H   UNL     1      10.745   5.882  23.881  0.00  0.00    +0.140 HD
ENDBRANCH  15  18
ENDBRANCH  14  15
ENDBRANCH   1  14
TORSDOF 5
ENDMDL
MODEL 7
REMARK VINA RESULT:      -5.7      3.195      5.400
REMARK  Name = 
REMARK  8 active torsions:
REMARK  status: ('A' for Active; 'I' for Inactive)
REMARK    1  A    between atoms: C_1  and  N_2
REMARK    2  A    between atoms: N_2  and  N_3
REMARK    3  A    between atoms: N_3  and  C_4
REMARK    4  A    between atoms: C_4  and  C_5
REMARK    5  A    between atoms: C_8  and  C_11
REMARK    6  A    between atoms: N_13  and  C_14
REMARK    7  A    between atoms: C_14  and  C_15
REMARK    8  A    between atoms: C_14  and  C_16
REMARK                            x       y       z     vdW  Elec       q    Type
REMARK                         _______ _______ _______ _____ _____    ______ ____
ROOT
ATOM      1  C   UNL     1       7.635  -4.508  25.368  0.00  0.00    -0.032 A 
ATOM      2  C   UNL     1       6.901  -3.601  24.588  0.00  0.00    +0.005 A 
ATOM      3  C   UNL     1       7.551  -2.626  23.822  0.00  0.00    +0.013 A 
ATOM      4  C   UNL     1       8.947  -2.535  23.838  0.00  0.00    +0.037 A 
ATOM      5  C   UNL     1       9.687  -3.457  24.589  0.00  0.00    +0.013 A 
ATOM      6  C   UNL     1       9.037  -4.437  25.343  0.00  0.00    +0.005 A 
ENDROOT
BRANCH   4   7
ATOM      7  C   UNL     1       9.691  -1.501  23.065  0.00  0.00    +0.244 C 
ATOM      8  N   UNL     1       9.404  -0.183  23.365  0.00  0.00    -0.309 N 
ATOM      9  H   UNL     1       8.886   0.015  24.209  0.00  0.00    +0.149 HD
ATOM     10  O   UNL     1      10.533  -1.836  22.240  0.00  0.00    -0.270 OA
BRANCH   8  11
ATOM     11  C   UNL     1      10.154   0.913  22.765  0.00  0.00    +0.067 C 
ATOM     12  C   UNL     1      10.598   1.913  23.831  0.00  0.00    +0.027 C 
ATOM     13  C   UNL     1       9.310   1.602  21.699  0.00  0.00    +0.027 C 
ENDBRANCH   8  11
ENDBRANCH   4   7
BRANCH   1  14
ATOM     14  C   UNL     1       6.931  -5.546  26.217  0.00  0.00    +0.133 C 
BRANCH  14  15
ATOM     15  N   UNL     1       7.722  -5.872  27.416  0.00  0.00    -0.253 NA
ATOM     16  H   UNL     1       8.313  -6.675  27.181  0.00  0.00    +0.141 HD
BRANCH  15  18
ATOM     17  C   UNL     1       5.743  -5.225  28.536  0.00  0.00    +0.120 C 
ATOM     18  N   UNL     1       6.830  -6.206  28.515  0.00  0.00    -0.259 NA
ATOM     19  H   UNL     1       6.411  -7.129  28.367  0.00  0.00    +0.140 HD
ENDBRANCH  15  18
ENDBRANCH  14  15
ENDBRANCH   1  14
TORSDOF 5
ENDMDL
MODEL 8
REMARK VINA RESULT:      -5.6      3.995      6.357
REMARK  Name = 
REMARK  8 active torsions:
REMARK  status: ('A' for Active; 'I' for Inactive)
REMARK    1  A    between atoms: C_1  and  N_2
REMARK    2  A    between atoms: N_2  and  N_3
REMARK    3  A    between atoms: N_3  and  C_4
REMARK    4  A    between atoms: C_4  and  C_5
REMARK    5  A    between atoms: C_8  and  C_11
REMARK    6  A    between atoms: N_13  and  C_14
REMARK    7  A    between atoms: C_14  and  C_15
REMARK    8  A    between atoms: C_14  and  C_16
REMARK                            x       y       z     vdW  Elec       q    Type
REMARK                         _______ _______ _______ _____ _____    ______ ____
ROOT
ATOM      1  C   UNL     1       5.629  -4.863  23.319  0.00  0.00    -0.032 A 
ATOM      2  C   UNL     1       6.749  -5.293  24.048  0.00  0.00    +0.005 A 
ATOM      3  C   UNL     1       7.911  -4.515  24.099  0.00  0.00    +0.013 A 
ATOM      4  C   UNL     1       7.974  -3.299  23.408  0.00  0.00    +0.037 A 
ATOM      5  C   UNL     1       6.850  -2.850  22.705  0.00  0.00    +0.013 A 
ATOM      6  C   UNL     1       5.687  -3.622  22.665  0.00  0.00    +0.005 A 
ENDROOT
BRANCH   4   7
ATOM      7  C   UNL     1       9.193  -2.442  23.405  0.00  0.00    +0.244 C 
ATOM      8  N   UNL     1       9.011  -1.114  23.067  0.00  0.00    -0.309 N 
ATOM      9  H   UNL     1       8.069  -0.748  23.051  0.00  0.00    +0.149 HD
ATOM     10  O   UNL     1      10.278  -2.913  23.725  0.00  0.00    -0.270 OA
BRANCH   8  11
ATOM     11  C   UNL     1      10.103  -0.153  23.149  0.00  0.00    +0.067 C 
ATOM     12  C   UNL     1      10.156   0.491  24.533  0.00  0.00    +0.027 C 
ATOM     13  C   UNL     1       9.947   0.908  22.067  0.00  0.00    +0.027 C 
ENDBRANCH   8  11
ENDBRANCH   4   7
BRANCH   1  14
ATOM     14  C   UNL     1       4.381  -5.718  23.241  0.00  0.00    +0.133 C 
BRANCH  14  15
ATOM     15  N   UNL     1       4.680  -7.121  23.571  0.00  0.00    -0.253 NA
ATOM     16  H   UNL     1       5.063  -7.558  22.727  0.00  0.00    +0.141 HD
BRANCH  15  18
ATOM     17  C   UNL     1       3.214  -7.486  25.390  0.00  0.00    +0.120 C 
ATOM     18  N   UNL     1       3.460  -7.799  23.980  0.00  0.00    -0.259 NA
ATOM     19  H   UNL     1       2.660  -7.451  23.443  0.00  0.00    +0.140 HD
ENDBRANCH  15  18
ENDBRANCH  14  15
ENDBRANCH   1  14
TORSDOF 5
ENDMDL
MODEL 9
REMARK VINA RESULT:      -5.6      4.486      7.548
REMARK  Name = 
REMARK  8 active torsions:
REMARK  status: ('A' for Active; 'I' for Inactive)
REMARK    1  A    between atoms: C_1  and  N_2
REMARK    2  A    between atoms: N_2  and  N_3
REMARK    3  A    between atoms: N_3  and  C_4
REMARK    4  A    between atoms: C_4  and  C_5
REMARK    5  A    between atoms: C_8  and  C_11
REMARK    6  A    between atoms: N_13  and  C_14
REMARK    7  A    between atoms: C_14  and  C_15
REMARK    8  A    between atoms: C_14  and  C_16
REMARK                            x       y       z     vdW  Elec       q    Type
REMARK                         _______ _______ _______ _____ _____    ______ ____
ROOT
ATOM      1  C   UNL     1       5.485  -5.977  24.949  0.00  0.00    -0.032 A 
ATOM      2  C   UNL     1       6.285  -5.551  26.021  0.00  0.00    +0.005 A 
ATOM      3  C   UNL     1       7.436  -4.787  25.795  0.00  0.00    +0.013 A 
ATOM      4  C   UNL     1       7.812  -4.452  24.489  0.00  0.00    +0.037 A 
ATOM      5  C   UNL     1       7.001  -4.846  23.419  0.00  0.00    +0.013 A 
ATOM      6  C   UNL     1       5.847  -5.597  23.647  0.00  0.00    +0.005 A 
ENDROOT
BRANCH   4   7
ATOM      7  C   UNL     1       9.041  -3.664  24.187  0.00  0.00    +0.244 C 
ATOM      8  N   UNL     1       8.855  -2.461  23.532  0.00  0.00    -0.309 N 
ATOM      9  H   UNL     1       7.920  -2.081  23.482  0.00  0.00    +0.149 HD
ATOM     10  O   UNL     1      10.138  -4.072  24.548  0.00  0.00    -0.270 OA
BRANCH   8  11
ATOM     11  C   UNL     1       9.965  -1.548  23.293  0.00  0.00    +0.067 C 
ATOM     12  C   UNL     1      10.057  -0.504  24.406  0.00  0.00    +0.027 C 
ATOM     13  C   UNL     1       9.804  -0.874  21.935  0.00  0.00    +0.027 C 
ENDBRANCH   8  11
ENDBRANCH   4   7
BRANCH   1  14
ATOM     14  C   UNL     1       4.254  -6.826  25.191  0.00  0.00    +0.133 C 
BRANCH  14  15
ATOM     15  N   UNL     1       3.962  -7.676  24.025  0.00  0.00    -0.253 NA
ATOM     16  H   UNL     1       3.850  -7.057  23.217  0.00  0.00    +0.141 HD
BRANCH  15  18
ATOM     17  C   UNL     1       1.680  -7.846  23.428  0.00  0.00    +0.120 C 
ATOM     18  N   UNL     1       2.737  -8.425  24.260  0.00  0.00    -0.259 NA
ATOM     19  H   UNL     1       2.855  -9.402  23.974  0.00  0.00    +0.140 HD
ENDBRANCH  15  18
ENDBRANCH  14  15
ENDBRANCH   1  14
TORSDOF 5
ENDMDL
