MODEL 1
REMARK VINA RESULT:      -7.7      0.000      0.000
REMARK  Name = 
REMARK  6 active torsions:
REMARK  status: ('A' for Active; 'I' for Inactive)
REMARK    1  A    between atoms: C_1  and  N_2
REMARK    2  A    between atoms: C_7  and  C_8
REMARK    3  A    between atoms: N_10  and  C_11
REMARK    4  A    between atoms: C_11  and  C_12
REMARK    5  A    between atoms: C_12  and  O_13
REMARK    6  A    between atoms: C_21  and  C_23
REMARK                            x       y       z     vdW  Elec       q    Type
REMARK                         _______ _______ _______ _____ _____    ______ ____
ROOT
ATOM      1  C   UNL     1      10.045   1.733  21.941  0.00  0.00    +0.149 C 
ATOM      2  N   UNL     1       9.259   1.746  23.162  0.00  0.00    -0.338 N 
ATOM      3  C   UNL     1       9.041   2.879  23.957  0.00  0.00    +0.119 A 
ATOM      4  C   UNL     1       8.111   2.502  24.931  0.00  0.00    +0.056 A 
ATOM      5 BR   UNL     1       7.348   3.663  26.199  0.00  0.00    -0.047 Br
ATOM      6  C   UNL     1       7.832   1.159  24.691  0.00  0.00    +0.028 A 
ATOM      7  C   UNL     1       6.903   0.320  25.359  0.00  0.00    +0.062 A 
ATOM      8  C   UNL     1       6.059   0.471  26.504  0.00  0.00    +0.260 A 
ATOM      9  O   UNL     1       5.890   1.339  27.350  0.00  0.00    -0.267 OA
ATOM     10  N   UNL     1       5.365  -0.698  26.532  0.00  0.00    -0.289 N 
ATOM     11  H   UNL     1       4.639  -0.856  27.209  0.00  0.00    +0.172 HD
ATOM     12  C   UNL     1       5.576  -1.557  25.492  0.00  0.00    +0.260 A 
ATOM     13  O   UNL     1       4.868  -2.542  25.328  0.00  0.00    -0.267 OA
ATOM     14  C   UNL     1       6.688  -0.975  24.769  0.00  0.00    +0.060 A 
ATOM     15  C   UNL     1       7.442  -1.519  23.699  0.00  0.00    -0.001 A 
ATOM     16  C   UNL     1       8.460  -0.671  23.210  0.00  0.00    +0.035 A 
ATOM     17  C   UNL     1       8.549   0.658  23.640  0.00  0.00    +0.052 A 
ENDROOT
BRANCH  15  18
ATOM     18  C   UNL     1       7.215  -2.880  23.121  0.00  0.00    +0.001 A 
ATOM     19  C   UNL     1       6.272  -3.088  22.091  0.00  0.00    +0.010 A 
ATOM     20  C   UNL     1       6.066  -4.340  21.490  0.00  0.00    +0.001 A 
ATOM     21  C   UNL     1       6.720  -5.462  21.969  0.00  0.00    +0.001 A 
ATOM     22  C   UNL     1       7.605  -5.324  23.028  0.00  0.00    +0.020 A 
ATOM     23  C   UNL     1       7.880  -4.055  23.572  0.00  0.00    +0.049 A 
ATOM     24 CL   UNL     1       9.128  -4.063  24.783  0.00  0.00    -0.083 Cl
ENDBRANCH  15  18
BRANCH   3  25
ATOM     25  C   UNL     1       9.667   4.171  23.692  0.00  0.00    +0.262 C 
ATOM     26  N   UNL     1      11.037   4.195  23.807  0.00  0.00    -0.308 N 
ATOM     27  H   UNL     1      11.518   3.345  24.074  0.00  0.00    +0.149 HD
ATOM     28  O   UNL     1       9.039   5.172  23.356  0.00  0.00    -0.269 OA
BRANCH  26  29
ATOM     29  C   UNL     1      11.828   5.400  23.624  0.00  0.00    +0.132 C 
BRANCH  29  30
ATOM     30  C   UNL     1      12.913   5.216  22.563  0.00  0.00    +0.174 C 
BRANCH  30  31
ATOM     31  O   UNL     1      14.200   5.158  23.178  0.00  0.00    -0.393 OA
ATOM     32  H   UNL     1      14.660   4.397  22.784  0.00  0.00    +0.209 HD
ENDBRANCH  30  31
ENDBRANCH  29  30
ENDBRANCH  26  29
ENDBRANCH   3  25
TORSDOF 5
ENDMDL
MODEL 2
REMARK VINA RESULT:      -7.4      3.918      5.573
REMARK  Name = 
REMARK  6 active torsions:
REMARK  status: ('A' for Active; 'I' for Inactive)
REMARK    1  A    between atoms: C_1  and  N_2
REMARK    2  A    between atoms: C_7  and  C_8
REMARK    3  A    between atoms: N_10  and  C_11
REMARK    4  A    between atoms: C_11  and  C_12
REMARK    5  A    between atoms: C_12  and  O_13
REMARK    6  A    between atoms: C_21  and  C_23
REMARK                            x       y       z     vdW  Elec       q    Type
REMARK                         _______ _______ _______ _____ _____    ______ ____
ROOT
ATOM      1  C   UNL     1       5.406   0.405  25.247  0.00  0.00    +0.149 C 
ATOM      2  N   UNL     1       6.366  -0.663  25.030  0.00  0.00    -0.338 N 
ATOM      3  C   UNL     1       7.554  -0.529  24.300  0.00  0.00    +0.119 A 
ATOM      4  C   UNL     1       8.258  -1.726  24.472  0.00  0.00    +0.056 A 
ATOM      5 BR   UNL     1       9.989  -2.062  23.820  0.00  0.00    -0.047 Br
ATOM      6  C   UNL     1       7.452  -2.528  25.277  0.00  0.00    +0.028 A 
ATOM      7  C   UNL     1       7.733  -3.818  25.796  0.00  0.00    +0.062 A 
ATOM      8  C   UNL     1       8.796  -4.759  25.621  0.00  0.00    +0.260 A 
ATOM      9  O   UNL     1       9.794  -4.821  24.915  0.00  0.00    -0.267 OA
ATOM     10  N   UNL     1       8.472  -5.755  26.489  0.00  0.00    -0.289 N 
ATOM     11  H   UNL     1       9.083  -6.541  26.629  0.00  0.00    +0.172 HD
ATOM     12  C   UNL     1       7.383  -5.540  27.284  0.00  0.00    +0.260 A 
ATOM     13  O   UNL     1       7.122  -6.286  28.219  0.00  0.00    -0.267 OA
ATOM     14  C   UNL     1       6.791  -4.328  26.757  0.00  0.00    +0.060 A 
ATOM     15  C   UNL     1       5.550  -3.725  27.082  0.00  0.00    -0.001 A 
ATOM     16  C   UNL     1       5.282  -2.526  26.385  0.00  0.00    +0.035 A 
ATOM     17  C   UNL     1       6.270  -1.921  25.601  0.00  0.00    +0.052 A 
ENDROOT
BRANCH  15  18
ATOM     18  C   UNL     1       4.576  -4.290  28.067  0.00  0.00    +0.001 A 
ATOM     19  C   UNL     1       4.461  -3.757  29.369  0.00  0.00    +0.010 A 
ATOM     20  C   UNL     1       3.526  -4.228  30.304  0.00  0.00    +0.001 A 
ATOM     21  C   UNL     1       2.736  -5.326  30.011  0.00  0.00    +0.001 A 
ATOM     22  C   UNL     1       2.860  -5.932  28.769  0.00  0.00    +0.020 A 
ATOM     23  C   UNL     1       3.734  -5.405  27.798  0.00  0.00    +0.049 A 
ATOM     24 CL   UNL     1       3.637  -6.203  26.256  0.00  0.00    -0.083 Cl
ENDBRANCH  15  18
BRANCH   3  25
ATOM     25  C   UNL     1       7.918   0.691  23.587  0.00  0.00    +0.262 C 
ATOM     26  N   UNL     1       8.759   1.540  24.266  0.00  0.00    -0.308 N 
ATOM     27  H   UNL     1       9.058   1.286  25.199  0.00  0.00    +0.149 HD
ATOM     28  O   UNL     1       7.539   0.948  22.446  0.00  0.00    -0.269 OA
BRANCH  26  29
ATOM     29  C   UNL     1       9.194   2.820  23.733  0.00  0.00    +0.132 C 
BRANCH  29  30
ATOM     30  C   UNL     1      10.508   2.703  22.962  0.00  0.00    +0.174 C 
BRANCH  30  31
ATOM     31  O   UNL     1      10.259   2.269  21.625  0.00  0.00    -0.393 OA
ATOM     32  H   UNL     1      10.879   2.758  21.056  0.00  0.00    +0.209 HD
ENDBRANCH  30  31
ENDBRANCH  29  30
ENDBRANCH  26  29
ENDBRANCH   3  25
TORSDOF 5
ENDMDL
MODEL 3
REMARK VINA RESULT:      -7.3      3.751      8.585
REMARK  Name = 
REMARK  6 active torsions:
REMARK  status: ('A' for Active; 'I' for Inactive)
REMARK    1  A    between atoms: C_1  and  N_2
REMARK    2  A    between atoms: C_7  and  C_8
REMARK    3  A    between atoms: N_10  and  C_11
REMARK    4  A    between atoms: C_11  and  C_12
REMARK    5  A    between atoms: C_12  and  O_13
REMARK    6  A    between atoms: C_21  and  C_23
REMARK                            x       y       z     vdW  Elec       q    Type
REMARK                         _______ _______ _______ _____ _____    ______ ____
ROOT
ATOM      1  C   UNL     1       5.654  -5.362  21.926  0.00  0.00    +0.149 C 
ATOM      2  N   UNL     1       5.084  -4.627  23.042  0.00  0.00    -0.338 N 
ATOM      3  C   UNL     1       4.187  -5.165  23.974  0.00  0.00    +0.119 A 
ATOM      4  C   UNL     1       4.018  -4.191  24.964  0.00  0.00    +0.056 A 
ATOM      5 BR   UNL     1       3.015  -4.417  26.538  0.00  0.00    -0.047 Br
ATOM      6  C   UNL     1       4.802  -3.110  24.570  0.00  0.00    +0.028 A 
ATOM      7  C   UNL     1       5.029  -1.891  25.259  0.00  0.00    +0.062 A 
ATOM      8  C   UNL     1       4.504  -1.300  26.451  0.00  0.00    +0.260 A 
ATOM      9  O   UNL     1       3.630  -1.596  27.255  0.00  0.00    -0.267 OA
ATOM     10  N   UNL     1       5.229  -0.156  26.574  0.00  0.00    -0.289 N 
ATOM     11  H   UNL     1       5.117   0.447  27.371  0.00  0.00    +0.172 HD
ATOM     12  C   UNL     1       6.232   0.029  25.668  0.00  0.00    +0.260 A 
ATOM     13  O   UNL     1       7.055   0.926  25.805  0.00  0.00    -0.267 OA
ATOM     14  C   UNL     1       6.041  -1.032  24.701  0.00  0.00    +0.060 A 
ATOM     15  C   UNL     1       6.685  -1.234  23.455  0.00  0.00    -0.001 A 
ATOM     16  C   UNL     1       6.267  -2.391  22.761  0.00  0.00    +0.035 A 
ATOM     17  C   UNL     1       5.435  -3.331  23.378  0.00  0.00    +0.052 A 
ENDROOT
BRANCH  15  18
ATOM     18  C   UNL     1       7.715  -0.310  22.885  0.00  0.00    +0.001 A 
ATOM     19  C   UNL     1       7.346   0.915  22.289  0.00  0.00    +0.010 A 
ATOM     20  C   UNL     1       8.286   1.830  21.787  0.00  0.00    +0.001 A 
ATOM     21  C   UNL     1       9.633   1.509  21.766  0.00  0.00    +0.001 A 
ATOM     22  C   UNL     1      10.041   0.284  22.276  0.00  0.00    +0.020 A 
ATOM     23  C   UNL     1       9.109  -0.595  22.860  0.00  0.00    +0.049 A 
ATOM     24 CL   UNL     1       9.828  -2.005  23.582  0.00  0.00    -0.083 Cl
ENDBRANCH  15  18
BRANCH   3  25
ATOM     25  C   UNL     1       3.643  -6.516  23.869  0.00  0.00    +0.262 C 
ATOM     26  N   UNL     1       2.411  -6.608  23.265  0.00  0.00    -0.308 N 
ATOM     27  H   UNL     1       1.959  -5.759  22.950  0.00  0.00    +0.149 HD
ATOM     28  O   UNL     1       4.239  -7.518  24.255  0.00  0.00    -0.269 OA
BRANCH  26  29
ATOM     29  C   UNL     1       1.694  -7.862  23.112  0.00  0.00    +0.132 C 
BRANCH  29  30
ATOM     30  C   UNL     1       0.879  -7.901  21.819  0.00  0.00    +0.174 C 
BRANCH  30  31
ATOM     31  O   UNL     1       1.507  -8.759  20.866  0.00  0.00    -0.393 OA
ATOM     32  H   UNL     1       2.449  -8.799  21.109  0.00  0.00    +0.209 HD
ENDBRANCH  30  31
ENDBRANCH  29  30
ENDBRANCH  26  29
ENDBRANCH   3  25
TORSDOF 5
ENDMDL
MODEL 4
REMARK VINA RESULT:      -7.2      1.156      1.547
REMARK  Name = 
REMARK  6 active torsions:
REMARK  status: ('A' for Active; 'I' for Inactive)
REMARK    1  A    between atoms: C_1  and  N_2
REMARK    2  A    between atoms: C_7  and  C_8
REMARK    3  A    between atoms: N_10  and  C_11
REMARK    4  A    between atoms: C_11  and  C_12
REMARK    5  A    between atoms: C_12  and  O_13
REMARK    6  A    between atoms: C_21  and  C_23
REMARK                            x       y       z     vdW  Elec       q    Type
REMARK                         _______ _______ _______ _____ _____    ______ ____
ROOT
ATOM      1  C   UNL     1      10.375   1.774  22.349  0.00  0.00    +0.149 C 
ATOM      2  N   UNL     1       9.583   1.891  23.562  0.00  0.00    -0.338 N 
ATOM      3  C   UNL     1       9.252   3.104  24.182  0.00  0.00    +0.119 A 
ATOM      4  C   UNL     1       8.356   2.788  25.208  0.00  0.00    +0.056 A 
ATOM      5 BR   UNL     1       7.477   4.045  26.296  0.00  0.00    -0.047 Br
ATOM      6  C   UNL     1       8.208   1.404  25.170  0.00  0.00    +0.028 A 
ATOM      7  C   UNL     1       7.359   0.588  25.962  0.00  0.00    +0.062 A 
ATOM      8  C   UNL     1       6.497   0.824  27.079  0.00  0.00    +0.260 A 
ATOM      9  O   UNL     1       6.240   1.788  27.788  0.00  0.00    -0.267 OA
ATOM     10  N   UNL     1       5.918  -0.388  27.285  0.00  0.00    -0.289 N 
ATOM     11  H   UNL     1       5.206  -0.513  27.983  0.00  0.00    +0.172 HD
ATOM     12  C   UNL     1       6.217  -1.367  26.381  0.00  0.00    +0.260 A 
ATOM     13  O   UNL     1       5.608  -2.429  26.370  0.00  0.00    -0.267 OA
ATOM     14  C   UNL     1       7.273  -0.795  25.572  0.00  0.00    +0.060 A 
ATOM     15  C   UNL     1       8.083  -1.417  24.588  0.00  0.00    -0.001 A 
ATOM     16  C   UNL     1       9.017  -0.557  23.972  0.00  0.00    +0.035 A 
ATOM     17  C   UNL     1       8.977   0.823  24.200  0.00  0.00    +0.052 A 
ENDROOT
BRANCH  15  18
ATOM     18  C   UNL     1       7.990  -2.864  24.220  0.00  0.00    +0.001 A 
ATOM     19  C   UNL     1       8.828  -3.826  24.826  0.00  0.00    +0.010 A 
ATOM     20  C   UNL     1       8.739  -5.198  24.543  0.00  0.00    +0.001 A 
ATOM     21  C   UNL     1       7.877  -5.655  23.560  0.00  0.00    +0.001 A 
ATOM     22  C   UNL     1       7.082  -4.741  22.884  0.00  0.00    +0.020 A 
ATOM     23  C   UNL     1       7.106  -3.376  23.230  0.00  0.00    +0.049 A 
ATOM     24 CL   UNL     1       5.931  -2.414  22.383  0.00  0.00    -0.083 Cl
ENDBRANCH  15  18
BRANCH   3  25
ATOM     25  C   UNL     1       9.754   4.396  23.724  0.00  0.00    +0.262 C 
ATOM     26  N   UNL     1      11.121   4.537  23.747  0.00  0.00    -0.308 N 
ATOM     27  H   UNL     1      11.684   3.767  24.083  0.00  0.00    +0.149 HD
ATOM     28  O   UNL     1       9.027   5.297  23.312  0.00  0.00    -0.269 OA
BRANCH  26  29
ATOM     29  C   UNL     1      11.798   5.766  23.370  0.00  0.00    +0.132 C 
BRANCH  29  30
ATOM     30  C   UNL     1      12.992   5.504  22.453  0.00  0.00    +0.174 C 
BRANCH  30  31
ATOM     31  O   UNL     1      14.118   5.075  23.220  0.00  0.00    -0.393 OA
ATOM     32  H   UNL     1      14.908   5.415  22.764  0.00  0.00    +0.209 HD
ENDBRANCH  30  31
ENDBRANCH  29  30
ENDBRANCH  26  29
ENDBRANCH   3  25
TORSDOF 5
ENDMDL
MODEL 5
REMARK VINA RESULT:      -7.2      1.491      1.956
REMARK  Name = 
REMARK  6 active torsions:
REMARK  status: ('A' for Active; 'I' for Inactive)
REMARK    1  A    between atoms: C_1  and  N_2
REMARK    2  A    between atoms: C_7  and  C_8
REMARK    3  A    between atoms: N_10  and  C_11
REMARK    4  A    between atoms: C_11  and  C_12
REMARK    5  A    between atoms: C_12  and  O_13
REMARK    6  A    between atoms: C_21  and  C_23
REMARK                            x       y       z     vdW  Elec       q    Type
REMARK                         _______ _______ _______ _____ _____    ______ ____
ROOT
ATOM      1  C   UNL     1       9.776   1.257  21.862  0.00  0.00    +0.149 C 
ATOM      2  N   UNL     1       9.041   1.177  23.112  0.00  0.00    -0.338 N 
ATOM      3  C   UNL     1       8.824   2.257  23.978  0.00  0.00    +0.119 A 
ATOM      4  C   UNL     1       7.945   1.799  24.965  0.00  0.00    +0.056 A 
ATOM      5 BR   UNL     1       7.202   2.862  26.326  0.00  0.00    -0.047 Br
ATOM      6  C   UNL     1       7.694   0.463  24.660  0.00  0.00    +0.028 A 
ATOM      7  C   UNL     1       6.819  -0.440  25.315  0.00  0.00    +0.062 A 
ATOM      8  C   UNL     1       6.018  -0.380  26.499  0.00  0.00    +0.260 A 
ATOM      9  O   UNL     1       5.859   0.435  27.399  0.00  0.00    -0.267 OA
ATOM     10  N   UNL     1       5.360  -1.569  26.488  0.00  0.00    -0.289 N 
ATOM     11  H   UNL     1       4.667  -1.786  27.183  0.00  0.00    +0.172 HD
ATOM     12  C   UNL     1       5.552  -2.361  25.393  0.00  0.00    +0.260 A 
ATOM     13  O   UNL     1       4.866  -3.357  25.202  0.00  0.00    -0.267 OA
ATOM     14  C   UNL     1       6.616  -1.706  24.662  0.00  0.00    +0.060 A 
ATOM     15  C   UNL     1       7.341  -2.167  23.533  0.00  0.00    -0.001 A 
ATOM     16  C   UNL     1       8.312  -1.261  23.053  0.00  0.00    +0.035 A 
ATOM     17  C   UNL     1       8.382   0.043  23.554  0.00  0.00    +0.052 A 
ENDROOT
BRANCH  15  18
ATOM     18  C   UNL     1       7.129  -3.500  22.888  0.00  0.00    +0.001 A 
ATOM     19  C   UNL     1       6.243  -3.651  21.799  0.00  0.00    +0.010 A 
ATOM     20  C   UNL     1       6.054  -4.874  21.137  0.00  0.00    +0.001 A 
ATOM     21  C   UNL     1       6.666  -6.025  21.605  0.00  0.00    +0.001 A 
ATOM     22  C   UNL     1       7.491  -5.944  22.717  0.00  0.00    +0.020 A 
ATOM     23  C   UNL     1       7.751  -4.701  23.328  0.00  0.00    +0.049 A 
ATOM     24 CL   UNL     1       8.928  -4.777  24.605  0.00  0.00    -0.083 Cl
ENDBRANCH  15  18
BRANCH   3  25
ATOM     25  C   UNL     1       9.401   3.580  23.763  0.00  0.00    +0.262 C 
ATOM     26  N   UNL     1       8.493   4.593  23.562  0.00  0.00    -0.308 N 
ATOM     27  H   UNL     1       7.506   4.368  23.561  0.00  0.00    +0.149 HD
ATOM     28  O   UNL     1      10.609   3.805  23.787  0.00  0.00    -0.269 OA
BRANCH  26  29
ATOM     29  C   UNL     1       8.882   5.965  23.288  0.00  0.00    +0.132 C 
BRANCH  29  30
ATOM     30  C   UNL     1       7.776   6.741  22.572  0.00  0.00    +0.174 C 
BRANCH  30  31
ATOM     31  O   UNL     1       7.508   6.156  21.297  0.00  0.00    -0.393 OA
ATOM     32  H   UNL     1       7.279   6.889  20.700  0.00  0.00    +0.209 HD
ENDBRANCH  30  31
ENDBRANCH  29  30
ENDBRANCH  26  29
ENDBRANCH   3  25
TORSDOF 5
ENDMDL
MODEL 6
REMARK VINA RESULT:      -7.2      3.190      4.295
REMARK  Name = 
REMARK  6 active torsions:
REMARK  status: ('A' for Active; 'I' for Inactive)
REMARK    1  A    between atoms: C_1  and  N_2
REMARK    2  A    between atoms: C_7  and  C_8
REMARK    3  A    between atoms: N_10  and  C_11
REMARK    4  A    between atoms: C_11  and  C_12
REMARK    5  A    between atoms: C_12  and  O_13
REMARK    6  A    between atoms: C_21  and  C_23
REMARK                            x       y       z     vdW  Elec       q    Type
REMARK                         _______ _______ _______ _____ _____    ______ ____
ROOT
ATOM      1  C   UNL     1       4.944   1.653  24.754  0.00  0.00    +0.149 C 
ATOM      2  N   UNL     1       6.164   1.165  24.133  0.00  0.00    -0.338 N 
ATOM      3  C   UNL     1       7.076   1.966  23.434  0.00  0.00    +0.119 A 
ATOM      4  C   UNL     1       8.175   1.150  23.146  0.00  0.00    +0.056 A 
ATOM      5 BR   UNL     1       9.766   1.732  22.329  0.00  0.00    -0.047 Br
ATOM      6  C   UNL     1       7.863  -0.104  23.664  0.00  0.00    +0.028 A 
ATOM      7  C   UNL     1       8.669  -1.271  23.692  0.00  0.00    +0.062 A 
ATOM      8  C   UNL     1       9.946  -1.620  23.149  0.00  0.00    +0.260 A 
ATOM      9  O   UNL     1      10.757  -1.071  22.414  0.00  0.00    -0.267 OA
ATOM     10  N   UNL     1      10.156  -2.872  23.635  0.00  0.00    -0.289 N 
ATOM     11  H   UNL     1      11.019  -3.359  23.464  0.00  0.00    +0.172 HD
ATOM     12  C   UNL     1       9.224  -3.350  24.510  0.00  0.00    +0.260 A 
ATOM     13  O   UNL     1       9.416  -4.381  25.143  0.00  0.00    -0.267 OA
ATOM     14  C   UNL     1       8.157  -2.371  24.465  0.00  0.00    +0.060 A 
ATOM     15  C   UNL     1       6.864  -2.431  25.042  0.00  0.00    -0.001 A 
ATOM     16  C   UNL     1       6.070  -1.285  24.816  0.00  0.00    +0.035 A 
ATOM     17  C   UNL     1       6.622  -0.137  24.239  0.00  0.00    +0.052 A 
ENDROOT
BRANCH  15  18
ATOM     18  C   UNL     1       6.346  -3.599  25.820  0.00  0.00    +0.001 A 
ATOM     19  C   UNL     1       6.248  -3.553  27.228  0.00  0.00    +0.010 A 
ATOM     20  C   UNL     1       5.722  -4.609  27.988  0.00  0.00    +0.001 A 
ATOM     21  C   UNL     1       5.370  -5.802  27.380  0.00  0.00    +0.001 A 
ATOM     22  C   UNL     1       5.514  -5.924  26.005  0.00  0.00    +0.020 A 
ATOM     23  C   UNL     1       5.957  -4.834  25.231  0.00  0.00    +0.049 A 
ATOM     24 CL   UNL     1       5.924  -5.129  23.517  0.00  0.00    -0.083 Cl
ENDBRANCH  15  18
BRANCH   3  25
ATOM     25  C   UNL     1       6.852   3.384  23.167  0.00  0.00    +0.262 C 
ATOM     26  N   UNL     1       7.512   4.251  24.004  0.00  0.00    -0.308 N 
ATOM     27  H   UNL     1       8.087   3.870  24.744  0.00  0.00    +0.149 HD
ATOM     28  O   UNL     1       6.153   3.797  22.245  0.00  0.00    -0.269 OA
BRANCH  26  29
ATOM     29  C   UNL     1       7.375   5.695  23.919  0.00  0.00    +0.132 C 
BRANCH  29  30
ATOM     30  C   UNL     1       8.363   6.306  22.925  0.00  0.00    +0.174 C 
BRANCH  30  31
ATOM     31  O   UNL     1       7.818   6.275  21.605  0.00  0.00    -0.393 OA
ATOM     32  H   UNL     1       6.893   5.986  21.696  0.00  0.00    +0.209 HD
ENDBRANCH  30  31
ENDBRANCH  29  30
ENDBRANCH  26  29
ENDBRANCH   3  25
TORSDOF 5
ENDMDL
MODEL 7
REMARK VINA RESULT:      -7.1      3.283      7.605
REMARK  Name = 
REMARK  6 active torsions:
REMARK  status: ('A' for Active; 'I' for Inactive)
REMARK    1  A    between atoms: C_1  and  N_2
REMARK    2  A    between atoms: C_7  and  C_8
REMARK    3  A    between atoms: N_10  and  C_11
REMARK    4  A    between atoms: C_11  and  C_12
REMARK    5  A    between atoms: C_12  and  O_13
REMARK    6  A    between atoms: C_21  and  C_23
REMARK                            x       y       z     vdW  Elec       q    Type
REMARK                         _______ _______ _______ _____ _____    ______ ____
ROOT
ATOM      1  C   UNL     1       9.332  -1.440  22.063  0.00  0.00    +0.149 C 
ATOM      2  N   UNL     1       8.498  -1.286  23.243  0.00  0.00    -0.338 N 
ATOM      3  C   UNL     1       8.004  -2.347  24.012  0.00  0.00    +0.119 A 
ATOM      4  C   UNL     1       7.396  -1.771  25.133  0.00  0.00    +0.056 A 
ATOM      5 BR   UNL     1       6.671  -2.729  26.579  0.00  0.00    -0.047 Br
ATOM      6  C   UNL     1       7.533  -0.394  24.972  0.00  0.00    +0.028 A 
ATOM      7  C   UNL     1       7.141   0.639  25.862  0.00  0.00    +0.062 A 
ATOM      8  C   UNL     1       6.418   0.678  27.096  0.00  0.00    +0.260 A 
ATOM      9  O   UNL     1       5.822  -0.144  27.780  0.00  0.00    -0.267 OA
ATOM     10  N   UNL     1       6.483   1.989  27.450  0.00  0.00    -0.289 N 
ATOM     11  H   UNL     1       6.104   2.311  28.324  0.00  0.00    +0.172 HD
ATOM     12  C   UNL     1       7.243   2.798  26.655  0.00  0.00    +0.260 A 
ATOM     13  O   UNL     1       7.516   3.944  26.990  0.00  0.00    -0.267 OA
ATOM     14  C   UNL     1       7.582   1.965  25.520  0.00  0.00    +0.060 A 
ATOM     15  C   UNL     1       8.215   2.326  24.303  0.00  0.00    -0.001 A 
ATOM     16  C   UNL     1       8.410   1.253  23.406  0.00  0.00    +0.035 A 
ATOM     17  C   UNL     1       8.167  -0.065  23.806  0.00  0.00    +0.052 A 
ENDROOT
BRANCH  15  18
ATOM     18  C   UNL     1       8.640   3.719  23.961  0.00  0.00    +0.001 A 
ATOM     19  C   UNL     1       9.977   4.137  24.133  0.00  0.00    +0.010 A 
ATOM     20  C   UNL     1      10.425   5.419  23.778  0.00  0.00    +0.001 A 
ATOM     21  C   UNL     1       9.528   6.375  23.332  0.00  0.00    +0.001 A 
ATOM     22  C   UNL     1       8.188   6.036  23.213  0.00  0.00    +0.020 A 
ATOM     23  C   UNL     1       7.753   4.724  23.483  0.00  0.00    +0.049 A 
ATOM     24 CL   UNL     1       6.073   4.451  23.127  0.00  0.00    -0.083 Cl
ENDBRANCH  15  18
BRANCH   3  25
ATOM     25  C   UNL     1       8.199  -3.749  23.655  0.00  0.00    +0.262 C 
ATOM     26  N   UNL     1       7.312  -4.248  22.730  0.00  0.00    -0.308 N 
ATOM     27  H   UNL     1       6.589  -3.639  22.372  0.00  0.00    +0.149 HD
ATOM     28  O   UNL     1       9.104  -4.445  24.110  0.00  0.00    -0.269 OA
BRANCH  26  29
ATOM     29  C   UNL     1       7.324  -5.632  22.287  0.00  0.00    +0.132 C 
BRANCH  29  30
ATOM     30  C   UNL     1       6.207  -5.920  21.283  0.00  0.00    +0.174 C 
BRANCH  30  31
ATOM     31  O   UNL     1       4.954  -6.034  21.959  0.00  0.00    -0.393 OA
ATOM     32  H   UNL     1       5.025  -6.811  22.542  0.00  0.00    +0.209 HD
ENDBRANCH  30  31
ENDBRANCH  29  30
ENDBRANCH  26  29
ENDBRANCH   3  25
TORSDOF 5
ENDMDL
MODEL 8
REMARK VINA RESULT:      -7.0      3.484      8.340
REMARK  Name = 
REMARK  6 active torsions:
REMARK  status: ('A' for Active; 'I' for Inactive)
REMARK    1  A    between atoms: C_1  and  N_2
REMARK    2  A    between atoms: C_7  and  C_8
REMARK    3  A    between atoms: N_10  and  C_11
REMARK    4  A    between atoms: C_11  and  C_12
REMARK    5  A    between atoms: C_12  and  O_13
REMARK    6  A    between atoms: C_21  and  C_23
REMARK                            x       y       z     vdW  Elec       q    Type
REMARK                         _______ _______ _______ _____ _____    ______ ____
ROOT
ATOM      1  C   UNL     1       5.062  -0.787  26.704  0.00  0.00    +0.149 C 
ATOM      2  N   UNL     1       6.244  -1.292  26.027  0.00  0.00    -0.338 N 
ATOM      3  C   UNL     1       6.567  -2.650  25.896  0.00  0.00    +0.119 A 
ATOM      4  C   UNL     1       7.678  -2.709  25.048  0.00  0.00    +0.056 A 
ATOM      5 BR   UNL     1       8.467  -4.294  24.415  0.00  0.00    -0.047 Br
ATOM      6  C   UNL     1       7.983  -1.388  24.729  0.00  0.00    +0.028 A 
ATOM      7  C   UNL     1       8.986  -0.905  23.850  0.00  0.00    +0.062 A 
ATOM      8  C   UNL     1      10.049  -1.512  23.111  0.00  0.00    +0.260 A 
ATOM      9  O   UNL     1      10.515  -2.641  23.028  0.00  0.00    -0.267 OA
ATOM     10  N   UNL     1      10.568  -0.473  22.405  0.00  0.00    -0.289 N 
ATOM     11  H   UNL     1      11.307  -0.614  21.738  0.00  0.00    +0.172 HD
ATOM     12  C   UNL     1       9.916   0.722  22.511  0.00  0.00    +0.260 A 
ATOM     13  O   UNL     1      10.190   1.663  21.777  0.00  0.00    -0.267 OA
ATOM     14  C   UNL     1       8.946   0.506  23.565  0.00  0.00    +0.060 A 
ATOM     15  C   UNL     1       8.107   1.445  24.215  0.00  0.00    -0.001 A 
ATOM     16  C   UNL     1       7.259   0.890  25.198  0.00  0.00    +0.035 A 
ATOM     17  C   UNL     1       7.148  -0.497  25.345  0.00  0.00    +0.052 A 
ENDROOT
BRANCH  15  18
ATOM     18  C   UNL     1       8.105   2.912  23.918  0.00  0.00    +0.001 A 
ATOM     19  C   UNL     1       9.071   3.772  24.484  0.00  0.00    +0.010 A 
ATOM     20  C   UNL     1       9.131   5.144  24.192  0.00  0.00    +0.001 A 
ATOM     21  C   UNL     1       8.159   5.735  23.402  0.00  0.00    +0.001 A 
ATOM     22  C   UNL     1       7.146   4.945  22.878  0.00  0.00    +0.020 A 
ATOM     23  C   UNL     1       7.136   3.553  23.098  0.00  0.00    +0.049 A 
ATOM     24 CL   UNL     1       5.880   2.714  22.235  0.00  0.00    -0.083 Cl
ENDBRANCH  15  18
BRANCH   3  25
ATOM     25  C   UNL     1       5.788  -3.717  26.515  0.00  0.00    +0.262 C 
ATOM     26  N   UNL     1       4.876  -4.334  25.691  0.00  0.00    -0.308 N 
ATOM     27  H   UNL     1       4.789  -4.013  24.736  0.00  0.00    +0.149 HD
ATOM     28  O   UNL     1       5.941  -4.080  27.679  0.00  0.00    -0.269 OA
BRANCH  26  29
ATOM     29  C   UNL     1       3.983  -5.387  26.144  0.00  0.00    +0.132 C 
BRANCH  29  30
ATOM     30  C   UNL     1       4.635  -6.767  26.060  0.00  0.00    +0.174 C 
BRANCH  30  31
ATOM     31  O   UNL     1       5.161  -7.142  27.333  0.00  0.00    -0.393 OA
ATOM     32  H   UNL     1       5.025  -8.102  27.415  0.00  0.00    +0.209 HD
ENDBRANCH  30  31
ENDBRANCH  29  30
ENDBRANCH  26  29
ENDBRANCH   3  25
TORSDOF 5
ENDMDL
MODEL 9
REMARK VINA RESULT:      -6.8      3.806      8.625
REMARK  Name = 
REMARK  6 active torsions:
REMARK  status: ('A' for Active; 'I' for Inactive)
REMARK    1  A    between atoms: C_1  and  N_2
REMARK    2  A    between atoms: C_7  and  C_8
REMARK    3  A    between atoms: N_10  and  C_11
REMARK    4  A    between atoms: C_11  and  C_12
REMARK    5  A    between atoms: C_12  and  O_13
REMARK    6  A    between atoms: C_21  and  C_23
REMARK                            x       y       z     vdW  Elec       q    Type
REMARK                         _______ _______ _______ _____ _____    ______ ____
ROOT
ATOM      1  C   UNL     1       5.820  -5.157  21.942  0.00  0.00    +0.149 C 
ATOM      2  N   UNL     1       5.251  -4.442  23.072  0.00  0.00    -0.338 N 
ATOM      3  C   UNL     1       4.382  -5.006  24.015  0.00  0.00    +0.119 A 
ATOM      4  C   UNL     1       4.206  -4.041  25.013  0.00  0.00    +0.056 A 
ATOM      5 BR   UNL     1       3.235  -4.300  26.602  0.00  0.00    -0.047 Br
ATOM      6  C   UNL     1       4.957  -2.939  24.612  0.00  0.00    +0.028 A 
ATOM      7  C   UNL     1       5.165  -1.718  25.304  0.00  0.00    +0.062 A 
ATOM      8  C   UNL     1       4.645  -1.146  26.508  0.00  0.00    +0.260 A 
ATOM      9  O   UNL     1       3.792  -1.468  27.324  0.00  0.00    -0.267 OA
ATOM     10  N   UNL     1       5.344   0.014  26.625  0.00  0.00    -0.289 N 
ATOM     11  H   UNL     1       5.230   0.610  27.427  0.00  0.00    +0.172 HD
ATOM     12  C   UNL     1       6.327   0.229  25.704  0.00  0.00    +0.260 A 
ATOM     13  O   UNL     1       7.130   1.145  25.832  0.00  0.00    -0.267 OA
ATOM     14  C   UNL     1       6.146  -0.832  24.735  0.00  0.00    +0.060 A 
ATOM     15  C   UNL     1       6.775  -1.012  23.477  0.00  0.00    -0.001 A 
ATOM     16  C   UNL     1       6.374  -2.175  22.784  0.00  0.00    +0.035 A 
ATOM     17  C   UNL     1       5.576  -3.139  23.409  0.00  0.00    +0.052 A 
ENDROOT
BRANCH  15  18
ATOM     18  C   UNL     1       7.772  -0.061  22.895  0.00  0.00    +0.001 A 
ATOM     19  C   UNL     1       9.121  -0.438  22.715  0.00  0.00    +0.010 A 
ATOM     20  C   UNL     1      10.075   0.408  22.128  0.00  0.00    +0.001 A 
ATOM     21  C   UNL     1       9.744   1.710  21.793  0.00  0.00    +0.001 A 
ATOM     22  C   UNL     1       8.449   2.154  22.017  0.00  0.00    +0.020 A 
ATOM     23  C   UNL     1       7.468   1.278  22.522  0.00  0.00    +0.049 A 
ATOM     24 CL   UNL     1       5.873   1.968  22.585  0.00  0.00    -0.083 Cl
ENDBRANCH  15  18
BRANCH   3  25
ATOM     25  C   UNL     1       3.870  -6.369  23.912  0.00  0.00    +0.262 C 
ATOM     26  N   UNL     1       2.570  -6.477  23.477  0.00  0.00    -0.308 N 
ATOM     27  H   UNL     1       2.054  -5.631  23.273  0.00  0.00    +0.149 HD
ATOM     28  O   UNL     1       4.543  -7.366  24.159  0.00  0.00    -0.269 OA
BRANCH  26  29
ATOM     29  C   UNL     1       1.877  -7.748  23.354  0.00  0.00    +0.132 C 
BRANCH  29  30
ATOM     30  C   UNL     1       1.475  -8.314  24.716  0.00  0.00    +0.174 C 
BRANCH  30  31
ATOM     31  O   UNL     1       2.447  -9.260  25.164  0.00  0.00    -0.393 OA
ATOM     32  H   UNL     1       2.159  -9.554  26.046  0.00  0.00    +0.209 HD
ENDBRANCH  30  31
ENDBRANCH  29  30
ENDBRANCH  26  29
ENDBRANCH   3  25
TORSDOF 5
ENDMDL
