MODEL 1
REMARK VINA RESULT:      -6.8      0.000      0.000
REMARK  Name = 
REMARK  3 active torsions:
REMARK  status: ('A' for Active; 'I' for Inactive)
REMARK    1  A    between atoms: O_1  and  C_2
REMARK    2  A    between atoms: C_7  and  C_8
REMARK    3  A    between atoms: C_8  and  C_9
REMARK                            x       y       z     vdW  Elec       q    Type
REMARK                         _______ _______ _______ _____ _____    ______ ____
ROOT
ATOM      1  C   UNL     1       6.868  -3.098  22.174  0.00  0.00    +0.040 C 
ENDROOT
BRANCH   1   2
ATOM      2  C   UNL     1       7.777  -1.957  22.534  0.00  0.00    -0.028 A 
ATOM      3  C   UNL     1       7.381  -0.946  23.410  0.00  0.00    +0.015 A 
ATOM      4  C   UNL     1       8.235   0.134  23.669  0.00  0.00    +0.001 A 
ATOM      5  C   UNL     1       9.492   0.156  23.029  0.00  0.00    +0.071 A 
ATOM      6  C   UNL     1      10.326   1.242  23.257  0.00  0.00    +0.028 A 
ATOM      7  C   UNL     1       9.945   2.298  24.090  0.00  0.00    +0.002 A 
ATOM      8  C   UNL     1       8.710   2.266  24.728  0.00  0.00    +0.001 A 
ATOM      9  N   UNL     1       9.896  -0.825  22.204  0.00  0.00    -0.255 NA
ATOM     10  C   UNL     1       7.857   1.184  24.523  0.00  0.00    +0.010 A 
ATOM     11  C   UNL     1       9.040  -1.843  21.968  0.00  0.00    +0.115 A 
ENDBRANCH   1   2
BRANCH   1  16
ATOM     12  C   UNL     1       4.626  -6.881  24.715  0.00  0.00    +0.400 C 
ATOM     13  N   UNL     1       5.232  -5.915  23.929  0.00  0.00    -0.268 N 
ATOM     14  C   UNL     1       5.207  -5.801  22.468  0.00  0.00    +0.111 C 
ATOM     15  C   UNL     1       6.618  -5.651  21.901  0.00  0.00    +0.023 C 
ATOM     16  C   UNL     1       7.399  -4.498  22.553  0.00  0.00    -0.004 C 
ATOM     17  C   UNL     1       7.377  -4.691  24.080  0.00  0.00    +0.023 C 
ATOM     18  C   UNL     1       5.957  -4.851  24.624  0.00  0.00    +0.111 C 
ATOM     19  O   UNL     1       4.752  -6.958  25.929  0.00  0.00    -0.226 OA
BRANCH  12  20
ATOM     20  O   UNL     1       3.844  -7.766  24.066  0.00  0.00    -0.466 OA
ATOM     21  H   UNL     1       3.975  -8.684  24.335  0.00  0.00    +0.297 HD
ENDBRANCH  12  20
ENDBRANCH   1  16
TORSDOF 3
ENDMDL
MODEL 2
REMARK VINA RESULT:      -6.8      2.694      4.339
REMARK  Name = 
REMARK  3 active torsions:
REMARK  status: ('A' for Active; 'I' for Inactive)
REMARK    1  A    between atoms: O_1  and  C_2
REMARK    2  A    between atoms: C_7  and  C_8
REMARK    3  A    between atoms: C_8  and  C_9
REMARK                            x       y       z     vdW  Elec       q    Type
REMARK                         _______ _______ _______ _____ _____    ______ ____
ROOT
ATOM      1  C   UNL     1       9.407  -0.304  24.639  0.00  0.00    +0.040 C 
ENDROOT
BRANCH   1   2
ATOM      2  C   UNL     1       9.409   1.186  24.444  0.00  0.00    -0.028 A 
ATOM      3  C   UNL     1      10.518   1.862  23.933  0.00  0.00    +0.015 A 
ATOM      4  C   UNL     1      10.503   3.259  23.827  0.00  0.00    +0.001 A 
ATOM      5  C   UNL     1       9.340   3.944  24.240  0.00  0.00    +0.071 A 
ATOM      6  C   UNL     1       9.336   5.331  24.167  0.00  0.00    +0.028 A 
ATOM      7  C   UNL     1      10.445   6.046  23.706  0.00  0.00    +0.002 A 
ATOM      8  C   UNL     1      11.583   5.365  23.290  0.00  0.00    +0.001 A 
ATOM      9  N   UNL     1       8.256   3.303  24.708  0.00  0.00    -0.255 NA
ATOM     10  C   UNL     1      11.613   3.973  23.345  0.00  0.00    +0.010 A 
ATOM     11  C   UNL     1       8.313   1.957  24.809  0.00  0.00    +0.115 A 
ENDBRANCH   1   2
BRANCH   1  16
ATOM     12  C   UNL     1       7.253  -4.354  22.462  0.00  0.00    +0.400 C 
ATOM     13  N   UNL     1       7.812  -3.191  22.963  0.00  0.00    -0.268 N 
ATOM     14  C   UNL     1       7.542  -1.812  22.542  0.00  0.00    +0.111 C 
ATOM     15  C   UNL     1       8.840  -1.064  22.241  0.00  0.00    +0.023 C 
ATOM     16  C   UNL     1       9.843  -1.122  23.405  0.00  0.00    -0.004 C 
ATOM     17  C   UNL     1      10.069  -2.597  23.785  0.00  0.00    +0.023 C 
ATOM     18  C   UNL     1       8.758  -3.330  24.071  0.00  0.00    +0.111 C 
ATOM     19  O   UNL     1       7.582  -5.480  22.811  0.00  0.00    -0.226 OA
BRANCH  12  20
ATOM     20  O   UNL     1       6.279  -4.196  21.545  0.00  0.00    -0.466 OA
ATOM     21  H   UNL     1       6.561  -3.747  20.739  0.00  0.00    +0.297 HD
ENDBRANCH  12  20
ENDBRANCH   1  16
TORSDOF 3
ENDMDL
MODEL 3
REMARK VINA RESULT:      -6.8      1.890      2.809
REMARK  Name = 
REMARK  3 active torsions:
REMARK  status: ('A' for Active; 'I' for Inactive)
REMARK    1  A    between atoms: O_1  and  C_2
REMARK    2  A    between atoms: C_7  and  C_8
REMARK    3  A    between atoms: C_8  and  C_9
REMARK                            x       y       z     vdW  Elec       q    Type
REMARK                         _______ _______ _______ _____ _____    ______ ____
ROOT
ATOM      1  C   UNL     1       8.623  -2.319  24.970  0.00  0.00    +0.040 C 
ENDROOT
BRANCH   1   2
ATOM      2  C   UNL     1       9.102  -0.938  24.619  0.00  0.00    -0.028 A 
ATOM      3  C   UNL     1       8.479   0.207  25.115  0.00  0.00    +0.015 A 
ATOM      4  C   UNL     1       8.915   1.476  24.712  0.00  0.00    +0.001 A 
ATOM      5  C   UNL     1       9.998   1.551  23.810  0.00  0.00    +0.071 A 
ATOM      6  C   UNL     1      10.411   2.806  23.383  0.00  0.00    +0.028 A 
ATOM      7  C   UNL     1       9.780   3.974  23.820  0.00  0.00    +0.002 A 
ATOM      8  C   UNL     1       8.722   3.896  24.718  0.00  0.00    +0.001 A 
ATOM      9  N   UNL     1      10.624   0.456  23.346  0.00  0.00    -0.255 NA
ATOM     10  C   UNL     1       8.292   2.650  25.169  0.00  0.00    +0.010 A 
ATOM     11  C   UNL     1      10.166  -0.750  23.745  0.00  0.00    +0.115 A 
ENDBRANCH   1   2
BRANCH   1  16
ATOM     12  C   UNL     1       6.317  -5.483  21.737  0.00  0.00    +0.400 C 
ATOM     13  N   UNL     1       6.907  -4.686  22.703  0.00  0.00    -0.268 N 
ATOM     14  C   UNL     1       7.219  -5.040  24.091  0.00  0.00    +0.111 C 
ATOM     15  C   UNL     1       6.668  -3.998  25.064  0.00  0.00    +0.023 C 
ATOM     16  C   UNL     1       7.120  -2.569  24.721  0.00  0.00    -0.004 C 
ATOM     17  C   UNL     1       6.758  -2.278  23.253  0.00  0.00    +0.023 C 
ATOM     18  C   UNL     1       7.309  -3.338  22.299  0.00  0.00    +0.111 C 
ATOM     19  O   UNL     1       6.016  -5.097  20.616  0.00  0.00    -0.226 OA
BRANCH  12  20
ATOM     20  O   UNL     1       6.088  -6.765  22.087  0.00  0.00    -0.466 OA
ATOM     21  H   UNL     1       5.812  -7.333  21.358  0.00  0.00    +0.297 HD
ENDBRANCH  12  20
ENDBRANCH   1  16
TORSDOF 3
ENDMDL
MODEL 4
REMARK VINA RESULT:      -6.7      1.447      1.785
REMARK  Name = 
REMARK  3 active torsions:
REMARK  status: ('A' for Active; 'I' for Inactive)
REMARK    1  A    between atoms: O_1  and  C_2
REMARK    2  A    between atoms: C_7  and  C_8
REMARK    3  A    between atoms: C_8  and  C_9
REMARK                            x       y       z     vdW  Elec       q    Type
REMARK                         _______ _______ _______ _____ _____    ______ ____
ROOT
ATOM      1  C   UNL     1       7.266  -2.746  22.730  0.00  0.00    +0.040 C 
ENDROOT
BRANCH   1   2
ATOM      2  C   UNL     1       8.098  -1.495  22.722  0.00  0.00    -0.028 A 
ATOM      3  C   UNL     1       7.916  -0.482  23.664  0.00  0.00    +0.015 A 
ATOM      4  C   UNL     1       8.668   0.697  23.583  0.00  0.00    +0.001 A 
ATOM      5  C   UNL     1       9.609   0.815  22.537  0.00  0.00    +0.071 A 
ATOM      6  C   UNL     1      10.331   1.996  22.434  0.00  0.00    +0.028 A 
ATOM      7  C   UNL     1      10.142   3.053  23.330  0.00  0.00    +0.002 A 
ATOM      8  C   UNL     1       9.223   2.927  24.365  0.00  0.00    +0.001 A 
ATOM      9  N   UNL     1       9.812  -0.165  21.640  0.00  0.00    -0.255 NA
ATOM     10  C   UNL     1       8.490   1.750  24.496  0.00  0.00    +0.010 A 
ATOM     11  C   UNL     1       9.058  -1.280  21.741  0.00  0.00    +0.115 A 
ENDBRANCH   1   2
BRANCH   1  16
ATOM     12  C   UNL     1       6.606  -5.670  26.828  0.00  0.00    +0.400 C 
ATOM     13  N   UNL     1       6.747  -4.960  25.648  0.00  0.00    -0.268 N 
ATOM     14  C   UNL     1       6.097  -5.221  24.360  0.00  0.00    +0.111 C 
ATOM     15  C   UNL     1       7.121  -5.273  23.227  0.00  0.00    +0.023 C 
ATOM     16  C   UNL     1       8.013  -4.022  23.176  0.00  0.00    -0.004 C 
ATOM     17  C   UNL     1       8.654  -3.818  24.561  0.00  0.00    +0.023 C 
ATOM     18  C   UNL     1       7.614  -3.781  25.681  0.00  0.00    +0.111 C 
ATOM     19  O   UNL     1       7.239  -5.440  27.849  0.00  0.00    -0.226 OA
BRANCH  12  20
ATOM     20  O   UNL     1       5.694  -6.662  26.816  0.00  0.00    -0.466 OA
ATOM     21  H   UNL     1       5.225  -6.761  25.979  0.00  0.00    +0.297 HD
ENDBRANCH  12  20
ENDBRANCH   1  16
TORSDOF 3
ENDMDL
MODEL 5
REMARK VINA RESULT:      -6.7      3.954      7.445
REMARK  Name = 
REMARK  3 active torsions:
REMARK  status: ('A' for Active; 'I' for Inactive)
REMARK    1  A    between atoms: O_1  and  C_2
REMARK    2  A    between atoms: C_7  and  C_8
REMARK    3  A    between atoms: C_8  and  C_9
REMARK                            x       y       z     vdW  Elec       q    Type
REMARK                         _______ _______ _______ _____ _____    ______ ____
ROOT
ATOM      1  C   UNL     1       9.063  -2.852  24.176  0.00  0.00    +0.040 C 
ENDROOT
BRANCH   1   2
ATOM      2  C   UNL     1       8.214  -3.769  25.011  0.00  0.00    -0.028 A 
ATOM      3  C   UNL     1       7.164  -4.506  24.462  0.00  0.00    +0.015 A 
ATOM      4  C   UNL     1       6.355  -5.300  25.286  0.00  0.00    +0.001 A 
ATOM      5  C   UNL     1       6.645  -5.334  26.667  0.00  0.00    +0.071 A 
ATOM      6  C   UNL     1       5.824  -6.092  27.491  0.00  0.00    +0.028 A 
ATOM      7  C   UNL     1       4.734  -6.806  26.985  0.00  0.00    +0.002 A 
ATOM      8  C   UNL     1       4.460  -6.779  25.623  0.00  0.00    +0.001 A 
ATOM      9  N   UNL     1       7.670  -4.650  27.204  0.00  0.00    -0.255 NA
ATOM     10  C   UNL     1       5.272  -6.031  24.772  0.00  0.00    +0.010 A 
ATOM     11  C   UNL     1       8.418  -3.884  26.380  0.00  0.00    +0.115 A 
ENDBRANCH   1   2
BRANCH   1  16
ATOM     12  C   UNL     1       9.143   1.907  22.407  0.00  0.00    +0.400 C 
ATOM     13  N   UNL     1       9.177   0.578  22.796  0.00  0.00    -0.268 N 
ATOM     14  C   UNL     1      10.082  -0.473  22.320  0.00  0.00    +0.111 C 
ATOM     15  C   UNL     1       9.304  -1.711  21.876  0.00  0.00    +0.023 C 
ATOM     16  C   UNL     1       8.344  -2.228  22.960  0.00  0.00    -0.004 C 
ATOM     17  C   UNL     1       7.434  -1.069  23.404  0.00  0.00    +0.023 C 
ATOM     18  C   UNL     1       8.232   0.163  23.833  0.00  0.00    +0.111 C 
ATOM     19  O   UNL     1       8.308   2.714  22.792  0.00  0.00    -0.226 OA
BRANCH  12  20
ATOM     20  O   UNL     1      10.114   2.301  21.561  0.00  0.00    -0.466 OA
ATOM     21  H   UNL     1      10.583   1.577  21.129  0.00  0.00    +0.297 HD
ENDBRANCH  12  20
ENDBRANCH   1  16
TORSDOF 3
ENDMDL
MODEL 6
REMARK VINA RESULT:      -6.6      1.317      2.040
REMARK  Name = 
REMARK  3 active torsions:
REMARK  status: ('A' for Active; 'I' for Inactive)
REMARK    1  A    between atoms: O_1  and  C_2
REMARK    2  A    between atoms: C_7  and  C_8
REMARK    3  A    between atoms: C_8  and  C_9
REMARK                            x       y       z     vdW  Elec       q    Type
REMARK                         _______ _______ _______ _____ _____    ______ ____
ROOT
ATOM      1  C   UNL     1       7.909  -3.582  22.538  0.00  0.00    +0.040 C 
ENDROOT
BRANCH   1   2
ATOM      2  C   UNL     1       8.534  -2.300  23.010  0.00  0.00    -0.028 A 
ATOM      3  C   UNL     1       8.675  -1.195  22.170  0.00  0.00    +0.015 A 
ATOM      4  C   UNL     1       9.322  -0.040  22.629  0.00  0.00    +0.001 A 
ATOM      5  C   UNL     1       9.808  -0.033  23.954  0.00  0.00    +0.071 A 
ATOM      6  C   UNL     1      10.479   1.098  24.400  0.00  0.00    +0.028 A 
ATOM      7  C   UNL     1      10.682   2.206  23.572  0.00  0.00    +0.002 A 
ATOM      8  C   UNL     1      10.192   2.198  22.272  0.00  0.00    +0.001 A 
ATOM      9  N   UNL     1       9.654  -1.080  24.781  0.00  0.00    -0.255 NA
ATOM     10  C   UNL     1       9.508   1.079  21.800  0.00  0.00    +0.010 A 
ATOM     11  C   UNL     1       9.038  -2.181  24.299  0.00  0.00    +0.115 A 
ENDBRANCH   1   2
BRANCH   1  16
ATOM     12  C   UNL     1       4.542  -6.581  24.874  0.00  0.00    +0.400 C 
ATOM     13  N   UNL     1       5.423  -5.678  24.303  0.00  0.00    -0.268 N 
ATOM     14  C   UNL     1       5.884  -4.401  24.857  0.00  0.00    +0.111 C 
ATOM     15  C   UNL     1       5.709  -3.268  23.847  0.00  0.00    +0.023 C 
ATOM     16  C   UNL     1       6.366  -3.575  22.491  0.00  0.00    -0.004 C 
ATOM     17  C   UNL     1       5.832  -4.926  21.982  0.00  0.00    +0.023 C 
ATOM     18  C   UNL     1       6.006  -6.043  23.011  0.00  0.00    +0.111 C 
ATOM     19  O   UNL     1       4.143  -7.596  24.320  0.00  0.00    -0.226 OA
BRANCH  12  20
ATOM     20  O   UNL     1       4.131  -6.296  26.125  0.00  0.00    -0.466 OA
ATOM     21  H   UNL     1       3.313  -6.737  26.385  0.00  0.00    +0.297 HD
ENDBRANCH  12  20
ENDBRANCH   1  16
TORSDOF 3
ENDMDL
MODEL 7
REMARK VINA RESULT:      -6.6      2.074      2.628
REMARK  Name = 
REMARK  3 active torsions:
REMARK  status: ('A' for Active; 'I' for Inactive)
REMARK    1  A    between atoms: O_1  and  C_2
REMARK    2  A    between atoms: C_7  and  C_8
REMARK    3  A    between atoms: C_8  and  C_9
REMARK                            x       y       z     vdW  Elec       q    Type
REMARK                         _______ _______ _______ _____ _____    ______ ____
ROOT
ATOM      1  C   UNL     1       9.073  -3.532  24.577  0.00  0.00    +0.040 C 
ENDROOT
BRANCH   1   2
ATOM      2  C   UNL     1       9.315  -2.248  23.835  0.00  0.00    -0.028 A 
ATOM      3  C   UNL     1       9.881  -1.134  24.455  0.00  0.00    +0.015 A 
ATOM      4  C   UNL     1      10.030   0.066  23.745  0.00  0.00    +0.001 A 
ATOM      5  C   UNL     1       9.604   0.100  22.400  0.00  0.00    +0.071 A 
ATOM      6  C   UNL     1       9.719   1.296  21.706  0.00  0.00    +0.028 A 
ATOM      7  C   UNL     1      10.236   2.447  22.307  0.00  0.00    +0.002 A 
ATOM      8  C   UNL     1      10.666   2.405  23.628  0.00  0.00    +0.001 A 
ATOM      9  N   UNL     1       9.082  -0.975  21.785  0.00  0.00    -0.255 NA
ATOM     10  C   UNL     1      10.568   1.216  24.347  0.00  0.00    +0.010 A 
ATOM     11  C   UNL     1       8.941  -2.109  22.504  0.00  0.00    +0.115 A 
ENDBRANCH   1   2
BRANCH   1  16
ATOM     12  C   UNL     1       5.042  -5.991  26.446  0.00  0.00    +0.400 C 
ATOM     13  N   UNL     1       6.204  -5.373  26.016  0.00  0.00    -0.268 N 
ATOM     14  C   UNL     1       7.588  -5.788  26.267  0.00  0.00    +0.111 C 
ATOM     15  C   UNL     1       8.419  -4.629  26.817  0.00  0.00    +0.023 C 
ATOM     16  C   UNL     1       8.349  -3.375  25.931  0.00  0.00    -0.004 C 
ATOM     17  C   UNL     1       6.869  -3.008  25.715  0.00  0.00    +0.023 C 
ATOM     18  C   UNL     1       6.054  -4.184  25.176  0.00  0.00    +0.111 C 
ATOM     19  O   UNL     1       3.918  -5.546  26.262  0.00  0.00    -0.226 OA
BRANCH  12  20
ATOM     20  O   UNL     1       5.201  -7.163  27.093  0.00  0.00    -0.466 OA
ATOM     21  H   UNL     1       6.038  -7.607  26.913  0.00  0.00    +0.297 HD
ENDBRANCH  12  20
ENDBRANCH   1  16
TORSDOF 3
ENDMDL
MODEL 8
REMARK VINA RESULT:      -6.6      4.681      7.994
REMARK  Name = 
REMARK  3 active torsions:
REMARK  status: ('A' for Active; 'I' for Inactive)
REMARK    1  A    between atoms: O_1  and  C_2
REMARK    2  A    between atoms: C_7  and  C_8
REMARK    3  A    between atoms: C_8  and  C_9
REMARK                            x       y       z     vdW  Elec       q    Type
REMARK                         _______ _______ _______ _____ _____    ______ ____
ROOT
ATOM      1  C   UNL     1       9.239  -0.272  23.882  0.00  0.00    +0.040 C 
ENDROOT
BRANCH   1   2
ATOM      2  C   UNL     1       8.804  -1.685  23.611  0.00  0.00    -0.028 A 
ATOM      3  C   UNL     1       7.752  -1.980  22.744  0.00  0.00    +0.015 A 
ATOM      4  C   UNL     1       7.336  -3.306  22.569  0.00  0.00    +0.001 A 
ATOM      5  C   UNL     1       8.016  -4.316  23.282  0.00  0.00    +0.071 A 
ATOM      6  C   UNL     1       7.584  -5.628  23.136  0.00  0.00    +0.028 A 
ATOM      7  C   UNL     1       6.503  -5.957  22.314  0.00  0.00    +0.002 A 
ATOM      8  C   UNL     1       5.843  -4.960  21.605  0.00  0.00    +0.001 A 
ATOM      9  N   UNL     1       9.049  -4.047  24.099  0.00  0.00    -0.255 NA
ATOM     10  C   UNL     1       6.260  -3.636  21.727  0.00  0.00    +0.010 A 
ATOM     11  C   UNL     1       9.413  -2.756  24.254  0.00  0.00    +0.115 A 
ENDBRANCH   1   2
BRANCH   1  16
ATOM     12  C   UNL     1       9.711   4.784  23.892  0.00  0.00    +0.400 C 
ATOM     13  N   UNL     1       9.641   3.404  23.792  0.00  0.00    -0.268 N 
ATOM     14  C   UNL     1      10.499   2.518  23.000  0.00  0.00    +0.111 C 
ATOM     15  C   UNL     1       9.666   1.574  22.133  0.00  0.00    +0.023 C 
ATOM     16  C   UNL     1       8.623   0.789  22.944  0.00  0.00    -0.004 C 
ATOM     17  C   UNL     1       7.768   1.788  23.744  0.00  0.00    +0.023 C 
ATOM     18  C   UNL     1       8.621   2.729  24.595  0.00  0.00    +0.111 C 
ATOM     19  O   UNL     1       8.912   5.469  24.515  0.00  0.00    -0.226 OA
BRANCH  12  20
ATOM     20  O   UNL     1      10.746   5.371  23.260  0.00  0.00    -0.466 OA
ATOM     21  H   UNL     1      10.924   5.022  22.378  0.00  0.00    +0.297 HD
ENDBRANCH  12  20
ENDBRANCH   1  16
TORSDOF 3
ENDMDL
MODEL 9
REMARK VINA RESULT:      -6.5      4.511      7.307
REMARK  Name = 
REMARK  3 active torsions:
REMARK  status: ('A' for Active; 'I' for Inactive)
REMARK    1  A    between atoms: O_1  and  C_2
REMARK    2  A    between atoms: C_7  and  C_8
REMARK    3  A    between atoms: C_8  and  C_9
REMARK                            x       y       z     vdW  Elec       q    Type
REMARK                         _______ _______ _______ _____ _____    ______ ____
ROOT
ATOM      1  C   UNL     1      10.059  -0.049  24.015  0.00  0.00    +0.040 C 
ENDROOT
BRANCH   1   2
ATOM      2  C   UNL     1       9.514  -1.389  24.425  0.00  0.00    -0.028 A 
ATOM      3  C   UNL     1       8.502  -1.514  25.376  0.00  0.00    +0.015 A 
ATOM      4  C   UNL     1       8.067  -2.784  25.777  0.00  0.00    +0.001 A 
ATOM      5  C   UNL     1       8.673  -3.912  25.185  0.00  0.00    +0.071 A 
ATOM      6  C   UNL     1       8.268  -5.172  25.605  0.00  0.00    +0.028 A 
ATOM      7  C   UNL     1       7.291  -5.338  26.591  0.00  0.00    +0.002 A 
ATOM      8  C   UNL     1       6.688  -4.223  27.163  0.00  0.00    +0.001 A 
ATOM      9  N   UNL     1       9.630  -3.804  24.247  0.00  0.00    -0.255 NA
ATOM     10  C   UNL     1       7.070  -2.947  26.755  0.00  0.00    +0.010 A 
ATOM     11  C   UNL     1      10.033  -2.564  23.897  0.00  0.00    +0.115 A 
ENDBRANCH   1   2
BRANCH   1  16
ATOM     12  C   UNL     1       7.160   3.732  22.259  0.00  0.00    +0.400 C 
ATOM     13  N   UNL     1       8.041   2.757  22.697  0.00  0.00    -0.268 N 
ATOM     14  C   UNL     1       9.485   2.884  22.913  0.00  0.00    +0.111 C 
ATOM     15  C   UNL     1      10.250   1.771  22.198  0.00  0.00    +0.023 C 
ATOM     16  C   UNL     1       9.736   0.369  22.564  0.00  0.00    -0.004 C 
ATOM     17  C   UNL     1       8.218   0.320  22.311  0.00  0.00    +0.023 C 
ATOM     18  C   UNL     1       7.475   1.449  23.026  0.00  0.00    +0.111 C 
ATOM     19  O   UNL     1       5.975   3.535  22.029  0.00  0.00    -0.226 OA
BRANCH  12  20
ATOM     20  O   UNL     1       7.676   4.968  22.102  0.00  0.00    -0.466 OA
ATOM     21  H   UNL     1       7.351   5.438  21.325  0.00  0.00    +0.297 HD
ENDBRANCH  12  20
ENDBRANCH   1  16
TORSDOF 3
ENDMDL
