MODEL 1
REMARK VINA RESULT:      -3.9      0.000      0.000
REMARK  Name = 
REMARK  1 active torsions:
REMARK  status: ('A' for Active; 'I' for Inactive)
REMARK    1  A    between atoms: O_1  and  C_2
REMARK                            x       y       z     vdW  Elec       q    Type
REMARK                         _______ _______ _______ _____ _____    ______ ____
ROOT
ATOM      1  C   UNL     1       9.956   1.024  22.140  0.00  0.00    +0.117 A 
ATOM      2  C   UNL     1      10.324   0.993  23.481  0.00  0.00    +0.045 A 
ATOM      3  C   UNL     1      10.319  -0.218  24.170  0.00  0.00    +0.004 A 
ATOM      4  C   UNL     1       9.944  -1.391  23.515  0.00  0.00    +0.000 A 
ATOM      5  C   UNL     1       9.577  -1.353  22.168  0.00  0.00    +0.004 A 
ATOM      6  C   UNL     1       9.582  -0.141  21.476  0.00  0.00    +0.045 A 
ENDROOT
BRANCH   1   7
ATOM      7  O   UNL     1       9.973   2.229  21.504  0.00  0.00    -0.507 OA
ATOM      8  H   UNL     1       9.943   2.932  22.174  0.00  0.00    +0.292 HD
ENDBRANCH   1   7
TORSDOF 1
ENDMDL
MODEL 2
REMARK VINA RESULT:      -3.9      0.040      1.828
REMARK  Name = 
REMARK  1 active torsions:
REMARK  status: ('A' for Active; 'I' for Inactive)
REMARK    1  A    between atoms: O_1  and  C_2
REMARK                            x       y       z     vdW  Elec       q    Type
REMARK                         _______ _______ _______ _____ _____    ______ ____
ROOT
ATOM      1  C   UNL     1       9.961   1.034  22.169  0.00  0.00    +0.117 A 
ATOM      2  C   UNL     1       9.583  -0.110  21.475  0.00  0.00    +0.045 A 
ATOM      3  C   UNL     1       9.572  -1.342  22.128  0.00  0.00    +0.004 A 
ATOM      4  C   UNL     1       9.941  -1.421  23.471  0.00  0.00    +0.000 A 
ATOM      5  C   UNL     1      10.317  -0.268  24.162  0.00  0.00    +0.004 A 
ATOM      6  C   UNL     1      10.329   0.966  23.510  0.00  0.00    +0.045 A 
ENDROOT
BRANCH   1   7
ATOM      7  O   UNL     1       9.960   2.218  21.492  0.00  0.00    -0.507 OA
ATOM      8  H   UNL     1      10.037   2.940  22.137  0.00  0.00    +0.292 HD
ENDBRANCH   1   7
TORSDOF 1
ENDMDL
MODEL 3
REMARK VINA RESULT:      -3.9      1.478      2.571
REMARK  Name = 
REMARK  1 active torsions:
REMARK  status: ('A' for Active; 'I' for Inactive)
REMARK    1  A    between atoms: O_1  and  C_2
REMARK                            x       y       z     vdW  Elec       q    Type
REMARK                         _______ _______ _______ _____ _____    ______ ____
ROOT
ATOM      1  C   UNL     1       9.895  -0.048  22.050  0.00  0.00    +0.117 A 
ATOM      2  C   UNL     1       9.790   1.313  21.786  0.00  0.00    +0.045 A 
ATOM      3  C   UNL     1      10.132   2.235  22.774  0.00  0.00    +0.004 A 
ATOM      4  C   UNL     1      10.575   1.790  24.020  0.00  0.00    +0.000 A 
ATOM      5  C   UNL     1      10.679   0.422  24.276  0.00  0.00    +0.004 A 
ATOM      6  C   UNL     1      10.337  -0.503  23.288  0.00  0.00    +0.045 A 
ENDROOT
BRANCH   1   7
ATOM      7  O   UNL     1       9.548  -0.916  21.057  0.00  0.00    -0.507 OA
ATOM      8  H   UNL     1      10.131  -0.761  20.295  0.00  0.00    +0.292 HD
ENDBRANCH   1   7
TORSDOF 1
ENDMDL
MODEL 4
REMARK VINA RESULT:      -3.9      1.484      2.419
REMARK  Name = 
REMARK  1 active torsions:
REMARK  status: ('A' for Active; 'I' for Inactive)
REMARK    1  A    between atoms: O_1  and  C_2
REMARK                            x       y       z     vdW  Elec       q    Type
REMARK                         _______ _______ _______ _____ _____    ______ ____
ROOT
ATOM      1  C   UNL     1       9.892  -0.020  22.026  0.00  0.00    +0.117 A 
ATOM      2  C   UNL     1      10.330  -0.501  23.254  0.00  0.00    +0.045 A 
ATOM      3  C   UNL     1      10.676   0.397  24.263  0.00  0.00    +0.004 A 
ATOM      4  C   UNL     1      10.582   1.770  24.036  0.00  0.00    +0.000 A 
ATOM      5  C   UNL     1      10.139   2.245  22.800  0.00  0.00    +0.004 A 
ATOM      6  C   UNL     1       9.793   1.348  21.789  0.00  0.00    +0.045 A 
ENDROOT
BRANCH   1   7
ATOM      7  O   UNL     1       9.566  -0.932  21.066  0.00  0.00    -0.507 OA
ATOM      8  H   UNL     1       8.736  -1.367  21.323  0.00  0.00    +0.292 HD
ENDBRANCH   1   7
TORSDOF 1
ENDMDL
MODEL 5
REMARK VINA RESULT:      -3.8      4.813      6.067
REMARK  Name = 
REMARK  1 active torsions:
REMARK  status: ('A' for Active; 'I' for Inactive)
REMARK    1  A    between atoms: O_1  and  C_2
REMARK                            x       y       z     vdW  Elec       q    Type
REMARK                         _______ _______ _______ _____ _____    ______ ____
ROOT
ATOM      1  C   UNL     1      12.712   5.179  23.568  0.00  0.00    +0.117 A 
ATOM      2  C   UNL     1      11.835   4.155  23.226  0.00  0.00    +0.045 A 
ATOM      3  C   UNL     1      10.488   4.259  23.568  0.00  0.00    +0.004 A 
ATOM      4  C   UNL     1      10.026   5.384  24.251  0.00  0.00    +0.000 A 
ATOM      5  C   UNL     1      10.913   6.409  24.588  0.00  0.00    +0.004 A 
ATOM      6  C   UNL     1      12.262   6.307  24.247  0.00  0.00    +0.045 A 
ENDROOT
BRANCH   1   7
ATOM      7  O   UNL     1      14.022   5.037  23.216  0.00  0.00    -0.507 OA
ATOM      8  H   UNL     1      14.095   5.143  22.254  0.00  0.00    +0.292 HD
ENDBRANCH   1   7
TORSDOF 1
ENDMDL
MODEL 6
REMARK VINA RESULT:      -3.7      1.675      2.697
REMARK  Name = 
REMARK  1 active torsions:
REMARK  status: ('A' for Active; 'I' for Inactive)
REMARK    1  A    between atoms: O_1  and  C_2
REMARK                            x       y       z     vdW  Elec       q    Type
REMARK                         _______ _______ _______ _____ _____    ______ ____
ROOT
ATOM      1  C   UNL     1      10.324   0.398  24.055  0.00  0.00    +0.117 A 
ATOM      2  C   UNL     1      10.105  -0.886  23.570  0.00  0.00    +0.045 A 
ATOM      3  C   UNL     1       9.713  -1.065  22.244  0.00  0.00    +0.004 A 
ATOM      4  C   UNL     1       9.543   0.042  21.413  0.00  0.00    +0.000 A 
ATOM      5  C   UNL     1       9.768   1.328  21.906  0.00  0.00    +0.004 A 
ATOM      6  C   UNL     1      10.160   1.510  23.233  0.00  0.00    +0.045 A 
ENDROOT
BRANCH   1   7
ATOM      7  O   UNL     1      10.704   0.530  25.358  0.00  0.00    -0.507 OA
ATOM      8  H   UNL     1      10.566   1.452  25.628  0.00  0.00    +0.292 HD
ENDBRANCH   1   7
TORSDOF 1
ENDMDL
MODEL 7
REMARK VINA RESULT:      -3.7      1.665      2.462
REMARK  Name = 
REMARK  1 active torsions:
REMARK  status: ('A' for Active; 'I' for Inactive)
REMARK    1  A    between atoms: O_1  and  C_2
REMARK                            x       y       z     vdW  Elec       q    Type
REMARK                         _______ _______ _______ _____ _____    ______ ____
ROOT
ATOM      1  C   UNL     1      10.301   0.329  24.083  0.00  0.00    +0.117 A 
ATOM      2  C   UNL     1      10.179   1.442  23.259  0.00  0.00    +0.045 A 
ATOM      3  C   UNL     1       9.799   1.277  21.927  0.00  0.00    +0.004 A 
ATOM      4  C   UNL     1       9.544  -0.000  21.429  0.00  0.00    +0.000 A 
ATOM      5  C   UNL     1       9.666  -1.113  22.263  0.00  0.00    +0.004 A 
ATOM      6  C   UNL     1      10.047  -0.950  23.596  0.00  0.00    +0.045 A 
ENDROOT
BRANCH   1   7
ATOM      7  O   UNL     1      10.677   0.534  25.377  0.00  0.00    -0.507 OA
ATOM      8  H   UNL     1      10.320  -0.188  25.920  0.00  0.00    +0.292 HD
ENDBRANCH   1   7
TORSDOF 1
ENDMDL
MODEL 8
REMARK VINA RESULT:      -3.7      2.075      2.753
REMARK  Name = 
REMARK  1 active torsions:
REMARK  status: ('A' for Active; 'I' for Inactive)
REMARK    1  A    between atoms: O_1  and  C_2
REMARK                            x       y       z     vdW  Elec       q    Type
REMARK                         _______ _______ _______ _____ _____    ______ ____
ROOT
ATOM      1  C   UNL     1      10.050  -1.513  23.144  0.00  0.00    +0.117 A 
ATOM      2  C   UNL     1      10.435  -0.425  23.920  0.00  0.00    +0.045 A 
ATOM      3  C   UNL     1      10.317   0.866  23.406  0.00  0.00    +0.004 A 
ATOM      4  C   UNL     1       9.816   1.059  22.119  0.00  0.00    +0.000 A 
ATOM      5  C   UNL     1       9.429  -0.038  21.346  0.00  0.00    +0.004 A 
ATOM      6  C   UNL     1       9.547  -1.330  21.859  0.00  0.00    +0.045 A 
ENDROOT
BRANCH   1   7
ATOM      7  O   UNL     1      10.184  -2.758  23.684  0.00  0.00    -0.507 OA
ATOM      8  H   UNL     1       9.297  -3.122  23.841  0.00  0.00    +0.292 HD
ENDBRANCH   1   7
TORSDOF 1
ENDMDL
MODEL 9
REMARK VINA RESULT:      -3.4      2.273      2.999
REMARK  Name = 
REMARK  1 active torsions:
REMARK  status: ('A' for Active; 'I' for Inactive)
REMARK    1  A    between atoms: O_1  and  C_2
REMARK                            x       y       z     vdW  Elec       q    Type
REMARK                         _______ _______ _______ _____ _____    ______ ____
ROOT
ATOM      1  C   UNL     1       9.242  -0.666  21.878  0.00  0.00    +0.117 A 
ATOM      2  C   UNL     1       9.383   0.644  21.437  0.00  0.00    +0.045 A 
ATOM      3  C   UNL     1       8.403   1.586  21.746  0.00  0.00    +0.004 A 
ATOM      4  C   UNL     1       7.287   1.211  22.494  0.00  0.00    +0.000 A 
ATOM      5  C   UNL     1       7.153  -0.107  22.935  0.00  0.00    +0.004 A 
ATOM      6  C   UNL     1       8.134  -1.051  22.627  0.00  0.00    +0.045 A 
ENDROOT
BRANCH   1   7
ATOM      7  O   UNL     1      10.222  -1.557  21.552  0.00  0.00    -0.507 OA
ATOM      8  H   UNL     1      11.058  -1.072  21.455  0.00  0.00    +0.292 HD
ENDBRANCH   1   7
TORSDOF 1
ENDMDL
