MODEL 1
REMARK VINA RESULT:      -7.1      0.000      0.000
REMARK  Name = 
REMARK  7 active torsions:
REMARK  status: ('A' for Active; 'I' for Inactive)
REMARK    1  A    between atoms: C_1  and  C_2
REMARK    2  A    between atoms: C_2  and  C_3
REMARK    3  A    between atoms: C_3  and  N_4
REMARK    4  A    between atoms: C_8  and  C_10
REMARK    5  A    between atoms: N_21  and  C_22
REMARK    6  A    between atoms: C_22  and  C_23
REMARK    7  A    between atoms: C_23  and  C_24
REMARK                            x       y       z     vdW  Elec       q    Type
REMARK                         _______ _______ _______ _____ _____    ______ ____
ROOT
ATOM      1  N   UNL     1       6.354  -3.917  23.840  0.00  0.00    -0.276 N 
ATOM      2  C   UNL     1       6.159  -4.887  24.826  0.00  0.00    +0.334 A 
ATOM      3  O   UNL     1       5.219  -5.686  24.755  0.00  0.00    -0.246 OA
ATOM      4  N   UNL     1       7.065  -4.922  25.900  0.00  0.00    -0.259 N 
ATOM      5  C   UNL     1       8.138  -4.039  26.070  0.00  0.00    +0.282 A 
ATOM      6  O   UNL     1       8.913  -4.080  27.012  0.00  0.00    -0.265 OA
ATOM      7  C   UNL     1       8.261  -3.081  25.025  0.00  0.00    +0.149 A 
ATOM      8  N   UNL     1       9.148  -2.048  24.845  0.00  0.00    -0.336 N 
ATOM      9  H   UNL     1       9.890  -1.790  25.486  0.00  0.00    +0.167 HD
ATOM     10  C   UNL     1       8.734  -1.347  23.728  0.00  0.00    +0.116 A 
ATOM     11  N   UNL     1       7.725  -1.992  23.144  0.00  0.00    -0.214 NA
ATOM     12  C   UNL     1       7.408  -3.029  23.969  0.00  0.00    +0.168 A 
ENDROOT
BRANCH  10  13
ATOM     13  C   UNL     1       9.116   0.066  23.388  0.00  0.00    +0.032 C 
ATOM     14  C   UNL     1      10.403   0.515  24.115  0.00  0.00    +0.018 C 
ATOM     15  C   UNL     1      10.414   2.019  23.828  0.00  0.00    -0.009 C 
ATOM     16  C   UNL     1      10.498   2.264  22.294  0.00  0.00    +0.007 C 
ATOM     17  C   UNL     1       9.328   1.572  21.547  0.00  0.00    -0.009 C 
ATOM     18  C   UNL     1       7.976   1.906  22.188  0.00  0.00    +0.008 C 
ATOM     19  C   UNL     1       9.016   2.370  24.336  0.00  0.00    +0.008 C 
ATOM     20  C   UNL     1       8.156   1.308  23.601  0.00  0.00    +0.003 C 
ATOM     21  C   UNL     1       9.378   0.087  21.859  0.00  0.00    +0.018 C 
ENDBRANCH  10  13
BRANCH   1  22
ATOM     22  C   UNL     1       5.408  -3.844  22.729  0.00  0.00    +0.128 C 
BRANCH  22  24
ATOM     23  C   UNL     1       6.139  -5.828  21.352  0.00  0.00    +0.005 C 
ATOM     24  C   UNL     1       6.010  -4.312  21.401  0.00  0.00    +0.018 C 
ENDBRANCH  22  24
ENDBRANCH   1  22
BRANCH   4  25
ATOM     25  C   UNL     1       6.905  -6.001  26.879  0.00  0.00    +0.130 C 
BRANCH  25  26
ATOM     26  C   UNL     1       5.979  -5.683  28.062  0.00  0.00    +0.018 C 
ATOM     27  C   UNL     1       4.836  -6.670  28.259  0.00  0.00    +0.005 C 
ENDBRANCH  25  26
ENDBRANCH   4  25
TORSDOF 5
ENDMDL
MODEL 2
REMARK VINA RESULT:      -7.0      1.688      3.537
REMARK  Name = 
REMARK  7 active torsions:
REMARK  status: ('A' for Active; 'I' for Inactive)
REMARK    1  A    between atoms: C_1  and  C_2
REMARK    2  A    between atoms: C_2  and  C_3
REMARK    3  A    between atoms: C_3  and  N_4
REMARK    4  A    between atoms: C_8  and  C_10
REMARK    5  A    between atoms: N_21  and  C_22
REMARK    6  A    between atoms: C_22  and  C_23
REMARK    7  A    between atoms: C_23  and  C_24
REMARK                            x       y       z     vdW  Elec       q    Type
REMARK                         _______ _______ _______ _____ _____    ______ ____
ROOT
ATOM      1  N   UNL     1       6.809  -4.036  25.582  0.00  0.00    -0.276 N 
ATOM      2  C   UNL     1       6.104  -5.169  25.169  0.00  0.00    +0.334 A 
ATOM      3  O   UNL     1       6.107  -6.202  25.847  0.00  0.00    -0.246 OA
ATOM      4  N   UNL     1       5.394  -5.095  23.958  0.00  0.00    -0.259 N 
ATOM      5  C   UNL     1       5.360  -3.974  23.119  0.00  0.00    +0.282 A 
ATOM      6  O   UNL     1       4.742  -3.928  22.067  0.00  0.00    -0.265 OA
ATOM      7  C   UNL     1       6.108  -2.868  23.612  0.00  0.00    +0.149 A 
ATOM      8  N   UNL     1       6.340  -1.624  23.077  0.00  0.00    -0.336 N 
ATOM      9  H   UNL     1       5.999  -1.295  22.182  0.00  0.00    +0.167 HD
ATOM     10  C   UNL     1       7.244  -0.989  23.908  0.00  0.00    +0.116 A 
ATOM     11  N   UNL     1       7.457  -1.734  24.991  0.00  0.00    -0.214 NA
ATOM     12  C   UNL     1       6.795  -2.906  24.783  0.00  0.00    +0.168 A 
ENDROOT
BRANCH  10  13
ATOM     13  C   UNL     1       8.105   0.184  23.532  0.00  0.00    +0.032 C 
ATOM     14  C   UNL     1       7.447   1.070  22.452  0.00  0.00    +0.018 C 
ATOM     15  C   UNL     1       8.603   1.996  22.061  0.00  0.00    -0.009 C 
ATOM     16  C   UNL     1       9.056   2.825  23.296  0.00  0.00    +0.007 C 
ATOM     17  C   UNL     1       9.465   1.905  24.476  0.00  0.00    -0.009 C 
ATOM     18  C   UNL     1      10.447   0.817  24.026  0.00  0.00    +0.008 C 
ATOM     19  C   UNL     1       9.655   0.938  21.730  0.00  0.00    +0.008 C 
ATOM     20  C   UNL     1       9.590   0.045  22.998  0.00  0.00    +0.003 C 
ATOM     21  C   UNL     1       8.277   1.025  24.824  0.00  0.00    +0.018 C 
ENDBRANCH  10  13
BRANCH   1  22
ATOM     22  C   UNL     1       7.577  -4.100  26.824  0.00  0.00    +0.128 C 
BRANCH  22  24
ATOM     23  C   UNL     1       9.490  -5.207  25.604  0.00  0.00    +0.005 C 
ATOM     24  C   UNL     1       9.090  -4.115  26.588  0.00  0.00    +0.018 C 
ENDBRANCH  22  24
ENDBRANCH   1  22
BRANCH   4  25
ATOM     25  C   UNL     1       4.584  -6.257  23.582  0.00  0.00    +0.130 C 
BRANCH  25  26
ATOM     26  C   UNL     1       3.136  -6.240  24.091  0.00  0.00    +0.018 C 
ATOM     27  C   UNL     1       2.079  -6.145  22.999  0.00  0.00    +0.005 C 
ENDBRANCH  25  26
ENDBRANCH   4  25
TORSDOF 5
ENDMDL
MODEL 3
REMARK VINA RESULT:      -7.0      1.576      2.252
REMARK  Name = 
REMARK  7 active torsions:
REMARK  status: ('A' for Active; 'I' for Inactive)
REMARK    1  A    between atoms: C_1  and  C_2
REMARK    2  A    between atoms: C_2  and  C_3
REMARK    3  A    between atoms: C_3  and  N_4
REMARK    4  A    between atoms: C_8  and  C_10
REMARK    5  A    between atoms: N_21  and  C_22
REMARK    6  A    between atoms: C_22  and  C_23
REMARK    7  A    between atoms: C_23  and  C_24
REMARK                            x       y       z     vdW  Elec       q    Type
REMARK                         _______ _______ _______ _____ _____    ______ ____
ROOT
ATOM      1  N   UNL     1       5.659  -5.616  24.419  0.00  0.00    -0.276 N 
ATOM      2  C   UNL     1       5.040  -6.375  25.415  0.00  0.00    +0.334 A 
ATOM      3  O   UNL     1       4.131  -7.165  25.139  0.00  0.00    -0.246 OA
ATOM      4  N   UNL     1       5.485  -6.210  26.738  0.00  0.00    -0.259 N 
ATOM      5  C   UNL     1       6.489  -5.319  27.137  0.00  0.00    +0.282 A 
ATOM      6  O   UNL     1       6.860  -5.183  28.292  0.00  0.00    -0.265 OA
ATOM      7  C   UNL     1       7.061  -4.582  26.063  0.00  0.00    +0.149 A 
ATOM      8  N   UNL     1       8.032  -3.610  26.049  0.00  0.00    -0.336 N 
ATOM      9  H   UNL     1       8.506  -3.240  26.864  0.00  0.00    +0.167 HD
ATOM     10  C   UNL     1       8.111  -3.136  24.753  0.00  0.00    +0.116 A 
ATOM     11  N   UNL     1       7.337  -3.873  23.958  0.00  0.00    -0.214 NA
ATOM     12  C   UNL     1       6.660  -4.729  24.773  0.00  0.00    +0.168 A 
ENDROOT
BRANCH  10  13
ATOM     13  C   UNL     1       8.702  -1.818  24.337  0.00  0.00    +0.032 C 
ATOM     14  C   UNL     1       9.078  -0.937  25.549  0.00  0.00    +0.018 C 
ATOM     15  C   UNL     1       9.382   0.405  24.876  0.00  0.00    -0.009 C 
ATOM     16  C   UNL     1      10.571   0.242  23.886  0.00  0.00    +0.007 C 
ATOM     17  C   UNL     1      10.276  -0.850  22.824  0.00  0.00    -0.009 C 
ATOM     18  C   UNL     1       8.907  -0.641  22.169  0.00  0.00    +0.008 C 
ATOM     19  C   UNL     1       8.078   0.584  24.099  0.00  0.00    +0.008 C 
ATOM     20  C   UNL     1       7.965  -0.789  23.385  0.00  0.00    +0.003 C 
ATOM     21  C   UNL     1       9.997  -2.154  23.550  0.00  0.00    +0.018 C 
ENDBRANCH  10  13
BRANCH   1  22
ATOM     22  C   UNL     1       5.193  -5.751  23.040  0.00  0.00    +0.128 C 
BRANCH  22  24
ATOM     23  C   UNL     1       6.318  -5.659  20.783  0.00  0.00    +0.005 C 
ATOM     24  C   UNL     1       6.237  -6.388  22.118  0.00  0.00    +0.018 C 
ENDBRANCH  22  24
ENDBRANCH   1  22
BRANCH   4  25
ATOM     25  C   UNL     1       4.893  -7.078  27.759  0.00  0.00    +0.130 C 
BRANCH  25  26
ATOM     26  C   UNL     1       3.665  -6.502  28.478  0.00  0.00    +0.018 C 
ATOM     27  C   UNL     1       3.485  -6.982  29.913  0.00  0.00    +0.005 C 
ENDBRANCH  25  26
ENDBRANCH   4  25
TORSDOF 5
ENDMDL
MODEL 4
REMARK VINA RESULT:      -6.7      1.445      2.107
REMARK  Name = 
REMARK  7 active torsions:
REMARK  status: ('A' for Active; 'I' for Inactive)
REMARK    1  A    between atoms: C_1  and  C_2
REMARK    2  A    between atoms: C_2  and  C_3
REMARK    3  A    between atoms: C_3  and  N_4
REMARK    4  A    between atoms: C_8  and  C_10
REMARK    5  A    between atoms: N_21  and  C_22
REMARK    6  A    between atoms: C_22  and  C_23
REMARK    7  A    between atoms: C_23  and  C_24
REMARK                            x       y       z     vdW  Elec       q    Type
REMARK                         _______ _______ _______ _____ _____    ______ ____
ROOT
ATOM      1  N   UNL     1       6.975  -4.353  24.265  0.00  0.00    -0.276 N 
ATOM      2  C   UNL     1       6.027  -4.999  25.062  0.00  0.00    +0.334 A 
ATOM      3  O   UNL     1       5.655  -6.148  24.802  0.00  0.00    -0.246 OA
ATOM      4  N   UNL     1       5.513  -4.300  26.167  0.00  0.00    -0.259 N 
ATOM      5  C   UNL     1       5.862  -2.989  26.516  0.00  0.00    +0.282 A 
ATOM      6  O   UNL     1       5.401  -2.393  27.477  0.00  0.00    -0.265 OA
ATOM      7  C   UNL     1       6.826  -2.404  25.649  0.00  0.00    +0.149 A 
ATOM      8  N   UNL     1       7.392  -1.152  25.639  0.00  0.00    -0.336 N 
ATOM      9  H   UNL     1       7.177  -0.404  26.288  0.00  0.00    +0.167 HD
ATOM     10  C   UNL     1       8.169  -1.067  24.499  0.00  0.00    +0.116 A 
ATOM     11  N   UNL     1       8.212  -2.255  23.897  0.00  0.00    -0.214 NA
ATOM     12  C   UNL     1       7.350  -3.059  24.580  0.00  0.00    +0.168 A 
ENDROOT
BRANCH  10  13
ATOM     13  C   UNL     1       8.630   0.205  23.846  0.00  0.00    +0.032 C 
ATOM     14  C   UNL     1       7.726   0.616  22.662  0.00  0.00    +0.018 C 
ATOM     15  C   UNL     1       8.544   1.741  22.021  0.00  0.00    -0.009 C 
ATOM     16  C   UNL     1       8.732   2.902  23.038  0.00  0.00    +0.007 C 
ATOM     17  C   UNL     1       9.409   2.407  24.343  0.00  0.00    -0.009 C 
ATOM     18  C   UNL     1      10.672   1.590  24.046  0.00  0.00    +0.008 C 
ATOM     19  C   UNL     1       9.866   0.997  21.830  0.00  0.00    +0.008 C 
ATOM     20  C   UNL     1      10.084   0.406  23.248  0.00  0.00    +0.003 C 
ATOM     21  C   UNL     1       8.547   1.306  24.936  0.00  0.00    +0.018 C 
ENDBRANCH  10  13
BRANCH   1  22
ATOM     22  C   UNL     1       7.502  -5.052  23.094  0.00  0.00    +0.128 C 
BRANCH  22  24
ATOM     23  C   UNL     1       6.096  -5.899  21.178  0.00  0.00    +0.005 C 
ATOM     24  C   UNL     1       6.770  -4.684  21.800  0.00  0.00    +0.018 C 
ENDBRANCH  22  24
ENDBRANCH   1  22
BRANCH   4  25
ATOM     25  C   UNL     1       4.590  -5.021  27.049  0.00  0.00    +0.130 C 
BRANCH  25  26
ATOM     26  C   UNL     1       5.254  -5.842  28.163  0.00  0.00    +0.018 C 
ATOM     27  C   UNL     1       4.298  -6.714  28.967  0.00  0.00    +0.005 C 
ENDBRANCH  25  26
ENDBRANCH   4  25
TORSDOF 5
ENDMDL
MODEL 5
REMARK VINA RESULT:      -6.4      1.961      3.470
REMARK  Name = 
REMARK  7 active torsions:
REMARK  status: ('A' for Active; 'I' for Inactive)
REMARK    1  A    between atoms: C_1  and  C_2
REMARK    2  A    between atoms: C_2  and  C_3
REMARK    3  A    between atoms: C_3  and  N_4
REMARK    4  A    between atoms: C_8  and  C_10
REMARK    5  A    between atoms: N_21  and  C_22
REMARK    6  A    between atoms: C_22  and  C_23
REMARK    7  A    between atoms: C_23  and  C_24
REMARK                            x       y       z     vdW  Elec       q    Type
REMARK                         _______ _______ _______ _____ _____    ______ ____
ROOT
ATOM      1  N   UNL     1       5.925  -3.552  25.465  0.00  0.00    -0.276 N 
ATOM      2  C   UNL     1       5.383  -4.741  24.973  0.00  0.00    +0.334 A 
ATOM      3  O   UNL     1       5.095  -5.672  25.734  0.00  0.00    -0.246 OA
ATOM      4  N   UNL     1       5.177  -4.844  23.587  0.00  0.00    -0.259 N 
ATOM      5  C   UNL     1       5.500  -3.850  22.655  0.00  0.00    +0.282 A 
ATOM      6  O   UNL     1       5.320  -3.958  21.452  0.00  0.00    -0.265 OA
ATOM      7  C   UNL     1       6.051  -2.676  23.240  0.00  0.00    +0.149 A 
ATOM      8  N   UNL     1       6.511  -1.513  22.671  0.00  0.00    -0.336 N 
ATOM      9  H   UNL     1       6.540  -1.315  21.677  0.00  0.00    +0.167 HD
ATOM     10  C   UNL     1       7.064  -0.756  23.686  0.00  0.00    +0.116 A 
ATOM     11  N   UNL     1       6.832  -1.343  24.859  0.00  0.00    -0.214 NA
ATOM     12  C   UNL     1       6.251  -2.542  24.577  0.00  0.00    +0.168 A 
ENDROOT
BRANCH  10  13
ATOM     13  C   UNL     1       8.046   0.367  23.507  0.00  0.00    +0.032 C 
ATOM     14  C   UNL     1       8.990   0.518  24.721  0.00  0.00    +0.018 C 
ATOM     15  C   UNL     1       9.675   1.854  24.419  0.00  0.00    -0.009 C 
ATOM     16  C   UNL     1      10.461   1.754  23.081  0.00  0.00    +0.007 C 
ATOM     17  C   UNL     1       9.534   1.336  21.910  0.00  0.00    -0.009 C 
ATOM     18  C   UNL     1       8.269   2.201  21.859  0.00  0.00    +0.008 C 
ATOM     19  C   UNL     1       8.432   2.723  24.228  0.00  0.00    +0.008 C 
ATOM     20  C   UNL     1       7.620   1.866  23.220  0.00  0.00    +0.003 C 
ATOM     21  C   UNL     1       8.897   0.003  22.262  0.00  0.00    +0.018 C 
ENDBRANCH  10  13
BRANCH   1  22
ATOM     22  C   UNL     1       6.173  -3.433  26.901  0.00  0.00    +0.128 C 
BRANCH  22  24
ATOM     23  C   UNL     1       4.159  -3.632  28.408  0.00  0.00    +0.005 C 
ATOM     24  C   UNL     1       5.063  -2.679  27.638  0.00  0.00    +0.018 C 
ENDBRANCH  22  24
ENDBRANCH   1  22
BRANCH   4  25
ATOM     25  C   UNL     1       4.523  -6.060  23.093  0.00  0.00    +0.130 C 
BRANCH  25  26
ATOM     26  C   UNL     1       2.992  -5.992  23.008  0.00  0.00    +0.018 C 
ATOM     27  C   UNL     1       2.261  -7.035  23.843  0.00  0.00    +0.005 C 
ENDBRANCH  25  26
ENDBRANCH   4  25
TORSDOF 5
ENDMDL
MODEL 6
REMARK VINA RESULT:      -6.3      2.137      2.858
REMARK  Name = 
REMARK  7 active torsions:
REMARK  status: ('A' for Active; 'I' for Inactive)
REMARK    1  A    between atoms: C_1  and  C_2
REMARK    2  A    between atoms: C_2  and  C_3
REMARK    3  A    between atoms: C_3  and  N_4
REMARK    4  A    between atoms: C_8  and  C_10
REMARK    5  A    between atoms: N_21  and  C_22
REMARK    6  A    between atoms: C_22  and  C_23
REMARK    7  A    between atoms: C_23  and  C_24
REMARK                            x       y       z     vdW  Elec       q    Type
REMARK                         _______ _______ _______ _____ _____    ______ ____
ROOT
ATOM      1  N   UNL     1       6.240  -4.391  24.155  0.00  0.00    -0.276 N 
ATOM      2  C   UNL     1       4.986  -4.876  24.532  0.00  0.00    +0.334 A 
ATOM      3  O   UNL     1       4.665  -6.049  24.312  0.00  0.00    -0.246 OA
ATOM      4  N   UNL     1       4.103  -3.987  25.169  0.00  0.00    -0.259 N 
ATOM      5  C   UNL     1       4.378  -2.639  25.431  0.00  0.00    +0.282 A 
ATOM      6  O   UNL     1       3.596  -1.878  25.980  0.00  0.00    -0.265 OA
ATOM      7  C   UNL     1       5.672  -2.227  25.010  0.00  0.00    +0.149 A 
ATOM      8  N   UNL     1       6.293  -1.002  25.062  0.00  0.00    -0.336 N 
ATOM      9  H   UNL     1       5.882  -0.149  25.423  0.00  0.00    +0.167 HD
ATOM     10  C   UNL     1       7.495  -1.128  24.393  0.00  0.00    +0.116 A 
ATOM     11  N   UNL     1       7.693  -2.404  24.064  0.00  0.00    -0.214 NA
ATOM     12  C   UNL     1       6.552  -3.066  24.403  0.00  0.00    +0.168 A 
ENDROOT
BRANCH  10  13
ATOM     13  C   UNL     1       8.307   0.003  23.829  0.00  0.00    +0.032 C 
ATOM     14  C   UNL     1       9.218  -0.452  22.667  0.00  0.00    +0.018 C 
ATOM     15  C   UNL     1      10.108   0.778  22.467  0.00  0.00    -0.009 C 
ATOM     16  C   UNL     1       9.235   2.003  22.074  0.00  0.00    +0.007 C 
ATOM     17  C   UNL     1       8.142   2.284  23.139  0.00  0.00    -0.009 C 
ATOM     18  C   UNL     1       8.734   2.332  24.552  0.00  0.00    +0.008 C 
ATOM     19  C   UNL     1      10.618   0.939  23.899  0.00  0.00    +0.008 C 
ATOM     20  C   UNL     1       9.287   0.896  24.697  0.00  0.00    +0.003 C 
ATOM     21  C   UNL     1       7.288   1.036  23.281  0.00  0.00    +0.018 C 
ENDBRANCH  10  13
BRANCH   1  22
ATOM     22  C   UNL     1       7.164  -5.291  23.466  0.00  0.00    +0.128 C 
BRANCH  22  24
ATOM     23  C   UNL     1       6.183  -5.896  21.221  0.00  0.00    +0.005 C 
ATOM     24  C   UNL     1       7.216  -5.050  21.955  0.00  0.00    +0.018 C 
ENDBRANCH  22  24
ENDBRANCH   1  22
BRANCH   4  25
ATOM     25  C   UNL     1       2.827  -4.531  25.643  0.00  0.00    +0.130 C 
BRANCH  25  26
ATOM     26  C   UNL     1       1.648  -4.381  24.671  0.00  0.00    +0.018 C 
ATOM     27  C   UNL     1       1.100  -5.694  24.128  0.00  0.00    +0.005 C 
ENDBRANCH  25  26
ENDBRANCH   4  25
TORSDOF 5
ENDMDL
MODEL 7
REMARK VINA RESULT:      -6.3      2.766      4.397
REMARK  Name = 
REMARK  7 active torsions:
REMARK  status: ('A' for Active; 'I' for Inactive)
REMARK    1  A    between atoms: C_1  and  C_2
REMARK    2  A    between atoms: C_2  and  C_3
REMARK    3  A    between atoms: C_3  and  N_4
REMARK    4  A    between atoms: C_8  and  C_10
REMARK    5  A    between atoms: N_21  and  C_22
REMARK    6  A    between atoms: C_22  and  C_23
REMARK    7  A    between atoms: C_23  and  C_24
REMARK                            x       y       z     vdW  Elec       q    Type
REMARK                         _______ _______ _______ _____ _____    ______ ____
ROOT
ATOM      1  N   UNL     1       9.463  -0.715  24.170  0.00  0.00    -0.276 N 
ATOM      2  C   UNL     1       8.938  -1.862  24.768  0.00  0.00    +0.334 A 
ATOM      3  O   UNL     1       9.226  -2.988  24.346  0.00  0.00    -0.246 OA
ATOM      4  N   UNL     1       8.072  -1.695  25.863  0.00  0.00    -0.259 N 
ATOM      5  C   UNL     1       7.675  -0.457  26.385  0.00  0.00    +0.282 A 
ATOM      6  O   UNL     1       6.918  -0.329  27.334  0.00  0.00    -0.265 OA
ATOM      7  C   UNL     1       8.251   0.657  25.715  0.00  0.00    +0.149 A 
ATOM      8  N   UNL     1       8.091   2.008  25.906  0.00  0.00    -0.336 N 
ATOM      9  H   UNL     1       7.483   2.438  26.594  0.00  0.00    +0.167 HD
ATOM     10  C   UNL     1       8.779   2.646  24.891  0.00  0.00    +0.116 A 
ATOM     11  N   UNL     1       9.463   1.749  24.182  0.00  0.00    -0.214 NA
ATOM     12  C   UNL     1       9.099   0.527  24.662  0.00  0.00    +0.168 A 
ENDROOT
BRANCH  10  13
ATOM     13  C   UNL     1       8.558   4.061  24.436  0.00  0.00    +0.032 C 
ATOM     14  C   UNL     1       9.847   4.705  23.882  0.00  0.00    +0.018 C 
ATOM     15  C   UNL     1       9.433   6.174  23.755  0.00  0.00    -0.009 C 
ATOM     16  C   UNL     1       8.245   6.304  22.760  0.00  0.00    +0.007 C 
ATOM     17  C   UNL     1       7.041   5.430  23.200  0.00  0.00    -0.009 C 
ATOM     18  C   UNL     1       6.686   5.663  24.673  0.00  0.00    +0.008 C 
ATOM     19  C   UNL     1       8.943   6.408  25.184  0.00  0.00    +0.008 C 
ATOM     20  C   UNL     1       7.984   5.203  25.372  0.00  0.00    +0.003 C 
ATOM     21  C   UNL     1       7.511   3.989  23.293  0.00  0.00    +0.018 C 
ENDBRANCH  10  13
BRANCH   1  22
ATOM     22  C   UNL     1      10.343  -0.864  23.012  0.00  0.00    +0.128 C 
BRANCH  22  24
ATOM     23  C   UNL     1       9.196   0.443  21.183  0.00  0.00    +0.005 C 
ATOM     24  C   UNL     1       9.578  -0.942  21.688  0.00  0.00    +0.018 C 
ENDBRANCH  22  24
ENDBRANCH   1  22
BRANCH   4  25
ATOM     25  C   UNL     1       7.602  -2.907  26.539  0.00  0.00    +0.130 C 
BRANCH  25  26
ATOM     26  C   UNL     1       6.273  -3.475  26.020  0.00  0.00    +0.018 C 
ATOM     27  C   UNL     1       6.366  -4.879  25.438  0.00  0.00    +0.005 C 
ENDBRANCH  25  26
ENDBRANCH   4  25
TORSDOF 5
ENDMDL
MODEL 8
REMARK VINA RESULT:      -6.3      3.008      7.439
REMARK  Name = 
REMARK  7 active torsions:
REMARK  status: ('A' for Active; 'I' for Inactive)
REMARK    1  A    between atoms: C_1  and  C_2
REMARK    2  A    between atoms: C_2  and  C_3
REMARK    3  A    between atoms: C_3  and  N_4
REMARK    4  A    between atoms: C_8  and  C_10
REMARK    5  A    between atoms: N_21  and  C_22
REMARK    6  A    between atoms: C_22  and  C_23
REMARK    7  A    between atoms: C_23  and  C_24
REMARK                            x       y       z     vdW  Elec       q    Type
REMARK                         _______ _______ _______ _____ _____    ______ ____
ROOT
ATOM      1  N   UNL     1       7.292   1.985  23.155  0.00  0.00    -0.276 N 
ATOM      2  C   UNL     1       8.287   2.951  23.322  0.00  0.00    +0.334 A 
ATOM      3  O   UNL     1       8.107   4.119  22.961  0.00  0.00    -0.246 OA
ATOM      4  N   UNL     1       9.498   2.550  23.912  0.00  0.00    -0.259 N 
ATOM      5  C   UNL     1       9.792   1.244  24.324  0.00  0.00    +0.282 A 
ATOM      6  O   UNL     1      10.852   0.911  24.831  0.00  0.00    -0.265 OA
ATOM      7  C   UNL     1       8.727   0.324  24.113  0.00  0.00    +0.149 A 
ATOM      8  N   UNL     1       8.638  -1.025  24.352  0.00  0.00    -0.336 N 
ATOM      9  H   UNL     1       9.377  -1.607  24.729  0.00  0.00    +0.167 HD
ATOM     10  C   UNL     1       7.427  -1.449  23.837  0.00  0.00    +0.116 A 
ATOM     11  N   UNL     1       6.722  -0.396  23.426  0.00  0.00    -0.214 NA
ATOM     12  C   UNL     1       7.542   0.685  23.555  0.00  0.00    +0.168 A 
ENDROOT
BRANCH  10  13
ATOM     13  C   UNL     1       7.072  -2.866  23.484  0.00  0.00    +0.032 C 
ATOM     14  C   UNL     1       6.724  -3.026  21.987  0.00  0.00    +0.018 C 
ATOM     15  C   UNL     1       6.150  -4.446  21.951  0.00  0.00    -0.009 C 
ATOM     16  C   UNL     1       7.231  -5.465  22.408  0.00  0.00    +0.007 C 
ATOM     17  C   UNL     1       7.765  -5.125  23.824  0.00  0.00    -0.009 C 
ATOM     18  C   UNL     1       6.620  -4.901  24.818  0.00  0.00    +0.008 C 
ATOM     19  C   UNL     1       5.081  -4.299  23.034  0.00  0.00    +0.008 C 
ATOM     20  C   UNL     1       5.912  -3.680  24.191  0.00  0.00    +0.003 C 
ATOM     21  C   UNL     1       8.332  -3.717  23.792  0.00  0.00    +0.018 C 
ENDBRANCH  10  13
BRANCH   1  22
ATOM     22  C   UNL     1       6.035   2.374  22.517  0.00  0.00    +0.128 C 
BRANCH  22  24
ATOM     23  C   UNL     1       3.738   3.369  22.835  0.00  0.00    +0.005 C 
ATOM     24  C   UNL     1       4.947   2.753  23.526  0.00  0.00    +0.018 C 
ENDBRANCH  22  24
ENDBRANCH   1  22
BRANCH   4  25
ATOM     25  C   UNL     1      10.499   3.590  24.167  0.00  0.00    +0.130 C 
BRANCH  25  26
ATOM     26  C   UNL     1      11.542   3.782  23.057  0.00  0.00    +0.018 C 
ATOM     27  C   UNL     1      12.444   4.997  23.236  0.00  0.00    +0.005 C 
ENDBRANCH  25  26
ENDBRANCH   4  25
TORSDOF 5
ENDMDL
MODEL 9
REMARK VINA RESULT:      -6.3      3.023      7.464
REMARK  Name = 
REMARK  7 active torsions:
REMARK  status: ('A' for Active; 'I' for Inactive)
REMARK    1  A    between atoms: C_1  and  C_2
REMARK    2  A    between atoms: C_2  and  C_3
REMARK    3  A    between atoms: C_3  and  N_4
REMARK    4  A    between atoms: C_8  and  C_10
REMARK    5  A    between atoms: N_21  and  C_22
REMARK    6  A    between atoms: C_22  and  C_23
REMARK    7  A    between atoms: C_23  and  C_24
REMARK                            x       y       z     vdW  Elec       q    Type
REMARK                         _______ _______ _______ _____ _____    ______ ____
ROOT
ATOM      1  N   UNL     1       8.487   1.043  22.976  0.00  0.00    -0.276 N 
ATOM      2  C   UNL     1       8.132   2.356  23.292  0.00  0.00    +0.334 A 
ATOM      3  O   UNL     1       8.918   3.291  23.101  0.00  0.00    -0.246 OA
ATOM      4  N   UNL     1       6.855   2.579  23.835  0.00  0.00    -0.259 N 
ATOM      5  C   UNL     1       5.917   1.575  24.108  0.00  0.00    +0.282 A 
ATOM      6  O   UNL     1       4.813   1.784  24.585  0.00  0.00    -0.265 OA
ATOM      7  C   UNL     1       6.361   0.268  23.762  0.00  0.00    +0.149 A 
ATOM      8  N   UNL     1       5.756  -0.958  23.898  0.00  0.00    -0.336 N 
ATOM      9  H   UNL     1       4.844  -1.122  24.309  0.00  0.00    +0.167 HD
ATOM     10  C   UNL     1       6.684  -1.911  23.524  0.00  0.00    +0.116 A 
ATOM     11  N   UNL     1       7.768  -1.313  23.035  0.00  0.00    -0.214 NA
ATOM     12  C   UNL     1       7.585   0.024  23.225  0.00  0.00    +0.168 A 
ENDROOT
BRANCH  10  13
ATOM     13  C   UNL     1       6.642  -3.367  23.895  0.00  0.00    +0.032 C 
ATOM     14  C   UNL     1       6.325  -3.581  25.392  0.00  0.00    +0.018 C 
ATOM     15  C   UNL     1       6.610  -5.076  25.560  0.00  0.00    -0.009 C 
ATOM     16  C   UNL     1       5.663  -5.900  24.643  0.00  0.00    +0.007 C 
ATOM     17  C   UNL     1       5.807  -5.479  23.157  0.00  0.00    -0.009 C 
ATOM     18  C   UNL     1       7.276  -5.452  22.721  0.00  0.00    +0.008 C 
ATOM     19  C   UNL     1       8.034  -5.113  25.006  0.00  0.00    +0.008 C 
ATOM     20  C   UNL     1       7.849  -4.366  23.658  0.00  0.00    +0.003 C 
ATOM     21  C   UNL     1       5.500  -3.995  23.054  0.00  0.00    +0.018 C 
ENDBRANCH  10  13
BRANCH   1  22
ATOM     22  C   UNL     1       9.821   0.785  22.437  0.00  0.00    +0.128 C 
BRANCH  22  24
ATOM     23  C   UNL     1      11.017   0.706  24.657  0.00  0.00    +0.005 C 
ATOM     24  C   UNL     1      10.693  -0.052  23.377  0.00  0.00    +0.018 C 
ENDBRANCH  22  24
ENDBRANCH   1  22
BRANCH   4  25
ATOM     25  C   UNL     1       6.460   3.969  24.076  0.00  0.00    +0.130 C 
BRANCH  25  26
ATOM     26  C   UNL     1       5.834   4.691  22.874  0.00  0.00    +0.018 C 
ATOM     27  C   UNL     1       6.532   5.984  22.475  0.00  0.00    +0.005 C 
ENDBRANCH  25  26
ENDBRANCH   4  25
TORSDOF 5
ENDMDL
