MODEL 1
REMARK VINA RESULT:      -4.5      0.000      0.000
REMARK  Name = 
REMARK  8 active torsions:
REMARK  status: ('A' for Active; 'I' for Inactive)
REMARK    1  A    between atoms: NZ_1  and  CE_2
REMARK    2  A    between atoms: CE_2  and  CD_3
REMARK    3  A    between atoms: CD_3  and  CG_4
REMARK    4  A    between atoms: CG_4  and  CB_5
REMARK    5  A    between atoms: CB_5  and  CA_6
REMARK    6  A    between atoms: CA_6  and  N_8
REMARK    7  A    between atoms: CA_6  and  C_9
REMARK    8  A    between atoms: C_9  and  O_10
REMARK                            x       y       z     vdW  Elec       q    Type
REMARK                         _______ _______ _______ _____ _____    ______ ____
ROOT
ATOM      1  CA  LYS A   1      12.271   5.498  23.982  0.00  0.00    +0.161 C 
ENDROOT
BRANCH   1   2
ATOM      2  N   LYS A   1      12.762   6.648  24.797  0.00  0.00    -0.318 NA
ATOM      3  H1  LYS A   1      13.764   6.765  24.614  0.00  0.00    +0.119 HD
ATOM      4  H2  LYS A   1      12.346   7.503  24.410  0.00  0.00    +0.119 HD
ENDBRANCH   1   2
BRANCH   1   5
ATOM      5  C   LYS A   1      13.225   5.324  22.790  0.00  0.00    +0.322 C 
ATOM      6  OXT LYS A   1      12.922   5.461  21.617  0.00  0.00    -0.249 OA
BRANCH   5   7
ATOM      7  O   LYS A   1      14.483   5.024  23.213  0.00  0.00    -0.480 OA
ATOM      8  H   LYS A   1      14.984   4.768  22.397  0.00  0.00    +0.295 HD
ENDBRANCH   5   7
ENDBRANCH   1   5
BRANCH   1   9
ATOM      9  CB  LYS A   1      10.857   5.742  23.440  0.00  0.00    +0.030 C 
BRANCH   9  10
ATOM     10  CG  LYS A   1       9.836   4.711  23.926  0.00  0.00    +0.003 C 
BRANCH  10  11
ATOM     11  CD  LYS A   1      10.251   3.285  23.548  0.00  0.00    +0.015 C 
BRANCH  11  12
ATOM     12  CE  LYS A   1       9.188   2.563  22.717  0.00  0.00    +0.077 C 
BRANCH  12  13
ATOM     13  NZ  LYS A   1       9.760   1.949  21.523  0.00  0.00    -0.330 NA
ATOM     14  HZ1 LYS A   1       9.390   2.409  20.691  0.00  0.00    +0.118 HD
ATOM     15  HZ2 LYS A   1      10.767   2.109  21.510  0.00  0.00    +0.118 HD
ENDBRANCH  12  13
ENDBRANCH  11  12
ENDBRANCH  10  11
ENDBRANCH   9  10
ENDBRANCH   1   9
TORSDOF 8
ENDMDL
MODEL 2
REMARK VINA RESULT:      -4.3      2.965      4.674
REMARK  Name = 
REMARK  8 active torsions:
REMARK  status: ('A' for Active; 'I' for Inactive)
REMARK    1  A    between atoms: NZ_1  and  CE_2
REMARK    2  A    between atoms: CE_2  and  CD_3
REMARK    3  A    between atoms: CD_3  and  CG_4
REMARK    4  A    between atoms: CG_4  and  CB_5
REMARK    5  A    between atoms: CB_5  and  CA_6
REMARK    6  A    between atoms: CA_6  and  N_8
REMARK    7  A    between atoms: CA_6  and  C_9
REMARK    8  A    between atoms: C_9  and  O_10
REMARK                            x       y       z     vdW  Elec       q    Type
REMARK                         _______ _______ _______ _____ _____    ______ ____
ROOT
ATOM      1  CA  LYS A   1       9.680   2.532  23.530  0.00  0.00    +0.161 C 
ENDROOT
BRANCH   1   2
ATOM      2  N   LYS A   1       9.632   1.781  24.819  0.00  0.00    -0.318 NA
ATOM      3  H1  LYS A   1      10.594   1.656  25.152  0.00  0.00    +0.119 HD
ATOM      4  H2  LYS A   1       9.213   2.399  25.523  0.00  0.00    +0.119 HD
ENDBRANCH   1   2
BRANCH   1   5
ATOM      5  C   LYS A   1       9.748   1.505  22.389  0.00  0.00    +0.322 C 
ATOM      6  OXT LYS A   1      10.184   0.370  22.486  0.00  0.00    -0.249 OA
BRANCH   5   7
ATOM      7  O   LYS A   1       9.223   2.016  21.242  0.00  0.00    -0.480 OA
ATOM      8  H   LYS A   1       8.939   2.938  21.467  0.00  0.00    +0.295 HD
ENDBRANCH   5   7
ENDBRANCH   1   5
BRANCH   1   9
ATOM      9  CB  LYS A   1      10.913   3.440  23.441  0.00  0.00    +0.030 C 
BRANCH   9  10
ATOM     10  CG  LYS A   1      10.629   4.888  23.846  0.00  0.00    +0.003 C 
BRANCH  10  11
ATOM     11  CD  LYS A   1      11.883   5.764  23.725  0.00  0.00    +0.015 C 
BRANCH  11  12
ATOM     12  CE  LYS A   1      12.828   5.288  22.620  0.00  0.00    +0.077 C 
BRANCH  12  13
ATOM     13  NZ  LYS A   1      14.190   5.112  23.113  0.00  0.00    -0.330 NA
ATOM     14  HZ1 LYS A   1      14.704   4.496  22.483  0.00  0.00    +0.118 HD
ATOM     15  HZ2 LYS A   1      14.676   6.008  23.091  0.00  0.00    +0.118 HD
ENDBRANCH  12  13
ENDBRANCH  11  12
ENDBRANCH  10  11
ENDBRANCH   9  10
ENDBRANCH   1   9
TORSDOF 8
ENDMDL
MODEL 3
REMARK VINA RESULT:      -4.2      8.405     10.143
REMARK  Name = 
REMARK  8 active torsions:
REMARK  status: ('A' for Active; 'I' for Inactive)
REMARK    1  A    between atoms: NZ_1  and  CE_2
REMARK    2  A    between atoms: CE_2  and  CD_3
REMARK    3  A    between atoms: CD_3  and  CG_4
REMARK    4  A    between atoms: CG_4  and  CB_5
REMARK    5  A    between atoms: CB_5  and  CA_6
REMARK    6  A    between atoms: CA_6  and  N_8
REMARK    7  A    between atoms: CA_6  and  C_9
REMARK    8  A    between atoms: C_9  and  O_10
REMARK                            x       y       z     vdW  Elec       q    Type
REMARK                         _______ _______ _______ _____ _____    ______ ____
ROOT
ATOM      1  CA  LYS A   1       8.811  -4.789  25.335  0.00  0.00    +0.161 C 
ENDROOT
BRANCH   1   2
ATOM      2  N   LYS A   1       9.924  -5.783  25.308  0.00  0.00    -0.318 NA
ATOM      3  H1  LYS A   1      10.539  -5.595  26.106  0.00  0.00    +0.119 HD
ATOM      4  H2  LYS A   1       9.523  -6.703  25.525  0.00  0.00    +0.119 HD
ENDBRANCH   1   2
BRANCH   1   5
ATOM      5  C   LYS A   1       7.666  -5.387  26.168  0.00  0.00    +0.322 C 
ATOM      6  OXT LYS A   1       6.515  -5.526  25.788  0.00  0.00    -0.249 OA
BRANCH   5   7
ATOM      7  O   LYS A   1       8.107  -5.779  27.394  0.00  0.00    -0.480 OA
ATOM      8  H   LYS A   1       7.527  -5.311  28.047  0.00  0.00    +0.295 HD
ENDBRANCH   5   7
ENDBRANCH   1   5
BRANCH   1   9
ATOM      9  CB  LYS A   1       8.281  -4.483  23.929  0.00  0.00    +0.030 C 
BRANCH   9  10
ATOM     10  CG  LYS A   1       8.436  -3.014  23.530  0.00  0.00    +0.003 C 
BRANCH  10  11
ATOM     11  CD  LYS A   1       9.860  -2.507  23.789  0.00  0.00    +0.015 C 
BRANCH  11  12
ATOM     12  CE  LYS A   1      10.217  -1.291  22.930  0.00  0.00    +0.077 C 
BRANCH  12  13
ATOM     13  NZ  LYS A   1       9.984  -1.544  21.512  0.00  0.00    -0.330 NA
ATOM     14  HZ1 LYS A   1       9.935  -2.550  21.348  0.00  0.00    +0.118 HD
ATOM     15  HZ2 LYS A   1       9.075  -1.169  21.246  0.00  0.00    +0.118 HD
ENDBRANCH  12  13
ENDBRANCH  11  12
ENDBRANCH  10  11
ENDBRANCH   9  10
ENDBRANCH   1   9
TORSDOF 8
ENDMDL
MODEL 4
REMARK VINA RESULT:      -4.2      4.364      6.270
REMARK  Name = 
REMARK  8 active torsions:
REMARK  status: ('A' for Active; 'I' for Inactive)
REMARK    1  A    between atoms: NZ_1  and  CE_2
REMARK    2  A    between atoms: CE_2  and  CD_3
REMARK    3  A    between atoms: CD_3  and  CG_4
REMARK    4  A    between atoms: CG_4  and  CB_5
REMARK    5  A    between atoms: CB_5  and  CA_6
REMARK    6  A    between atoms: CA_6  and  N_8
REMARK    7  A    between atoms: CA_6  and  C_9
REMARK    8  A    between atoms: C_9  and  O_10
REMARK                            x       y       z     vdW  Elec       q    Type
REMARK                         _______ _______ _______ _____ _____    ______ ____
ROOT
ATOM      1  CA  LYS A   1       8.934  -0.783  23.470  0.00  0.00    +0.161 C 
ENDROOT
BRANCH   1   2
ATOM      2  N   LYS A   1       7.827  -1.764  23.670  0.00  0.00    -0.318 NA
ATOM      3  H1  LYS A   1       6.948  -1.314  23.398  0.00  0.00    +0.119 HD
ATOM      4  H2  LYS A   1       7.943  -2.508  22.972  0.00  0.00    +0.119 HD
ENDBRANCH   1   2
BRANCH   1   5
ATOM      5  C   LYS A   1       9.912  -1.378  22.445  0.00  0.00    +0.322 C 
ATOM      6  OXT LYS A   1      10.708  -2.275  22.668  0.00  0.00    -0.249 OA
BRANCH   5   7
ATOM      7  O   LYS A   1       9.758  -0.792  21.227  0.00  0.00    -0.480 OA
ATOM      8  H   LYS A   1      10.502  -0.142  21.148  0.00  0.00    +0.295 HD
ENDBRANCH   5   7
ENDBRANCH   1   5
BRANCH   1   9
ATOM      9  CB  LYS A   1       9.700  -0.509  24.771  0.00  0.00    +0.030 C 
BRANCH   9  10
ATOM     10  CG  LYS A   1      10.608   0.720  24.692  0.00  0.00    +0.003 C 
BRANCH  10  11
ATOM     11  CD  LYS A   1       9.844   1.955  24.198  0.00  0.00    +0.015 C 
BRANCH  11  12
ATOM     12  CE  LYS A   1      10.568   2.678  23.060  0.00  0.00    +0.077 C 
BRANCH  12  13
ATOM     13  NZ  LYS A   1      10.094   2.236  21.751  0.00  0.00    -0.330 NA
ATOM     14  HZ1 LYS A   1      10.891   2.083  21.134  0.00  0.00    +0.118 HD
ATOM     15  HZ2 LYS A   1       9.632   1.333  21.847  0.00  0.00    +0.118 HD
ENDBRANCH  12  13
ENDBRANCH  11  12
ENDBRANCH  10  11
ENDBRANCH   9  10
ENDBRANCH   1   9
TORSDOF 8
ENDMDL
MODEL 5
REMARK VINA RESULT:      -4.1      3.888      4.979
REMARK  Name = 
REMARK  8 active torsions:
REMARK  status: ('A' for Active; 'I' for Inactive)
REMARK    1  A    between atoms: NZ_1  and  CE_2
REMARK    2  A    between atoms: CE_2  and  CD_3
REMARK    3  A    between atoms: CD_3  and  CG_4
REMARK    4  A    between atoms: CG_4  and  CB_5
REMARK    5  A    between atoms: CB_5  and  CA_6
REMARK    6  A    between atoms: CA_6  and  N_8
REMARK    7  A    between atoms: CA_6  and  C_9
REMARK    8  A    between atoms: C_9  and  O_10
REMARK                            x       y       z     vdW  Elec       q    Type
REMARK                         _______ _______ _______ _____ _____    ______ ____
ROOT
ATOM      1  CA  LYS A   1      10.147   1.946  23.973  0.00  0.00    +0.161 C 
ENDROOT
BRANCH   1   2
ATOM      2  N   LYS A   1       9.023   2.245  24.908  0.00  0.00    -0.318 NA
ATOM      3  H1  LYS A   1       8.157   1.891  24.489  0.00  0.00    +0.119 HD
ATOM      4  H2  LYS A   1       9.146   1.656  25.739  0.00  0.00    +0.119 HD
ENDBRANCH   1   2
BRANCH   1   5
ATOM      5  C   LYS A   1       9.572   1.879  22.550  0.00  0.00    +0.322 C 
ATOM      6  OXT LYS A   1       8.496   1.390  22.245  0.00  0.00    -0.249 OA
BRANCH   5   7
ATOM      7  O   LYS A   1      10.410   2.472  21.656  0.00  0.00    -0.480 OA
ATOM      8  H   LYS A   1      10.416   1.877  20.863  0.00  0.00    +0.295 HD
ENDBRANCH   5   7
ENDBRANCH   1   5
BRANCH   1   9
ATOM      9  CB  LYS A   1      10.815   0.602  24.291  0.00  0.00    +0.030 C 
BRANCH   9  10
ATOM     10  CG  LYS A   1       9.866  -0.407  24.941  0.00  0.00    +0.003 C 
BRANCH  10  11
ATOM     11  CD  LYS A   1       9.544  -1.569  23.993  0.00  0.00    +0.015 C 
BRANCH  11  12
ATOM     12  CE  LYS A   1      10.501  -1.639  22.801  0.00  0.00    +0.077 C 
BRANCH  12  13
ATOM     13  NZ  LYS A   1       9.792  -1.515  21.531  0.00  0.00    -0.330 NA
ATOM     14  HZ1 LYS A   1      10.457  -1.302  20.788  0.00  0.00    +0.118 HD
ATOM     15  HZ2 LYS A   1       9.373  -2.412  21.289  0.00  0.00    +0.118 HD
ENDBRANCH  12  13
ENDBRANCH  11  12
ENDBRANCH  10  11
ENDBRANCH   9  10
ENDBRANCH   1   9
TORSDOF 8
ENDMDL
MODEL 6
REMARK VINA RESULT:      -4.1      9.888     10.562
REMARK  Name = 
REMARK  8 active torsions:
REMARK  status: ('A' for Active; 'I' for Inactive)
REMARK    1  A    between atoms: NZ_1  and  CE_2
REMARK    2  A    between atoms: CE_2  and  CD_3
REMARK    3  A    between atoms: CD_3  and  CG_4
REMARK    4  A    between atoms: CG_4  and  CB_5
REMARK    5  A    between atoms: CB_5  and  CA_6
REMARK    6  A    between atoms: CA_6  and  N_8
REMARK    7  A    between atoms: CA_6  and  C_9
REMARK    8  A    between atoms: C_9  and  O_10
REMARK                            x       y       z     vdW  Elec       q    Type
REMARK                         _______ _______ _______ _____ _____    ______ ____
ROOT
ATOM      1  CA  LYS A   1       9.018  -4.675  26.425  0.00  0.00    +0.161 C 
ENDROOT
BRANCH   1   2
ATOM      2  N   LYS A   1       9.895  -5.576  25.620  0.00  0.00    -0.318 NA
ATOM      3  H1  LYS A   1      10.354  -5.012  24.898  0.00  0.00    +0.119 HD
ATOM      4  H2  LYS A   1      10.671  -5.873  26.223  0.00  0.00    +0.119 HD
ENDBRANCH   1   2
BRANCH   1   5
ATOM      5  C   LYS A   1       7.675  -5.391  26.636  0.00  0.00    +0.322 C 
ATOM      6  OXT LYS A   1       6.765  -5.439  25.824  0.00  0.00    -0.249 OA
BRANCH   5   7
ATOM      7  O   LYS A   1       7.633  -6.005  27.849  0.00  0.00    -0.480 OA
ATOM      8  H   LYS A   1       6.689  -5.946  28.145  0.00  0.00    +0.295 HD
ENDBRANCH   5   7
ENDBRANCH   1   5
BRANCH   1   9
ATOM      9  CB  LYS A   1       8.753  -3.344  25.712  0.00  0.00    +0.030 C 
BRANCH   9  10
ATOM     10  CG  LYS A   1       9.139  -3.363  24.231  0.00  0.00    +0.003 C 
BRANCH  10  11
ATOM     11  CD  LYS A   1       7.948  -3.006  23.333  0.00  0.00    +0.015 C 
BRANCH  11  12
ATOM     12  CE  LYS A   1       7.388  -4.220  22.589  0.00  0.00    +0.077 C 
BRANCH  12  13
ATOM     13  NZ  LYS A   1       8.020  -5.461  23.028  0.00  0.00    -0.330 NA
ATOM     14  HZ1 LYS A   1       7.333  -6.043  23.507  0.00  0.00    +0.118 HD
ATOM     15  HZ2 LYS A   1       8.323  -5.993  22.212  0.00  0.00    +0.118 HD
ENDBRANCH  12  13
ENDBRANCH  11  12
ENDBRANCH  10  11
ENDBRANCH   9  10
ENDBRANCH   1   9
TORSDOF 8
ENDMDL
MODEL 7
REMARK VINA RESULT:      -4.1      5.300      6.967
REMARK  Name = 
REMARK  8 active torsions:
REMARK  status: ('A' for Active; 'I' for Inactive)
REMARK    1  A    between atoms: NZ_1  and  CE_2
REMARK    2  A    between atoms: CE_2  and  CD_3
REMARK    3  A    between atoms: CD_3  and  CG_4
REMARK    4  A    between atoms: CG_4  and  CB_5
REMARK    5  A    between atoms: CB_5  and  CA_6
REMARK    6  A    between atoms: CA_6  and  N_8
REMARK    7  A    between atoms: CA_6  and  C_9
REMARK    8  A    between atoms: C_9  and  O_10
REMARK                            x       y       z     vdW  Elec       q    Type
REMARK                         _______ _______ _______ _____ _____    ______ ____
ROOT
ATOM      1  CA  LYS A   1       9.661  -1.987  23.077  0.00  0.00    +0.161 C 
ENDROOT
BRANCH   1   2
ATOM      2  N   LYS A   1      10.443  -1.583  21.872  0.00  0.00    -0.318 NA
ATOM      3  H1  LYS A   1      10.534  -2.402  21.261  0.00  0.00    +0.119 HD
ATOM      4  H2  LYS A   1       9.859  -0.940  21.325  0.00  0.00    +0.119 HD
ENDBRANCH   1   2
BRANCH   1   5
ATOM      5  C   LYS A   1       8.188  -2.118  22.661  0.00  0.00    +0.322 C 
ATOM      6  OXT LYS A   1       7.634  -3.158  22.344  0.00  0.00    -0.249 OA
BRANCH   5   7
ATOM      7  O   LYS A   1       7.555  -0.915  22.720  0.00  0.00    -0.480 OA
ATOM      8  H   LYS A   1       8.032  -0.332  22.077  0.00  0.00    +0.295 HD
ENDBRANCH   5   7
ENDBRANCH   1   5
BRANCH   1   9
ATOM      9  CB  LYS A   1       9.758  -0.946  24.199  0.00  0.00    +0.030 C 
BRANCH   9  10
ATOM     10  CG  LYS A   1      10.710   0.207  23.875  0.00  0.00    +0.003 C 
BRANCH  10  11
ATOM     11  CD  LYS A   1       9.952   1.523  23.663  0.00  0.00    +0.015 C 
BRANCH  11  12
ATOM     12  CE  LYS A   1      10.046   2.031  22.223  0.00  0.00    +0.077 C 
BRANCH  12  13
ATOM     13  NZ  LYS A   1       9.236   1.227  21.313  0.00  0.00    -0.330 NA
ATOM     14  HZ1 LYS A   1       9.490   1.443  20.349  0.00  0.00    +0.118 HD
ATOM     15  HZ2 LYS A   1       9.452   0.240  21.449  0.00  0.00    +0.118 HD
ENDBRANCH  12  13
ENDBRANCH  11  12
ENDBRANCH  10  11
ENDBRANCH   9  10
ENDBRANCH   1   9
TORSDOF 8
ENDMDL
MODEL 8
REMARK VINA RESULT:      -3.9     10.555     11.547
REMARK  Name = 
REMARK  8 active torsions:
REMARK  status: ('A' for Active; 'I' for Inactive)
REMARK    1  A    between atoms: NZ_1  and  CE_2
REMARK    2  A    between atoms: CE_2  and  CD_3
REMARK    3  A    between atoms: CD_3  and  CG_4
REMARK    4  A    between atoms: CG_4  and  CB_5
REMARK    5  A    between atoms: CB_5  and  CA_6
REMARK    6  A    between atoms: CA_6  and  N_8
REMARK    7  A    between atoms: CA_6  and  C_9
REMARK    8  A    between atoms: C_9  and  O_10
REMARK                            x       y       z     vdW  Elec       q    Type
REMARK                         _______ _______ _______ _____ _____    ______ ____
ROOT
ATOM      1  CA  LYS A   1       7.790  -5.462  25.884  0.00  0.00    +0.161 C 
ENDROOT
BRANCH   1   2
ATOM      2  N   LYS A   1       8.101  -5.691  27.326  0.00  0.00    -0.318 NA
ATOM      3  H1  LYS A   1       7.261  -6.067  27.777  0.00  0.00    +0.119 HD
ATOM      4  H2  LYS A   1       8.771  -6.466  27.379  0.00  0.00    +0.119 HD
ENDBRANCH   1   2
BRANCH   1   5
ATOM      5  C   LYS A   1       9.095  -5.061  25.178  0.00  0.00    +0.322 C 
ATOM      6  OXT LYS A   1       9.179  -4.294  24.234  0.00  0.00    -0.249 OA
BRANCH   5   7
ATOM      7  O   LYS A   1      10.170  -5.651  25.768  0.00  0.00    -0.480 OA
ATOM      8  H   LYS A   1      10.391  -5.082  26.548  0.00  0.00    +0.295 HD
ENDBRANCH   5   7
ENDBRANCH   1   5
BRANCH   1   9
ATOM      9  CB  LYS A   1       6.766  -4.337  25.689  0.00  0.00    +0.030 C 
BRANCH   9  10
ATOM     10  CG  LYS A   1       5.408  -4.834  25.187  0.00  0.00    +0.003 C 
BRANCH  10  11
ATOM     11  CD  LYS A   1       5.236  -6.339  25.425  0.00  0.00    +0.015 C 
BRANCH  11  12
ATOM     12  CE  LYS A   1       4.414  -6.646  26.679  0.00  0.00    +0.077 C 
BRANCH  12  13
ATOM     13  NZ  LYS A   1       5.239  -7.223  27.737  0.00  0.00    -0.330 NA
ATOM     14  HZ1 LYS A   1       6.224  -7.122  27.495  0.00  0.00    +0.118 HD
ATOM     15  HZ2 LYS A   1       5.102  -6.695  28.598  0.00  0.00    +0.118 HD
ENDBRANCH  12  13
ENDBRANCH  11  12
ENDBRANCH  10  11
ENDBRANCH   9  10
ENDBRANCH   1   9
TORSDOF 8
ENDMDL
MODEL 9
REMARK VINA RESULT:      -3.9      4.667      6.330
REMARK  Name = 
REMARK  8 active torsions:
REMARK  status: ('A' for Active; 'I' for Inactive)
REMARK    1  A    between atoms: NZ_1  and  CE_2
REMARK    2  A    between atoms: CE_2  and  CD_3
REMARK    3  A    between atoms: CD_3  and  CG_4
REMARK    4  A    between atoms: CG_4  and  CB_5
REMARK    5  A    between atoms: CB_5  and  CA_6
REMARK    6  A    between atoms: CA_6  and  N_8
REMARK    7  A    between atoms: CA_6  and  C_9
REMARK    8  A    between atoms: C_9  and  O_10
REMARK                            x       y       z     vdW  Elec       q    Type
REMARK                         _______ _______ _______ _____ _____    ______ ____
ROOT
ATOM      1  CA  LYS A   1       8.754  -1.047  22.399  0.00  0.00    +0.161 C 
ENDROOT
BRANCH   1   2
ATOM      2  N   LYS A   1       7.708  -0.373  23.225  0.00  0.00    -0.318 NA
ATOM      3  H1  LYS A   1       8.179   0.249  23.890  0.00  0.00    +0.119 HD
ATOM      4  H2  LYS A   1       7.198   0.272  22.612  0.00  0.00    +0.119 HD
ENDBRANCH   1   2
BRANCH   1   5
ATOM      5  C   LYS A   1       9.778  -1.675  23.357  0.00  0.00    +0.322 C 
ATOM      6  OXT LYS A   1      10.536  -2.589  23.079  0.00  0.00    -0.249 OA
BRANCH   5   7
ATOM      7  O   LYS A   1       9.758  -1.055  24.568  0.00  0.00    -0.480 OA
ATOM      8  H   LYS A   1       9.655  -0.089  24.371  0.00  0.00    +0.295 HD
ENDBRANCH   5   7
ENDBRANCH   1   5
BRANCH   1   9
ATOM      9  CB  LYS A   1       9.487  -0.058  21.484  0.00  0.00    +0.030 C 
BRANCH   9  10
ATOM     10  CG  LYS A   1       9.142   1.404  21.773  0.00  0.00    +0.003 C 
BRANCH  10  11
ATOM     11  CD  LYS A   1      10.255   2.099  22.567  0.00  0.00    +0.015 C 
BRANCH  11  12
ATOM     12  CE  LYS A   1       9.736   2.772  23.840  0.00  0.00    +0.077 C 
BRANCH  12  13
ATOM     13  NZ  LYS A   1       9.375   1.793  24.860  0.00  0.00    -0.330 NA
ATOM     14  HZ1 LYS A   1       8.393   1.537  24.756  0.00  0.00    +0.118 HD
ATOM     15  HZ2 LYS A   1       9.909   0.938  24.712  0.00  0.00    +0.118 HD
ENDBRANCH  12  13
ENDBRANCH  11  12
ENDBRANCH  10  11
ENDBRANCH   9  10
ENDBRANCH   1   9
TORSDOF 8
ENDMDL
