MODEL 1
REMARK VINA RESULT:      -5.8      0.000      0.000
REMARK  Name = 
REMARK  13 active torsions:
REMARK  status: ('A' for Active; 'I' for Inactive)
REMARK    1  A    between atoms: C_1  and  C_2
REMARK    2  A    between atoms: N_4  and  C_5
REMARK    3  A    between atoms: C_5  and  C_7
REMARK    4  A    between atoms: C_5  and  C_21
REMARK    5  A    between atoms: C_7  and  C_8
REMARK    6  A    between atoms: N_10  and  C_11
REMARK    7  A    between atoms: C_11  and  C_13
REMARK    8  A    between atoms: C_11  and  C_18
REMARK    9  A    between atoms: C_13  and  C_14
REMARK   10  A    between atoms: C_14  and  C_15
REMARK   11  A    between atoms: C_15  and  O_16
REMARK   12  A    between atoms: C_18  and  O_19
REMARK   13  A    between atoms: C_21  and  O_22
REMARK                            x       y       z     vdW  Elec       q    Type
REMARK                         _______ _______ _______ _____ _____    ______ ____
ROOT
ATOM      1  C   UNK A   1       7.003  -1.703  25.057  0.00  0.00    +0.216 C 
ATOM      2  N   UNK A   1       7.989  -1.151  24.294  0.00  0.00    -0.302 N 
ATOM      3  H   UNK A   1       7.592  -0.895  23.396  0.00  0.00    +0.150 HD
ATOM      4  O   UNK A   1       5.833  -1.488  24.742  0.00  0.00    -0.276 OA
ENDROOT
BRANCH   1   5
ATOM      5  C   UNK A   1       7.345  -2.622  26.201  0.00  0.00    +0.129 C 
BRANCH   5   6
ATOM      6  C   UNK A   1       7.542  -4.049  25.670  0.00  0.00    +0.190 C 
BRANCH   6   9
ATOM      7  C   UNK A   0       4.906  -5.727  23.466  0.00  0.00    +0.109 C 
ATOM      8  C   UNK A   0       6.236  -5.139  23.830  0.00  0.00    +0.211 C 
ATOM      9  N   UNK A   1       6.316  -4.618  25.093  0.00  0.00    -0.302 N 
ATOM     10  H   UNK A   1       5.485  -4.620  25.676  0.00  0.00    +0.150 HD
ATOM     11  O   UNK A   0       7.191  -5.094  23.057  0.00  0.00    -0.276 OA
ENDBRANCH   6   9
BRANCH   6  12
ATOM     12  C   UNK A   1       8.208  -4.976  26.709  0.00  0.00    +0.326 C 
ATOM     13  O   UNK A   1       7.579  -5.628  27.531  0.00  0.00    -0.249 OA
BRANCH  12  14
ATOM     14  O   UNK A   1       9.548  -5.115  26.583  0.00  0.00    -0.479 OA
ATOM     15  H   UNK A   1       9.914  -5.920  27.024  0.00  0.00    +0.295 HD
ENDBRANCH  12  14
ENDBRANCH   6  12
ENDBRANCH   5   6
ENDBRANCH   1   5
BRANCH   2  16
ATOM     16  C   UNK A   1       9.448  -1.249  24.475  0.00  0.00    +0.182 C 
BRANCH  16  17
ATOM     17  C   UNK A   1      10.089  -2.379  23.654  0.00  0.00    +0.325 C 
ATOM     18  O   UNK A   1      10.253  -3.512  24.079  0.00  0.00    -0.249 OA
BRANCH  17  19
ATOM     19  O   UNK A   1      10.635  -1.974  22.482  0.00  0.00    -0.479 OA
ATOM     20  H   UNK A   1      10.927  -2.700  21.903  0.00  0.00    +0.295 HD
ENDBRANCH  17  19
ENDBRANCH  16  17
BRANCH  16  21
ATOM     21  C   UNK A   1      10.147   0.088  24.145  0.00  0.00    +0.045 C 
BRANCH  21  22
ATOM     22  C   UNK A   1       9.244   1.090  23.415  0.00  0.00    +0.123 C 
BRANCH  22  23
ATOM     23  C   UNK A   1       9.547   1.165  21.939  0.00  0.00    +0.305 C 
ATOM     24  O   UNK A   1       9.283   0.290  21.131  0.00  0.00    -0.251 OA
BRANCH  23  25
ATOM     25  O   UNK A   1      10.195   2.302  21.592  0.00  0.00    -0.481 OA
ATOM     26  H   UNK A   1      10.910   2.192  20.941  0.00  0.00    +0.295 HD
ENDBRANCH  23  25
ENDBRANCH  22  23
ENDBRANCH  21  22
ENDBRANCH  16  21
ENDBRANCH   2  16
TORSDOF 12
ENDMDL
MODEL 2
REMARK VINA RESULT:      -5.8      1.887      3.156
REMARK  Name = 
REMARK  13 active torsions:
REMARK  status: ('A' for Active; 'I' for Inactive)
REMARK    1  A    between atoms: C_1  and  C_2
REMARK    2  A    between atoms: N_4  and  C_5
REMARK    3  A    between atoms: C_5  and  C_7
REMARK    4  A    between atoms: C_5  and  C_21
REMARK    5  A    between atoms: C_7  and  C_8
REMARK    6  A    between atoms: N_10  and  C_11
REMARK    7  A    between atoms: C_11  and  C_13
REMARK    8  A    between atoms: C_11  and  C_18
REMARK    9  A    between atoms: C_13  and  C_14
REMARK   10  A    between atoms: C_14  and  C_15
REMARK   11  A    between atoms: C_15  and  O_16
REMARK   12  A    between atoms: C_18  and  O_19
REMARK   13  A    between atoms: C_21  and  O_22
REMARK                            x       y       z     vdW  Elec       q    Type
REMARK                         _______ _______ _______ _____ _____    ______ ____
ROOT
ATOM      1  C   UNK A   1       9.314  -3.198  24.520  0.00  0.00    +0.216 C 
ATOM      2  N   UNK A   1      10.017  -2.250  23.838  0.00  0.00    -0.302 N 
ATOM      3  H   UNK A   1      10.975  -2.567  23.746  0.00  0.00    +0.150 HD
ATOM      4  O   UNK A   1       9.779  -4.335  24.583  0.00  0.00    -0.276 OA
ENDROOT
BRANCH   1   5
ATOM      5  C   UNK A   1       8.047  -2.834  25.250  0.00  0.00    +0.129 C 
BRANCH   5   6
ATOM      6  C   UNK A   1       6.833  -3.225  24.395  0.00  0.00    +0.190 C 
BRANCH   6   9
ATOM      7  C   UNK A   0       7.083  -5.914  21.688  0.00  0.00    +0.109 C 
ATOM      8  C   UNK A   0       6.610  -5.262  22.953  0.00  0.00    +0.211 C 
ATOM      9  N   UNK A   1       7.194  -4.058  23.239  0.00  0.00    -0.302 N 
ATOM     10  H   UNK A   1       7.921  -3.707  22.622  0.00  0.00    +0.150 HD
ATOM     11  O   UNK A   0       5.781  -5.766  23.706  0.00  0.00    -0.276 OA
ENDBRANCH   6   9
BRANCH   6  12
ATOM     12  C   UNK A   1       5.965  -2.007  24.016  0.00  0.00    +0.326 C 
ATOM     13  O   UNK A   1       5.195  -1.460  24.795  0.00  0.00    -0.249 OA
BRANCH  12  14
ATOM     14  O   UNK A   1       6.191  -1.498  22.784  0.00  0.00    -0.479 OA
ATOM     15  H   UNK A   1       5.465  -0.917  22.447  0.00  0.00    +0.295 HD
ENDBRANCH  12  14
ENDBRANCH   6  12
ENDBRANCH   5   6
ENDBRANCH   1   5
BRANCH   2  16
ATOM     16  C   UNK A   1       9.664  -0.836  23.612  0.00  0.00    +0.182 C 
BRANCH  16  17
ATOM     17  C   UNK A   1      10.325   0.124  24.613  0.00  0.00    +0.325 C 
ATOM     18  O   UNK A   1      11.310   0.798  24.352  0.00  0.00    -0.249 OA
BRANCH  17  19
ATOM     19  O   UNK A   1       9.845   0.028  25.877  0.00  0.00    -0.479 OA
ATOM     20  H   UNK A   1      10.455   0.350  26.563  0.00  0.00    +0.295 HD
ENDBRANCH  17  19
ENDBRANCH  16  17
BRANCH  16  21
ATOM     21  C   UNK A   1      10.005  -0.395  22.172  0.00  0.00    +0.045 C 
BRANCH  21  22
ATOM     22  C   UNK A   1       8.898   0.429  21.502  0.00  0.00    +0.123 C 
BRANCH  22  23
ATOM     23  C   UNK A   1       9.035   1.905  21.779  0.00  0.00    +0.305 C 
ATOM     24  O   UNK A   1       8.100   2.663  21.978  0.00  0.00    -0.251 OA
BRANCH  23  25
ATOM     25  O   UNK A   1      10.319   2.330  21.740  0.00  0.00    -0.481 OA
ATOM     26  H   UNK A   1      10.725   2.510  22.607  0.00  0.00    +0.295 HD
ENDBRANCH  23  25
ENDBRANCH  22  23
ENDBRANCH  21  22
ENDBRANCH  16  21
ENDBRANCH   2  16
TORSDOF 12
ENDMDL
MODEL 3
REMARK VINA RESULT:      -5.7      2.524      7.071
REMARK  Name = 
REMARK  13 active torsions:
REMARK  status: ('A' for Active; 'I' for Inactive)
REMARK    1  A    between atoms: C_1  and  C_2
REMARK    2  A    between atoms: N_4  and  C_5
REMARK    3  A    between atoms: C_5  and  C_7
REMARK    4  A    between atoms: C_5  and  C_21
REMARK    5  A    between atoms: C_7  and  C_8
REMARK    6  A    between atoms: N_10  and  C_11
REMARK    7  A    between atoms: C_11  and  C_13
REMARK    8  A    between atoms: C_11  and  C_18
REMARK    9  A    between atoms: C_13  and  C_14
REMARK   10  A    between atoms: C_14  and  C_15
REMARK   11  A    between atoms: C_15  and  O_16
REMARK   12  A    between atoms: C_18  and  O_19
REMARK   13  A    between atoms: C_21  and  O_22
REMARK                            x       y       z     vdW  Elec       q    Type
REMARK                         _______ _______ _______ _____ _____    ______ ____
ROOT
ATOM      1  C   UNK A   1      10.235   0.382  24.486  0.00  0.00    +0.216 C 
ATOM      2  N   UNK A   1       9.927  -0.905  24.157  0.00  0.00    -0.302 N 
ATOM      3  H   UNK A   1      10.789  -1.397  23.950  0.00  0.00    +0.150 HD
ATOM      4  O   UNK A   1      11.390   0.637  24.824  0.00  0.00    -0.276 OA
ENDROOT
BRANCH   1   5
ATOM      5  C   UNK A   1       9.205   1.474  24.351  0.00  0.00    +0.129 C 
BRANCH   5   6
ATOM      6  C   UNK A   1       9.519   2.324  23.111  0.00  0.00    +0.190 C 
BRANCH   6   9
ATOM      7  C   UNK A   0      10.627   5.927  23.751  0.00  0.00    +0.109 C 
ATOM      8  C   UNK A   0      10.775   4.457  23.502  0.00  0.00    +0.211 C 
ATOM      9  N   UNK A   1       9.600   3.761  23.411  0.00  0.00    -0.302 N 
ATOM     10  H   UNK A   1       8.726   4.256  23.555  0.00  0.00    +0.150 HD
ATOM     11  O   UNK A   0      11.862   3.892  23.410  0.00  0.00    -0.276 OA
ENDBRANCH   6   9
BRANCH   6  12
ATOM     12  C   UNK A   1       8.581   2.004  21.928  0.00  0.00    +0.326 C 
ATOM     13  O   UNK A   1       7.503   2.555  21.756  0.00  0.00    -0.249 OA
BRANCH  12  14
ATOM     14  O   UNK A   1       9.082   1.145  21.012  0.00  0.00    -0.479 OA
ATOM     15  H   UNK A   1       8.659   1.212  20.120  0.00  0.00    +0.295 HD
ENDBRANCH  12  14
ENDBRANCH   6  12
ENDBRANCH   5   6
ENDBRANCH   1   5
BRANCH   2  16
ATOM     16  C   UNK A   1       8.625  -1.455  23.740  0.00  0.00    +0.182 C 
BRANCH  16  17
ATOM     17  C   UNK A   1       8.630  -2.017  22.310  0.00  0.00    +0.325 C 
ATOM     18  O   UNK A   1       7.796  -2.806  21.891  0.00  0.00    -0.249 OA
BRANCH  17  19
ATOM     19  O   UNK A   1       9.744  -1.717  21.599  0.00  0.00    -0.479 OA
ATOM     20  H   UNK A   1      10.576  -1.996  22.020  0.00  0.00    +0.295 HD
ENDBRANCH  17  19
ENDBRANCH  16  17
BRANCH  16  21
ATOM     21  C   UNK A   1       8.135  -2.545  24.720  0.00  0.00    +0.045 C 
BRANCH  21  22
ATOM     22  C   UNK A   1       9.272  -3.346  25.367  0.00  0.00    +0.123 C 
BRANCH  22  23
ATOM     23  C   UNK A   1       9.360  -4.752  24.831  0.00  0.00    +0.305 C 
ATOM     24  O   UNK A   1       8.604  -5.227  24.000  0.00  0.00    -0.251 OA
BRANCH  23  25
ATOM     25  O   UNK A   1      10.353  -5.472  25.405  0.00  0.00    -0.481 OA
ATOM     26  H   UNK A   1      11.255  -5.150  25.230  0.00  0.00    +0.295 HD
ENDBRANCH  23  25
ENDBRANCH  22  23
ENDBRANCH  21  22
ENDBRANCH  16  21
ENDBRANCH   2  16
TORSDOF 12
ENDMDL
MODEL 4
REMARK VINA RESULT:      -5.7      1.419      1.962
REMARK  Name = 
REMARK  13 active torsions:
REMARK  status: ('A' for Active; 'I' for Inactive)
REMARK    1  A    between atoms: C_1  and  C_2
REMARK    2  A    between atoms: N_4  and  C_5
REMARK    3  A    between atoms: C_5  and  C_7
REMARK    4  A    between atoms: C_5  and  C_21
REMARK    5  A    between atoms: C_7  and  C_8
REMARK    6  A    between atoms: N_10  and  C_11
REMARK    7  A    between atoms: C_11  and  C_13
REMARK    8  A    between atoms: C_11  and  C_18
REMARK    9  A    between atoms: C_13  and  C_14
REMARK   10  A    between atoms: C_14  and  C_15
REMARK   11  A    between atoms: C_15  and  O_16
REMARK   12  A    between atoms: C_18  and  O_19
REMARK   13  A    between atoms: C_21  and  O_22
REMARK                            x       y       z     vdW  Elec       q    Type
REMARK                         _______ _______ _______ _____ _____    ______ ____
ROOT
ATOM      1  C   UNK A   1       7.846  -1.339  25.456  0.00  0.00    +0.216 C 
ATOM      2  N   UNK A   1       8.584  -0.527  24.646  0.00  0.00    -0.302 N 
ATOM      3  H   UNK A   1       7.948   0.012  24.070  0.00  0.00    +0.150 HD
ATOM      4  O   UNK A   1       6.661  -1.064  25.634  0.00  0.00    -0.276 OA
ENDROOT
BRANCH   1   5
ATOM      5  C   UNK A   1       8.451  -2.588  26.043  0.00  0.00    +0.129 C 
BRANCH   5   6
ATOM      6  C   UNK A   1       8.456  -3.701  24.986  0.00  0.00    +0.190 C 
BRANCH   6   9
ATOM      7  C   UNK A   0       5.424  -4.164  22.703  0.00  0.00    +0.109 C 
ATOM      8  C   UNK A   0       6.825  -3.795  23.085  0.00  0.00    +0.211 C 
ATOM      9  N   UNK A   1       7.126  -3.948  24.412  0.00  0.00    -0.302 N 
ATOM     10  H   UNK A   1       6.395  -4.253  25.047  0.00  0.00    +0.150 HD
ATOM     11  O   UNK A   0       7.652  -3.358  22.288  0.00  0.00    -0.276 OA
ENDBRANCH   6   9
BRANCH   6  12
ATOM     12  C   UNK A   1       9.147  -4.986  25.489  0.00  0.00    +0.326 C 
ATOM     13  O   UNK A   1      10.315  -5.260  25.249  0.00  0.00    -0.249 OA
BRANCH  12  14
ATOM     14  O   UNK A   1       8.405  -5.753  26.320  0.00  0.00    -0.479 OA
ATOM     15  H   UNK A   1       7.881  -5.240  26.983  0.00  0.00    +0.295 HD
ENDBRANCH  12  14
ENDBRANCH   6  12
ENDBRANCH   5   6
ENDBRANCH   1   5
BRANCH   2  16
ATOM     16  C   UNK A   1      10.011  -0.639  24.295  0.00  0.00    +0.182 C 
BRANCH  16  17
ATOM     17  C   UNK A   1      10.248  -1.117  22.854  0.00  0.00    +0.325 C 
ATOM     18  O   UNK A   1       9.976  -0.449  21.868  0.00  0.00    -0.249 OA
BRANCH  17  19
ATOM     19  O   UNK A   1      10.609  -2.419  22.752  0.00  0.00    -0.479 OA
ATOM     20  H   UNK A   1      11.557  -2.560  22.581  0.00  0.00    +0.295 HD
ENDBRANCH  17  19
ENDBRANCH  16  17
BRANCH  16  21
ATOM     21  C   UNK A   1      10.753   0.697  24.524  0.00  0.00    +0.045 C 
BRANCH  21  22
ATOM     22  C   UNK A   1       9.922   1.932  24.155  0.00  0.00    +0.123 C 
BRANCH  22  23
ATOM     23  C   UNK A   1      10.594   2.784  23.108  0.00  0.00    +0.305 C 
ATOM     24  O   UNK A   1      11.332   3.726  23.347  0.00  0.00    -0.251 OA
BRANCH  23  25
ATOM     25  O   UNK A   1      10.259   2.426  21.846  0.00  0.00    -0.481 OA
ATOM     26  H   UNK A   1      10.071   1.479  21.717  0.00  0.00    +0.295 HD
ENDBRANCH  23  25
ENDBRANCH  22  23
ENDBRANCH  21  22
ENDBRANCH  16  21
ENDBRANCH   2  16
TORSDOF 12
ENDMDL
MODEL 5
REMARK VINA RESULT:      -5.6      1.657      2.318
REMARK  Name = 
REMARK  13 active torsions:
REMARK  status: ('A' for Active; 'I' for Inactive)
REMARK    1  A    between atoms: C_1  and  C_2
REMARK    2  A    between atoms: N_4  and  C_5
REMARK    3  A    between atoms: C_5  and  C_7
REMARK    4  A    between atoms: C_5  and  C_21
REMARK    5  A    between atoms: C_7  and  C_8
REMARK    6  A    between atoms: N_10  and  C_11
REMARK    7  A    between atoms: C_11  and  C_13
REMARK    8  A    between atoms: C_11  and  C_18
REMARK    9  A    between atoms: C_13  and  C_14
REMARK   10  A    between atoms: C_14  and  C_15
REMARK   11  A    between atoms: C_15  and  O_16
REMARK   12  A    between atoms: C_18  and  O_19
REMARK   13  A    between atoms: C_21  and  O_22
REMARK                            x       y       z     vdW  Elec       q    Type
REMARK                         _______ _______ _______ _____ _____    ______ ____
ROOT
ATOM      1  C   UNK A   1       9.482  -3.378  24.496  0.00  0.00    +0.216 C 
ATOM      2  N   UNK A   1      10.101  -2.311  23.917  0.00  0.00    -0.302 N 
ATOM      3  H   UNK A   1      11.097  -2.496  23.887  0.00  0.00    +0.150 HD
ATOM      4  O   UNK A   1      10.088  -4.448  24.543  0.00  0.00    -0.276 OA
ENDROOT
BRANCH   1   5
ATOM      5  C   UNK A   1       8.128  -3.223  25.140  0.00  0.00    +0.129 C 
BRANCH   5   6
ATOM      6  C   UNK A   1       7.537  -4.609  25.432  0.00  0.00    +0.190 C 
BRANCH   6   9
ATOM      7  C   UNK A   0       4.928  -5.681  22.850  0.00  0.00    +0.109 C 
ATOM      8  C   UNK A   0       6.293  -5.432  23.418  0.00  0.00    +0.211 C 
ATOM      9  N   UNK A   1       6.309  -4.878  24.670  0.00  0.00    -0.302 N 
ATOM     10  H   UNK A   1       5.427  -4.636  25.110  0.00  0.00    +0.150 HD
ATOM     11  O   UNK A   0       7.334  -5.674  22.812  0.00  0.00    -0.276 OA
ENDBRANCH   6   9
BRANCH   6  12
ATOM     12  C   UNK A   1       7.382  -4.875  26.944  0.00  0.00    +0.326 C 
ATOM     13  O   UNK A   1       6.611  -4.251  27.661  0.00  0.00    -0.249 OA
BRANCH  12  14
ATOM     14  O   UNK A   1       8.079  -5.932  27.419  0.00  0.00    -0.479 OA
ATOM     15  H   UNK A   1       7.694  -6.811  27.178  0.00  0.00    +0.295 HD
ENDBRANCH  12  14
ENDBRANCH   6  12
ENDBRANCH   5   6
ENDBRANCH   1   5
BRANCH   2  16
ATOM     16  C   UNK A   1       9.581  -0.944  23.730  0.00  0.00    +0.182 C 
BRANCH  16  17
ATOM     17  C   UNK A   1      10.064   0.044  24.803  0.00  0.00    +0.325 C 
ATOM     18  O   UNK A   1      11.192   0.511  24.832  0.00  0.00    -0.249 OA
BRANCH  17  19
ATOM     19  O   UNK A   1       9.198   0.214  25.832  0.00  0.00    -0.479 OA
ATOM     20  H   UNK A   1       8.757   1.081  25.846  0.00  0.00    +0.295 HD
ENDBRANCH  17  19
ENDBRANCH  16  17
BRANCH  16  21
ATOM     21  C   UNK A   1       9.932  -0.395  22.329  0.00  0.00    +0.045 C 
BRANCH  21  22
ATOM     22  C   UNK A   1       8.816   0.448  21.702  0.00  0.00    +0.123 C 
BRANCH  22  23
ATOM     23  C   UNK A   1       9.046   1.928  21.879  0.00  0.00    +0.305 C 
ATOM     24  O   UNK A   1       8.179   2.737  22.163  0.00  0.00    -0.251 OA
BRANCH  23  25
ATOM     25  O   UNK A   1      10.329   2.292  21.642  0.00  0.00    -0.481 OA
ATOM     26  H   UNK A   1      10.965   2.053  22.339  0.00  0.00    +0.295 HD
ENDBRANCH  23  25
ENDBRANCH  22  23
ENDBRANCH  21  22
ENDBRANCH  16  21
ENDBRANCH   2  16
TORSDOF 12
ENDMDL
MODEL 6
REMARK VINA RESULT:      -5.6      1.804      6.243
REMARK  Name = 
REMARK  13 active torsions:
REMARK  status: ('A' for Active; 'I' for Inactive)
REMARK    1  A    between atoms: C_1  and  C_2
REMARK    2  A    between atoms: N_4  and  C_5
REMARK    3  A    between atoms: C_5  and  C_7
REMARK    4  A    between atoms: C_5  and  C_21
REMARK    5  A    between atoms: C_7  and  C_8
REMARK    6  A    between atoms: N_10  and  C_11
REMARK    7  A    between atoms: C_11  and  C_13
REMARK    8  A    between atoms: C_11  and  C_18
REMARK    9  A    between atoms: C_13  and  C_14
REMARK   10  A    between atoms: C_14  and  C_15
REMARK   11  A    between atoms: C_15  and  O_16
REMARK   12  A    between atoms: C_18  and  O_19
REMARK   13  A    between atoms: C_21  and  O_22
REMARK                            x       y       z     vdW  Elec       q    Type
REMARK                         _______ _______ _______ _____ _____    ______ ____
ROOT
ATOM      1  C   UNK A   1       8.313  -1.583  24.487  0.00  0.00    +0.216 C 
ATOM      2  N   UNK A   1       7.892  -2.878  24.422  0.00  0.00    -0.302 N 
ATOM      3  H   UNK A   1       6.971  -2.935  24.842  0.00  0.00    +0.150 HD
ATOM      4  O   UNK A   1       7.471  -0.704  24.667  0.00  0.00    -0.276 OA
ENDROOT
BRANCH   1   5
ATOM      5  C   UNK A   1       9.782  -1.252  24.428  0.00  0.00    +0.129 C 
BRANCH   5   6
ATOM      6  C   UNK A   1      10.005  -0.079  23.462  0.00  0.00    +0.190 C 
BRANCH   6   9
ATOM      7  C   UNK A   0       8.987   3.503  24.330  0.00  0.00    +0.109 C 
ATOM      8  C   UNK A   0       9.898   2.379  23.939  0.00  0.00    +0.211 C 
ATOM      9  N   UNK A   1       9.308   1.145  23.882  0.00  0.00    -0.302 N 
ATOM     10  H   UNK A   1       8.330   1.058  24.142  0.00  0.00    +0.150 HD
ATOM     11  O   UNK A   0      11.095   2.527  23.707  0.00  0.00    -0.276 OA
ENDBRANCH   6   9
BRANCH   6  12
ATOM     12  C   UNK A   1       9.721  -0.464  21.995  0.00  0.00    +0.326 C 
ATOM     13  O   UNK A   1       9.138   0.269  21.207  0.00  0.00    -0.249 OA
BRANCH  12  14
ATOM     14  O   UNK A   1      10.264  -1.635  21.591  0.00  0.00    -0.479 OA
ATOM     15  H   UNK A   1      10.430  -2.278  22.323  0.00  0.00    +0.295 HD
ENDBRANCH  12  14
ENDBRANCH   6  12
ENDBRANCH   5   6
ENDBRANCH   1   5
BRANCH   2  16
ATOM     16  C   UNK A   1       8.698  -4.091  24.201  0.00  0.00    +0.182 C 
BRANCH  16  17
ATOM     17  C   UNK A   1       9.250  -4.701  25.500  0.00  0.00    +0.325 C 
ATOM     18  O   UNK A   1       8.936  -4.311  26.615  0.00  0.00    -0.249 OA
BRANCH  17  19
ATOM     19  O   UNK A   1      10.261  -5.584  25.314  0.00  0.00    -0.479 OA
ATOM     20  H   UNK A   1      10.153  -6.423  25.795  0.00  0.00    +0.295 HD
ENDBRANCH  17  19
ENDBRANCH  16  17
BRANCH  16  21
ATOM     21  C   UNK A   1       7.901  -5.164  23.426  0.00  0.00    +0.045 C 
BRANCH  21  22
ATOM     22  C   UNK A   1       6.965  -4.582  22.359  0.00  0.00    +0.123 C 
BRANCH  22  23
ATOM     23  C   UNK A   1       6.291  -5.655  21.542  0.00  0.00    +0.305 C 
ATOM     24  O   UNK A   1       5.987  -5.544  20.366  0.00  0.00    -0.251 OA
BRANCH  23  25
ATOM     25  O   UNK A   1       6.005  -6.764  22.264  0.00  0.00    -0.481 OA
ATOM     26  H   UNK A   1       5.310  -6.656  22.936  0.00  0.00    +0.295 HD
ENDBRANCH  23  25
ENDBRANCH  22  23
ENDBRANCH  21  22
ENDBRANCH  16  21
ENDBRANCH   2  16
TORSDOF 12
ENDMDL
MODEL 7
REMARK VINA RESULT:      -5.6      1.774      6.574
REMARK  Name = 
REMARK  13 active torsions:
REMARK  status: ('A' for Active; 'I' for Inactive)
REMARK    1  A    between atoms: C_1  and  C_2
REMARK    2  A    between atoms: N_4  and  C_5
REMARK    3  A    between atoms: C_5  and  C_7
REMARK    4  A    between atoms: C_5  and  C_21
REMARK    5  A    between atoms: C_7  and  C_8
REMARK    6  A    between atoms: N_10  and  C_11
REMARK    7  A    between atoms: C_11  and  C_13
REMARK    8  A    between atoms: C_11  and  C_18
REMARK    9  A    between atoms: C_13  and  C_14
REMARK   10  A    between atoms: C_14  and  C_15
REMARK   11  A    between atoms: C_15  and  O_16
REMARK   12  A    between atoms: C_18  and  O_19
REMARK   13  A    between atoms: C_21  and  O_22
REMARK                            x       y       z     vdW  Elec       q    Type
REMARK                         _______ _______ _______ _____ _____    ______ ____
ROOT
ATOM      1  C   UNK A   1       8.851  -3.174  23.881  0.00  0.00    +0.216 C 
ATOM      2  N   UNK A   1       8.223  -4.384  23.901  0.00  0.00    -0.302 N 
ATOM      3  H   UNK A   1       8.914  -5.105  23.730  0.00  0.00    +0.150 HD
ATOM      4  O   UNK A   1      10.072  -3.148  24.028  0.00  0.00    -0.276 OA
ENDROOT
BRANCH   1   5
ATOM      5  C   UNK A   1       8.075  -1.913  23.597  0.00  0.00    +0.129 C 
BRANCH   5   6
ATOM      6  C   UNK A   1       9.053  -0.752  23.361  0.00  0.00    +0.190 C 
BRANCH   6   9
ATOM      7  C   UNK A   0       8.695   2.726  24.910  0.00  0.00    +0.109 C 
ATOM      8  C   UNK A   0       9.388   1.474  24.462  0.00  0.00    +0.211 C 
ATOM      9  N   UNK A   1       8.571   0.520  23.917  0.00  0.00    -0.302 N 
ATOM     10  H   UNK A   1       7.571   0.692  23.888  0.00  0.00    +0.150 HD
ATOM     11  O   UNK A   0      10.596   1.286  24.589  0.00  0.00    -0.276 OA
ENDBRANCH   6   9
BRANCH   6  12
ATOM     12  C   UNK A   1       9.489  -0.642  21.885  0.00  0.00    +0.326 C 
ATOM     13  O   UNK A   1       9.155   0.279  21.152  0.00  0.00    -0.249 OA
BRANCH  12  14
ATOM     14  O   UNK A   1      10.369  -1.581  21.472  0.00  0.00    -0.479 OA
ATOM     15  H   UNK A   1      11.233  -1.216  21.160  0.00  0.00    +0.295 HD
ENDBRANCH  12  14
ENDBRANCH   6  12
ENDBRANCH   5   6
ENDBRANCH   1   5
BRANCH   2  16
ATOM     16  C   UNK A   1       6.783  -4.668  23.764  0.00  0.00    +0.182 C 
BRANCH  16  17
ATOM     17  C   UNK A   1       6.440  -5.480  22.505  0.00  0.00    +0.325 C 
ATOM     18  O   UNK A   1       7.270  -6.093  21.850  0.00  0.00    -0.249 OA
BRANCH  17  19
ATOM     19  O   UNK A   1       5.170  -5.310  22.062  0.00  0.00    -0.479 OA
ATOM     20  H   UNK A   1       5.077  -5.336  21.094  0.00  0.00    +0.295 HD
ENDBRANCH  17  19
ENDBRANCH  16  17
BRANCH  16  21
ATOM     21  C   UNK A   1       6.232  -5.394  25.011  0.00  0.00    +0.045 C 
BRANCH  21  22
ATOM     22  C   UNK A   1       6.478  -4.637  26.322  0.00  0.00    +0.123 C 
BRANCH  22  23
ATOM     23  C   UNK A   1       7.481  -5.333  27.207  0.00  0.00    +0.305 C 
ATOM     24  O   UNK A   1       7.198  -6.140  28.077  0.00  0.00    -0.251 OA
BRANCH  23  25
ATOM     25  O   UNK A   1       8.754  -4.937  26.970  0.00  0.00    -0.481 OA
ATOM     26  H   UNK A   1       9.027  -4.119  27.422  0.00  0.00    +0.295 HD
ENDBRANCH  23  25
ENDBRANCH  22  23
ENDBRANCH  21  22
ENDBRANCH  16  21
ENDBRANCH   2  16
TORSDOF 12
ENDMDL
MODEL 8
REMARK VINA RESULT:      -5.5      1.952      6.296
REMARK  Name = 
REMARK  13 active torsions:
REMARK  status: ('A' for Active; 'I' for Inactive)
REMARK    1  A    between atoms: C_1  and  C_2
REMARK    2  A    between atoms: N_4  and  C_5
REMARK    3  A    between atoms: C_5  and  C_7
REMARK    4  A    between atoms: C_5  and  C_21
REMARK    5  A    between atoms: C_7  and  C_8
REMARK    6  A    between atoms: N_10  and  C_11
REMARK    7  A    between atoms: C_11  and  C_13
REMARK    8  A    between atoms: C_11  and  C_18
REMARK    9  A    between atoms: C_13  and  C_14
REMARK   10  A    between atoms: C_14  and  C_15
REMARK   11  A    between atoms: C_15  and  O_16
REMARK   12  A    between atoms: C_18  and  O_19
REMARK   13  A    between atoms: C_21  and  O_22
REMARK                            x       y       z     vdW  Elec       q    Type
REMARK                         _______ _______ _______ _____ _____    ______ ____
ROOT
ATOM      1  C   UNK A   1       9.480  -1.731  22.430  0.00  0.00    +0.216 C 
ATOM      2  N   UNK A   1       8.779  -2.796  22.913  0.00  0.00    -0.302 N 
ATOM      3  H   UNK A   1       9.361  -3.622  22.837  0.00  0.00    +0.150 HD
ATOM      4  O   UNK A   1      10.703  -1.830  22.341  0.00  0.00    -0.276 OA
ENDROOT
BRANCH   1   5
ATOM      5  C   UNK A   1       8.761  -0.501  21.938  0.00  0.00    +0.129 C 
BRANCH   5   6
ATOM      6  C   UNK A   1       9.055   0.676  22.880  0.00  0.00    +0.190 C 
BRANCH   6   9
ATOM      7  C   UNK A   0       7.576   0.444  26.398  0.00  0.00    +0.109 C 
ATOM      8  C   UNK A   0       8.600   0.292  25.314  0.00  0.00    +0.211 C 
ATOM      9  N   UNK A   1       8.190   0.685  24.068  0.00  0.00    -0.302 N 
ATOM     10  H   UNK A   1       7.235   1.006  23.946  0.00  0.00    +0.150 HD
ATOM     11  O   UNK A   0       9.721  -0.175  25.502  0.00  0.00    -0.276 OA
ENDBRANCH   6   9
BRANCH   6  12
ATOM     12  C   UNK A   1       9.081   2.029  22.138  0.00  0.00    +0.326 C 
ATOM     13  O   UNK A   1       8.120   2.784  22.083  0.00  0.00    -0.249 OA
BRANCH  12  14
ATOM     14  O   UNK A   1      10.284   2.390  21.639  0.00  0.00    -0.479 OA
ATOM     15  H   UNK A   1      10.739   1.679  21.124  0.00  0.00    +0.295 HD
ENDBRANCH  12  14
ENDBRANCH   6  12
ENDBRANCH   5   6
ENDBRANCH   1   5
BRANCH   2  16
ATOM     16  C   UNK A   1       7.326  -2.914  23.126  0.00  0.00    +0.182 C 
BRANCH  16  17
ATOM     17  C   UNK A   1       6.637  -3.854  22.125  0.00  0.00    +0.325 C 
ATOM     18  O   UNK A   1       5.667  -3.533  21.455  0.00  0.00    -0.249 OA
BRANCH  17  19
ATOM     19  O   UNK A   1       7.070  -5.137  22.178  0.00  0.00    -0.479 OA
ATOM     20  H   UNK A   1       6.693  -5.716  21.493  0.00  0.00    +0.295 HD
ENDBRANCH  17  19
ENDBRANCH  16  17
BRANCH  16  21
ATOM     21  C   UNK A   1       7.003  -3.369  24.567  0.00  0.00    +0.045 C 
BRANCH  21  22
ATOM     22  C   UNK A   1       8.249  -3.650  25.416  0.00  0.00    +0.123 C 
BRANCH  22  23
ATOM     23  C   UNK A   1       8.689  -5.090  25.329  0.00  0.00    +0.305 C 
ATOM     24  O   UNK A   1       9.210  -5.599  24.350  0.00  0.00    -0.251 OA
BRANCH  23  25
ATOM     25  O   UNK A   1       8.404  -5.795  26.449  0.00  0.00    -0.481 OA
ATOM     26  H   UNK A   1       9.175  -6.070  26.976  0.00  0.00    +0.295 HD
ENDBRANCH  23  25
ENDBRANCH  22  23
ENDBRANCH  21  22
ENDBRANCH  16  21
ENDBRANCH   2  16
TORSDOF 12
ENDMDL
MODEL 9
REMARK VINA RESULT:      -5.5      2.228      3.887
REMARK  Name = 
REMARK  13 active torsions:
REMARK  status: ('A' for Active; 'I' for Inactive)
REMARK    1  A    between atoms: C_1  and  C_2
REMARK    2  A    between atoms: N_4  and  C_5
REMARK    3  A    between atoms: C_5  and  C_7
REMARK    4  A    between atoms: C_5  and  C_21
REMARK    5  A    between atoms: C_7  and  C_8
REMARK    6  A    between atoms: N_10  and  C_11
REMARK    7  A    between atoms: C_11  and  C_13
REMARK    8  A    between atoms: C_11  and  C_18
REMARK    9  A    between atoms: C_13  and  C_14
REMARK   10  A    between atoms: C_14  and  C_15
REMARK   11  A    between atoms: C_15  and  O_16
REMARK   12  A    between atoms: C_18  and  O_19
REMARK   13  A    between atoms: C_21  and  O_22
REMARK                            x       y       z     vdW  Elec       q    Type
REMARK                         _______ _______ _______ _____ _____    ______ ____
ROOT
ATOM      1  C   UNK A   1       7.410  -1.705  24.523  0.00  0.00    +0.216 C 
ATOM      2  N   UNK A   1       8.016  -0.719  25.243  0.00  0.00    -0.302 N 
ATOM      3  H   UNK A   1       7.916  -0.935  26.228  0.00  0.00    +0.150 HD
ATOM      4  O   UNK A   1       7.193  -2.782  25.077  0.00  0.00    -0.276 OA
ENDROOT
BRANCH   1   5
ATOM      5  C   UNK A   1       6.941  -1.447  23.114  0.00  0.00    +0.129 C 
BRANCH   5   6
ATOM      6  C   UNK A   1       7.753  -2.309  22.137  0.00  0.00    +0.190 C 
BRANCH   6   9
ATOM      7  C   UNK A   0       6.761  -6.001  22.195  0.00  0.00    +0.109 C 
ATOM      8  C   UNK A   0       6.671  -4.549  21.835  0.00  0.00    +0.211 C 
ATOM      9  N   UNK A   1       7.624  -3.749  22.405  0.00  0.00    -0.302 N 
ATOM     10  H   UNK A   1       8.289  -4.163  23.050  0.00  0.00    +0.150 HD
ATOM     11  O   UNK A   0       5.798  -4.085  21.106  0.00  0.00    -0.276 OA
ENDBRANCH   6   9
BRANCH   6  12
ATOM     12  C   UNK A   1       9.220  -1.843  22.023  0.00  0.00    +0.326 C 
ATOM     13  O   UNK A   1      10.139  -2.352  22.651  0.00  0.00    -0.249 OA
BRANCH  12  14
ATOM     14  O   UNK A   1       9.453  -0.896  21.086  0.00  0.00    -0.479 OA
ATOM     15  H   UNK A   1       8.687  -0.722  20.487  0.00  0.00    +0.295 HD
ENDBRANCH  12  14
ENDBRANCH   6  12
ENDBRANCH   5   6
ENDBRANCH   1   5
BRANCH   2  16
ATOM     16  C   UNK A   1       8.391   0.636  24.802  0.00  0.00    +0.182 C 
BRANCH  16  17
ATOM     17  C   UNK A   1       7.593   1.748  25.502  0.00  0.00    +0.325 C 
ATOM     18  O   UNK A   1       6.389   1.690  25.702  0.00  0.00    -0.249 OA
BRANCH  17  19
ATOM     19  O   UNK A   1       8.295   2.888  25.713  0.00  0.00    -0.479 OA
ATOM     20  H   UNK A   1       7.791   3.591  26.159  0.00  0.00    +0.295 HD
ENDBRANCH  17  19
ENDBRANCH  16  17
BRANCH  16  21
ATOM     21  C   UNK A   1       9.903   0.891  24.989  0.00  0.00    +0.045 C 
BRANCH  21  22
ATOM     22  C   UNK A   1      10.667   1.053  23.669  0.00  0.00    +0.123 C 
BRANCH  22  23
ATOM     23  C   UNK A   1      10.247   2.287  22.910  0.00  0.00    +0.305 C 
ATOM     24  O   UNK A   1      10.103   3.392  23.407  0.00  0.00    -0.251 OA
BRANCH  23  25
ATOM     25  O   UNK A   1       9.992   2.039  21.604  0.00  0.00    -0.481 OA
ATOM     26  H   UNK A   1      10.222   2.759  20.991  0.00  0.00    +0.295 HD
ENDBRANCH  23  25
ENDBRANCH  22  23
ENDBRANCH  21  22
ENDBRANCH  16  21
ENDBRANCH   2  16
TORSDOF 12
ENDMDL
