MODEL 1
REMARK VINA RESULT:      -6.6      0.000      0.000
REMARK  Name = 
REMARK  7 active torsions:
REMARK  status: ('A' for Active; 'I' for Inactive)
REMARK    1  A    between atoms: C_2  and  N_3
REMARK    2  A    between atoms: C_2  and  C_14
REMARK    3  A    between atoms: C_2  and  C_17
REMARK    4  A    between atoms: N_3  and  C_4
REMARK    5  A    between atoms: C_6  and  C_7
REMARK    6  A    between atoms: C_10  and  C_11
REMARK    7  A    between atoms: C_11  and  C_12
REMARK                            x       y       z     vdW  Elec       q    Type
REMARK                         _______ _______ _______ _____ _____    ______ ____
ROOT
ATOM      1  C   UNL     1       7.617  -4.196  25.438  0.00  0.00    +0.189 C 
ENDROOT
BRANCH   1   2
ATOM      2  C   UNL     1       6.474  -5.142  25.082  0.00  0.00    +0.009 A 
ATOM      3  C   UNL     1       5.783  -5.802  26.134  0.00  0.00    +0.024 A 
ATOM      4 BR   UNL     1       6.227  -5.574  27.978  0.00  0.00    -0.050 Br
ATOM      5  C   UNL     1       4.738  -6.704  25.888  0.00  0.00    +0.016 A 
ATOM      6  C   UNL     1       4.345  -6.975  24.587  0.00  0.00    +0.002 A 
ATOM      7  C   UNL     1       5.024  -6.380  23.533  0.00  0.00    +0.016 A 
ATOM      8  C   UNL     1       6.091  -5.495  23.767  0.00  0.00    +0.024 A 
ATOM      9 BR   UNL     1       6.974  -4.919  22.177  0.00  0.00    -0.050 Br
ENDBRANCH   1   2
BRANCH   1  10
ATOM     10  C   UNL     1       8.970  -4.965  25.480  0.00  0.00    +0.235 C 
ATOM     11  O   UNL     1       9.468  -5.554  24.523  0.00  0.00    -0.274 OA
ATOM     12  N   UNL     1       9.633  -4.933  26.677  0.00  0.00    -0.328 N 
ATOM     13  H   UNL     1      10.564  -5.322  26.688  0.00  0.00    +0.145 HD
ATOM     14  H   UNL     1       9.383  -4.278  27.407  0.00  0.00    +0.145 HD
ENDBRANCH   1  10
BRANCH   1  15
ATOM     15  N   UNL     1       7.770  -3.042  24.547  0.00  0.00    -0.329 N 
ATOM     16  H   UNL     1       8.117  -3.309  23.616  0.00  0.00    +0.147 HD
BRANCH  15  17
ATOM     17  C   UNL     1       8.105  -1.742  24.903  0.00  0.00    +0.039 A 
ATOM     18  C   UNL     1       9.022  -0.997  24.116  0.00  0.00    +0.038 A 
ATOM     19  C   UNL     1       9.308   0.344  24.416  0.00  0.00    +0.013 A 
ATOM     20  C   UNL     1       8.633   0.985  25.451  0.00  0.00    +0.004 A 
ATOM     21  C   UNL     1       7.689   0.294  26.211  0.00  0.00    -0.049 A 
ATOM     22  C   UNL     1       6.895   1.024  27.255  0.00  0.00    +0.044 C 
ATOM     23  C   UNL     1       7.450  -1.065  25.944  0.00  0.00    +0.027 A 
BRANCH  18  24
ATOM     24  C   UNL     1       9.724  -1.651  22.968  0.00  0.00    +0.162 C 
ATOM     25  O   UNL     1      10.442  -2.630  23.173  0.00  0.00    -0.292 OA
ATOM     26  C   UNL     1       9.521  -1.126  21.571  0.00  0.00    +0.091 C 
ENDBRANCH  18  24
ENDBRANCH  15  17
ENDBRANCH   1  15
TORSDOF 5
ENDMDL
MODEL 2
REMARK VINA RESULT:      -6.3      2.669      3.754
REMARK  Name = 
REMARK  7 active torsions:
REMARK  status: ('A' for Active; 'I' for Inactive)
REMARK    1  A    between atoms: C_2  and  N_3
REMARK    2  A    between atoms: C_2  and  C_14
REMARK    3  A    between atoms: C_2  and  C_17
REMARK    4  A    between atoms: N_3  and  C_4
REMARK    5  A    between atoms: C_6  and  C_7
REMARK    6  A    between atoms: C_10  and  C_11
REMARK    7  A    between atoms: C_11  and  C_12
REMARK                            x       y       z     vdW  Elec       q    Type
REMARK                         _______ _______ _______ _____ _____    ______ ____
ROOT
ATOM      1  C   UNL     1       7.010  -3.852  23.222  0.00  0.00    +0.189 C 
ENDROOT
BRANCH   1   2
ATOM      2  C   UNL     1       6.584  -4.520  24.527  0.00  0.00    +0.009 A 
ATOM      3  C   UNL     1       7.590  -4.912  25.451  0.00  0.00    +0.024 A 
ATOM      4 BR   UNL     1       9.457  -4.659  25.133  0.00  0.00    -0.050 Br
ATOM      5  C   UNL     1       7.282  -5.552  26.660  0.00  0.00    +0.016 A 
ATOM      6  C   UNL     1       5.961  -5.818  26.989  0.00  0.00    +0.002 A 
ATOM      7  C   UNL     1       4.956  -5.486  26.092  0.00  0.00    +0.016 A 
ATOM      8  C   UNL     1       5.257  -4.868  24.865  0.00  0.00    +0.024 A 
ATOM      9 BR   UNL     1       3.742  -4.644  23.727  0.00  0.00    -0.050 Br
ENDBRANCH   1   2
BRANCH   1  10
ATOM     10  C   UNL     1       6.634  -4.745  22.003  0.00  0.00    +0.235 C 
ATOM     11  O   UNL     1       5.911  -4.390  21.075  0.00  0.00    -0.274 OA
ATOM     12  N   UNL     1       7.192  -5.995  21.989  0.00  0.00    -0.328 N 
ATOM     13  H   UNL     1       7.056  -6.540  21.151  0.00  0.00    +0.145 HD
ATOM     14  H   UNL     1       7.963  -6.240  22.596  0.00  0.00    +0.145 HD
ENDBRANCH   1  10
BRANCH   1  15
ATOM     15  N   UNL     1       6.461  -2.512  23.000  0.00  0.00    -0.329 N 
ATOM     16  H   UNL     1       5.832  -2.476  22.186  0.00  0.00    +0.147 HD
BRANCH  15  17
ATOM     17  C   UNL     1       7.071  -1.295  23.273  0.00  0.00    +0.039 A 
ATOM     18  C   UNL     1       6.859  -0.649  24.520  0.00  0.00    +0.038 A 
ATOM     19  C   UNL     1       7.532   0.540  24.841  0.00  0.00    +0.013 A 
ATOM     20  C   UNL     1       8.480   1.062  23.965  0.00  0.00    +0.004 A 
ATOM     21  C   UNL     1       8.747   0.423  22.754  0.00  0.00    -0.049 A 
ATOM     22  C   UNL     1       9.842   0.939  21.866  0.00  0.00    +0.044 C 
ATOM     23  C   UNL     1       8.027  -0.734  22.411  0.00  0.00    +0.027 A 
BRANCH  18  24
ATOM     24  C   UNL     1       5.881  -1.218  25.499  0.00  0.00    +0.162 C 
ATOM     25  O   UNL     1       4.702  -1.353  25.171  0.00  0.00    -0.292 OA
ATOM     26  C   UNL     1       6.353  -1.650  26.862  0.00  0.00    +0.091 C 
ENDBRANCH  18  24
ENDBRANCH  15  17
ENDBRANCH   1  15
TORSDOF 5
ENDMDL
MODEL 3
REMARK VINA RESULT:      -6.3      1.506      2.593
REMARK  Name = 
REMARK  7 active torsions:
REMARK  status: ('A' for Active; 'I' for Inactive)
REMARK    1  A    between atoms: C_2  and  N_3
REMARK    2  A    between atoms: C_2  and  C_14
REMARK    3  A    between atoms: C_2  and  C_17
REMARK    4  A    between atoms: N_3  and  C_4
REMARK    5  A    between atoms: C_6  and  C_7
REMARK    6  A    between atoms: C_10  and  C_11
REMARK    7  A    between atoms: C_11  and  C_12
REMARK                            x       y       z     vdW  Elec       q    Type
REMARK                         _______ _______ _______ _____ _____    ______ ____
ROOT
ATOM      1  C   UNL     1       7.613  -4.087  25.195  0.00  0.00    +0.189 C 
ENDROOT
BRANCH   1   2
ATOM      2  C   UNL     1       6.459  -5.062  24.978  0.00  0.00    +0.009 A 
ATOM      3  C   UNL     1       5.714  -5.498  26.107  0.00  0.00    +0.024 A 
ATOM      4 BR   UNL     1       6.097  -4.934  27.892  0.00  0.00    -0.050 Br
ATOM      5  C   UNL     1       4.655  -6.410  25.994  0.00  0.00    +0.016 A 
ATOM      6  C   UNL     1       4.302  -6.914  24.752  0.00  0.00    +0.002 A 
ATOM      7  C   UNL     1       5.034  -6.542  23.633  0.00  0.00    +0.016 A 
ATOM      8  C   UNL     1       6.114  -5.649  23.739  0.00  0.00    +0.024 A 
ATOM      9 BR   UNL     1       7.068  -5.400  22.106  0.00  0.00    -0.050 Br
ENDBRANCH   1   2
BRANCH   1  10
ATOM     10  C   UNL     1       8.977  -4.836  25.153  0.00  0.00    +0.235 C 
ATOM     11  O   UNL     1       9.955  -4.468  24.507  0.00  0.00    -0.274 OA
ATOM     12  N   UNL     1       9.059  -5.963  25.926  0.00  0.00    -0.328 N 
ATOM     13  H   UNL     1       9.969  -6.392  26.004  0.00  0.00    +0.145 HD
ATOM     14  H   UNL     1       8.373  -6.168  26.641  0.00  0.00    +0.145 HD
ENDBRANCH   1  10
BRANCH   1  15
ATOM     15  N   UNL     1       7.670  -2.970  24.249  0.00  0.00    -0.329 N 
ATOM     16  H   UNL     1       7.993  -3.262  23.316  0.00  0.00    +0.147 HD
BRANCH  15  17
ATOM     17  C   UNL     1       7.951  -1.639  24.532  0.00  0.00    +0.039 A 
ATOM     18  C   UNL     1       6.995  -0.832  25.203  0.00  0.00    +0.038 A 
ATOM     19  C   UNL     1       7.295   0.490  25.567  0.00  0.00    +0.013 A 
ATOM     20  C   UNL     1       8.569   1.003  25.340  0.00  0.00    +0.004 A 
ATOM     21  C   UNL     1       9.546   0.217  24.726  0.00  0.00    -0.049 A 
ATOM     22  C   UNL     1      10.943   0.746  24.579  0.00  0.00    +0.044 C 
ATOM     23  C   UNL     1       9.221  -1.085  24.310  0.00  0.00    +0.027 A 
BRANCH  18  24
ATOM     24  C   UNL     1       5.634  -1.377  25.503  0.00  0.00    +0.162 C 
ATOM     25  O   UNL     1       4.955  -1.849  24.591  0.00  0.00    -0.292 OA
ATOM     26  C   UNL     1       5.124  -1.374  26.920  0.00  0.00    +0.091 C 
ENDBRANCH  18  24
ENDBRANCH  15  17
ENDBRANCH   1  15
TORSDOF 5
ENDMDL
MODEL 4
REMARK VINA RESULT:      -6.2      0.270      2.017
REMARK  Name = 
REMARK  7 active torsions:
REMARK  status: ('A' for Active; 'I' for Inactive)
REMARK    1  A    between atoms: C_2  and  N_3
REMARK    2  A    between atoms: C_2  and  C_14
REMARK    3  A    between atoms: C_2  and  C_17
REMARK    4  A    between atoms: N_3  and  C_4
REMARK    5  A    between atoms: C_6  and  C_7
REMARK    6  A    between atoms: C_10  and  C_11
REMARK    7  A    between atoms: C_11  and  C_12
REMARK                            x       y       z     vdW  Elec       q    Type
REMARK                         _______ _______ _______ _____ _____    ______ ____
ROOT
ATOM      1  C   UNL     1       7.779  -4.061  25.471  0.00  0.00    +0.189 C 
ENDROOT
BRANCH   1   2
ATOM      2  C   UNL     1       6.658  -5.048  25.156  0.00  0.00    +0.009 A 
ATOM      3  C   UNL     1       6.295  -5.255  23.798  0.00  0.00    +0.024 A 
ATOM      4 BR   UNL     1       7.134  -4.345  22.342  0.00  0.00    -0.050 Br
ATOM      5  C   UNL     1       5.261  -6.127  23.428  0.00  0.00    +0.016 A 
ATOM      6  C   UNL     1       4.557  -6.823  24.398  0.00  0.00    +0.002 A 
ATOM      7  C   UNL     1       4.857  -6.614  25.738  0.00  0.00    +0.016 A 
ATOM      8  C   UNL     1       5.874  -5.721  26.121  0.00  0.00    +0.024 A 
ATOM      9 BR   UNL     1       6.008  -5.475  28.008  0.00  0.00    -0.050 Br
ENDBRANCH   1   2
BRANCH   1  10
ATOM     10  C   UNL     1       9.149  -4.797  25.548  0.00  0.00    +0.235 C 
ATOM     11  O   UNL     1       9.782  -5.196  24.574  0.00  0.00    -0.274 OA
ATOM     12  N   UNL     1       9.662  -4.965  26.806  0.00  0.00    -0.328 N 
ATOM     13  H   UNL     1      10.601  -5.331  26.866  0.00  0.00    +0.145 HD
ATOM     14  H   UNL     1       9.298  -4.456  27.601  0.00  0.00    +0.145 HD
ENDBRANCH   1  10
BRANCH   1  15
ATOM     15  N   UNL     1       7.907  -2.944  24.532  0.00  0.00    -0.329 N 
ATOM     16  H   UNL     1       8.277  -3.241  23.618  0.00  0.00    +0.147 HD
BRANCH  15  17
ATOM     17  C   UNL     1       8.192  -1.618  24.833  0.00  0.00    +0.039 A 
ATOM     18  C   UNL     1       9.034  -0.855  23.981  0.00  0.00    +0.038 A 
ATOM     19  C   UNL     1       9.266   0.507  24.228  0.00  0.00    +0.013 A 
ATOM     20  C   UNL     1       8.607   1.147  25.274  0.00  0.00    +0.004 A 
ATOM     21  C   UNL     1       7.735   0.435  26.098  0.00  0.00    -0.049 A 
ATOM     22  C   UNL     1       6.954   1.159  27.157  0.00  0.00    +0.044 C 
ATOM     23  C   UNL     1       7.552  -0.942  25.883  0.00  0.00    +0.027 A 
BRANCH  18  24
ATOM     24  C   UNL     1       9.715  -1.510  22.821  0.00  0.00    +0.162 C 
ATOM     25  O   UNL     1      10.451  -2.477  23.016  0.00  0.00    -0.292 OA
ATOM     26  C   UNL     1       9.467  -1.003  21.425  0.00  0.00    +0.091 C 
ENDBRANCH  18  24
ENDBRANCH  15  17
ENDBRANCH   1  15
TORSDOF 5
ENDMDL
MODEL 5
REMARK VINA RESULT:      -6.2      2.512      3.384
REMARK  Name = 
REMARK  7 active torsions:
REMARK  status: ('A' for Active; 'I' for Inactive)
REMARK    1  A    between atoms: C_2  and  N_3
REMARK    2  A    between atoms: C_2  and  C_14
REMARK    3  A    between atoms: C_2  and  C_17
REMARK    4  A    between atoms: N_3  and  C_4
REMARK    5  A    between atoms: C_6  and  C_7
REMARK    6  A    between atoms: C_10  and  C_11
REMARK    7  A    between atoms: C_11  and  C_12
REMARK                            x       y       z     vdW  Elec       q    Type
REMARK                         _______ _______ _______ _____ _____    ______ ____
ROOT
ATOM      1  C   UNL     1       7.569  -3.599  26.117  0.00  0.00    +0.189 C 
ENDROOT
BRANCH   1   2
ATOM      2  C   UNL     1       6.086  -3.271  25.969  0.00  0.00    +0.009 A 
ATOM      3  C   UNL     1       5.615  -2.015  26.437  0.00  0.00    +0.024 A 
ATOM      4 BR   UNL     1       6.750  -0.716  27.261  0.00  0.00    -0.050 Br
ATOM      5  C   UNL     1       4.264  -1.648  26.358  0.00  0.00    +0.016 A 
ATOM      6  C   UNL     1       3.338  -2.520  25.807  0.00  0.00    +0.002 A 
ATOM      7  C   UNL     1       3.755  -3.772  25.377  0.00  0.00    +0.016 A 
ATOM      8  C   UNL     1       5.103  -4.160  25.476  0.00  0.00    +0.024 A 
ATOM      9 BR   UNL     1       5.420  -5.972  24.970  0.00  0.00    -0.050 Br
ENDBRANCH   1   2
BRANCH   1  10
ATOM     10  C   UNL     1       7.759  -4.913  26.930  0.00  0.00    +0.235 C 
ATOM     11  O   UNL     1       7.166  -5.181  27.972  0.00  0.00    -0.274 OA
ATOM     12  N   UNL     1       8.635  -5.819  26.396  0.00  0.00    -0.328 N 
ATOM     13  H   UNL     1       8.679  -6.723  26.843  0.00  0.00    +0.145 HD
ATOM     14  H   UNL     1       8.960  -5.745  25.440  0.00  0.00    +0.145 HD
ENDBRANCH   1  10
BRANCH   1  15
ATOM     15  N   UNL     1       8.307  -3.723  24.858  0.00  0.00    -0.329 N 
ATOM     16  H   UNL     1       8.944  -4.533  24.855  0.00  0.00    +0.147 HD
BRANCH  15  17
ATOM     17  C   UNL     1       8.726  -2.697  24.021  0.00  0.00    +0.039 A 
ATOM     18  C   UNL     1       8.117  -2.514  22.751  0.00  0.00    +0.038 A 
ATOM     19  C   UNL     1       8.472  -1.434  21.929  0.00  0.00    +0.013 A 
ATOM     20  C   UNL     1       9.377  -0.480  22.385  0.00  0.00    +0.004 A 
ATOM     21  C   UNL     1       9.955  -0.605  23.649  0.00  0.00    -0.049 A 
ATOM     22  C   UNL     1      10.850   0.482  24.170  0.00  0.00    +0.044 C 
ATOM     23  C   UNL     1       9.641  -1.721  24.444  0.00  0.00    +0.027 A 
BRANCH  18  24
ATOM     24  C   UNL     1       7.104  -3.500  22.259  0.00  0.00    +0.162 C 
ATOM     25  O   UNL     1       7.436  -4.671  22.074  0.00  0.00    -0.292 OA
ATOM     26  C   UNL     1       5.683  -3.059  22.026  0.00  0.00    +0.091 C 
ENDBRANCH  18  24
ENDBRANCH  15  17
ENDBRANCH   1  15
TORSDOF 5
ENDMDL
MODEL 6
REMARK VINA RESULT:      -6.1      3.018      6.643
REMARK  Name = 
REMARK  7 active torsions:
REMARK  status: ('A' for Active; 'I' for Inactive)
REMARK    1  A    between atoms: C_2  and  N_3
REMARK    2  A    between atoms: C_2  and  C_14
REMARK    3  A    between atoms: C_2  and  C_17
REMARK    4  A    between atoms: N_3  and  C_4
REMARK    5  A    between atoms: C_6  and  C_7
REMARK    6  A    between atoms: C_10  and  C_11
REMARK    7  A    between atoms: C_11  and  C_12
REMARK                            x       y       z     vdW  Elec       q    Type
REMARK                         _______ _______ _______ _____ _____    ______ ____
ROOT
ATOM      1  C   UNL     1       7.898  -1.338  24.505  0.00  0.00    +0.189 C 
ENDROOT
BRANCH   1   2
ATOM      2  C   UNL     1       7.888  -0.198  23.491  0.00  0.00    +0.009 A 
ATOM      3  C   UNL     1       8.915  -0.150  22.510  0.00  0.00    +0.024 A 
ATOM      4 BR   UNL     1      10.322  -1.439  22.407  0.00  0.00    -0.050 Br
ATOM      5  C   UNL     1       8.988   0.877  21.558  0.00  0.00    +0.016 A 
ATOM      6  C   UNL     1       8.039   1.887  21.550  0.00  0.00    +0.002 A 
ATOM      7  C   UNL     1       7.046   1.895  22.520  0.00  0.00    +0.016 A 
ATOM      8  C   UNL     1       6.979   0.884  23.495  0.00  0.00    +0.024 A 
ATOM      9 BR   UNL     1       5.632   1.179  24.814  0.00  0.00    -0.050 Br
ENDBRANCH   1   2
BRANCH   1  10
ATOM     10  C   UNL     1       8.293  -0.811  25.916  0.00  0.00    +0.235 C 
ATOM     11  O   UNL     1       7.668  -1.042  26.948  0.00  0.00    -0.274 OA
ATOM     12  N   UNL     1       9.440  -0.065  25.971  0.00  0.00    -0.328 N 
ATOM     13  H   UNL     1       9.775   0.182  26.890  0.00  0.00    +0.145 HD
ATOM     14  H   UNL     1      10.100  -0.048  25.204  0.00  0.00    +0.145 HD
ENDBRANCH   1  10
BRANCH   1  15
ATOM     15  N   UNL     1       6.638  -2.077  24.625  0.00  0.00    -0.329 N 
ATOM     16  H   UNL     1       6.086  -1.780  25.441  0.00  0.00    +0.147 HD
BRANCH  15  17
ATOM     17  C   UNL     1       6.392  -3.391  24.247  0.00  0.00    +0.039 A 
ATOM     18  C   UNL     1       5.801  -4.301  25.163  0.00  0.00    +0.038 A 
ATOM     19  C   UNL     1       5.473  -5.608  24.771  0.00  0.00    +0.013 A 
ATOM     20  C   UNL     1       5.654  -6.005  23.449  0.00  0.00    +0.004 A 
ATOM     21  C   UNL     1       6.188  -5.117  22.514  0.00  0.00    -0.049 A 
ATOM     22  C   UNL     1       6.283  -5.523  21.071  0.00  0.00    +0.044 C 
ATOM     23  C   UNL     1       6.570  -3.829  22.926  0.00  0.00    +0.027 A 
BRANCH  18  24
ATOM     24  C   UNL     1       5.550  -3.881  26.577  0.00  0.00    +0.162 C 
ATOM     25  O   UNL     1       4.828  -2.911  26.804  0.00  0.00    -0.292 OA
ATOM     26  C   UNL     1       6.155  -4.670  27.708  0.00  0.00    +0.091 C 
ENDBRANCH  18  24
ENDBRANCH  15  17
ENDBRANCH   1  15
TORSDOF 5
ENDMDL
MODEL 7
REMARK VINA RESULT:      -6.0      2.834      6.168
REMARK  Name = 
REMARK  7 active torsions:
REMARK  status: ('A' for Active; 'I' for Inactive)
REMARK    1  A    between atoms: C_2  and  N_3
REMARK    2  A    between atoms: C_2  and  C_14
REMARK    3  A    between atoms: C_2  and  C_17
REMARK    4  A    between atoms: N_3  and  C_4
REMARK    5  A    between atoms: C_6  and  C_7
REMARK    6  A    between atoms: C_10  and  C_11
REMARK    7  A    between atoms: C_11  and  C_12
REMARK                            x       y       z     vdW  Elec       q    Type
REMARK                         _______ _______ _______ _____ _____    ______ ____
ROOT
ATOM      1  C   UNL     1       8.382  -0.749  24.392  0.00  0.00    +0.189 C 
ENDROOT
BRANCH   1   2
ATOM      2  C   UNL     1       7.510   0.378  23.847  0.00  0.00    +0.009 A 
ATOM      3  C   UNL     1       7.870   0.981  22.611  0.00  0.00    +0.024 A 
ATOM      4 BR   UNL     1       9.406   0.457  21.602  0.00  0.00    -0.050 Br
ATOM      5  C   UNL     1       7.134   2.037  22.055  0.00  0.00    +0.016 A 
ATOM      6  C   UNL     1       6.015   2.525  22.710  0.00  0.00    +0.002 A 
ATOM      7  C   UNL     1       5.658   1.989  23.940  0.00  0.00    +0.016 A 
ATOM      8  C   UNL     1       6.404   0.948  24.519  0.00  0.00    +0.024 A 
ATOM      9 BR   UNL     1       5.826   0.473  26.274  0.00  0.00    -0.050 Br
ENDBRANCH   1   2
BRANCH   1  10
ATOM     10  C   UNL     1       9.434  -0.190  25.394  0.00  0.00    +0.235 C 
ATOM     11  O   UNL     1      10.424   0.464  25.074  0.00  0.00    -0.274 OA
ATOM     12  N   UNL     1       9.187  -0.441  26.717  0.00  0.00    -0.328 N 
ATOM     13  H   UNL     1       9.791   0.015  27.384  0.00  0.00    +0.145 HD
ATOM     14  H   UNL     1       8.282  -0.763  27.037  0.00  0.00    +0.145 HD
ENDBRANCH   1  10
BRANCH   1  15
ATOM     15  N   UNL     1       7.652  -1.837  25.049  0.00  0.00    -0.329 N 
ATOM     16  H   UNL     1       7.973  -1.998  26.014  0.00  0.00    +0.147 HD
BRANCH  15  17
ATOM     17  C   UNL     1       7.119  -2.974  24.454  0.00  0.00    +0.039 A 
ATOM     18  C   UNL     1       7.913  -4.141  24.299  0.00  0.00    +0.038 A 
ATOM     19  C   UNL     1       7.366  -5.322  23.774  0.00  0.00    +0.013 A 
ATOM     20  C   UNL     1       6.009  -5.384  23.468  0.00  0.00    +0.004 A 
ATOM     21  C   UNL     1       5.192  -4.269  23.657  0.00  0.00    -0.049 A 
ATOM     22  C   UNL     1       3.714  -4.380  23.420  0.00  0.00    +0.044 C 
ATOM     23  C   UNL     1       5.758  -3.071  24.126  0.00  0.00    +0.027 A 
BRANCH  18  24
ATOM     24  C   UNL     1       9.363  -4.113  24.666  0.00  0.00    +0.162 C 
ATOM     25  O   UNL     1      10.139  -3.404  24.025  0.00  0.00    -0.292 OA
ATOM     26  C   UNL     1       9.854  -4.926  25.836  0.00  0.00    +0.091 C 
ENDBRANCH  18  24
ENDBRANCH  15  17
ENDBRANCH   1  15
TORSDOF 5
ENDMDL
MODEL 8
REMARK VINA RESULT:      -5.9      2.503      6.554
REMARK  Name = 
REMARK  7 active torsions:
REMARK  status: ('A' for Active; 'I' for Inactive)
REMARK    1  A    between atoms: C_2  and  N_3
REMARK    2  A    between atoms: C_2  and  C_14
REMARK    3  A    between atoms: C_2  and  C_17
REMARK    4  A    between atoms: N_3  and  C_4
REMARK    5  A    between atoms: C_6  and  C_7
REMARK    6  A    between atoms: C_10  and  C_11
REMARK    7  A    between atoms: C_11  and  C_12
REMARK                            x       y       z     vdW  Elec       q    Type
REMARK                         _______ _______ _______ _____ _____    ______ ____
ROOT
ATOM      1  C   UNL     1       6.830  -5.216  25.167  0.00  0.00    +0.189 C 
ENDROOT
BRANCH   1   2
ATOM      2  C   UNL     1       6.957  -3.959  24.310  0.00  0.00    +0.009 A 
ATOM      3  C   UNL     1       7.092  -4.105  22.903  0.00  0.00    +0.024 A 
ATOM      4 BR   UNL     1       7.138  -5.804  22.029  0.00  0.00    -0.050 Br
ATOM      5  C   UNL     1       7.237  -3.002  22.050  0.00  0.00    +0.016 A 
ATOM      6  C   UNL     1       7.249  -1.717  22.571  0.00  0.00    +0.002 A 
ATOM      7  C   UNL     1       7.161  -1.539  23.945  0.00  0.00    +0.016 A 
ATOM      8  C   UNL     1       7.042  -2.640  24.811  0.00  0.00    +0.024 A 
ATOM      9 BR   UNL     1       7.092  -2.171  26.660  0.00  0.00    -0.050 Br
ENDBRANCH   1   2
BRANCH   1  10
ATOM     10  C   UNL     1       8.137  -5.459  25.977  0.00  0.00    +0.235 C 
ATOM     11  O   UNL     1       9.272  -5.279  25.541  0.00  0.00    -0.274 OA
ATOM     12  N   UNL     1       7.966  -5.873  27.270  0.00  0.00    -0.328 N 
ATOM     13  H   UNL     1       8.794  -5.919  27.844  0.00  0.00    +0.145 HD
ATOM     14  H   UNL     1       7.068  -5.808  27.735  0.00  0.00    +0.145 HD
ENDBRANCH   1  10
BRANCH   1  15
ATOM     15  N   UNL     1       5.701  -5.221  26.101  0.00  0.00    -0.329 N 
ATOM     16  H   UNL     1       6.005  -5.245  27.084  0.00  0.00    +0.147 HD
BRANCH  15  17
ATOM     17  C   UNL     1       4.446  -5.784  25.903  0.00  0.00    +0.039 A 
ATOM     18  C   UNL     1       3.802  -6.485  26.957  0.00  0.00    +0.038 A 
ATOM     19  C   UNL     1       2.502  -6.989  26.798  0.00  0.00    +0.013 A 
ATOM     20  C   UNL     1       1.796  -6.739  25.624  0.00  0.00    +0.004 A 
ATOM     21  C   UNL     1       2.385  -6.010  24.590  0.00  0.00    -0.049 A 
ATOM     22  C   UNL     1       1.578  -5.660  23.373  0.00  0.00    +0.044 C 
ATOM     23  C   UNL     1       3.708  -5.559  24.731  0.00  0.00    +0.027 A 
BRANCH  18  24
ATOM     24  C   UNL     1       4.522  -6.724  28.246  0.00  0.00    +0.162 C 
ATOM     25  O   UNL     1       5.535  -7.423  28.255  0.00  0.00    -0.292 OA
ATOM     26  C   UNL     1       4.021  -6.081  29.512  0.00  0.00    +0.091 C 
ENDBRANCH  18  24
ENDBRANCH  15  17
ENDBRANCH   1  15
TORSDOF 5
ENDMDL
MODEL 9
REMARK VINA RESULT:      -5.9      4.516      6.710
REMARK  Name = 
REMARK  7 active torsions:
REMARK  status: ('A' for Active; 'I' for Inactive)
REMARK    1  A    between atoms: C_2  and  N_3
REMARK    2  A    between atoms: C_2  and  C_14
REMARK    3  A    between atoms: C_2  and  C_17
REMARK    4  A    between atoms: N_3  and  C_4
REMARK    5  A    between atoms: C_6  and  C_7
REMARK    6  A    between atoms: C_10  and  C_11
REMARK    7  A    between atoms: C_11  and  C_12
REMARK                            x       y       z     vdW  Elec       q    Type
REMARK                         _______ _______ _______ _____ _____    ______ ____
ROOT
ATOM      1  C   UNL     1       8.720   1.288  23.316  0.00  0.00    +0.189 C 
ENDROOT
BRANCH   1   2
ATOM      2  C   UNL     1       7.967   0.044  23.779  0.00  0.00    +0.009 A 
ATOM      3  C   UNL     1       8.544  -1.231  23.535  0.00  0.00    +0.024 A 
ATOM      4 BR   UNL     1      10.215  -1.468  22.639  0.00  0.00    -0.050 Br
ATOM      5  C   UNL     1       7.904  -2.422  23.909  0.00  0.00    +0.016 A 
ATOM      6  C   UNL     1       6.670  -2.380  24.540  0.00  0.00    +0.002 A 
ATOM      7  C   UNL     1       6.058  -1.153  24.758  0.00  0.00    +0.016 A 
ATOM      8  C   UNL     1       6.679   0.045  24.362  0.00  0.00    +0.024 A 
ATOM      9 BR   UNL     1       5.594   1.593  24.618  0.00  0.00    -0.050 Br
ENDBRANCH   1   2
BRANCH   1  10
ATOM     10  C   UNL     1       8.126   1.821  21.979  0.00  0.00    +0.235 C 
ATOM     11  O   UNL     1       7.216   2.643  21.898  0.00  0.00    -0.274 OA
ATOM     12  N   UNL     1       8.706   1.336  20.837  0.00  0.00    -0.328 N 
ATOM     13  H   UNL     1       8.415   1.759  19.969  0.00  0.00    +0.145 HD
ATOM     14  H   UNL     1       9.593   0.850  20.857  0.00  0.00    +0.145 HD
ENDBRANCH   1  10
BRANCH   1  15
ATOM     15  N   UNL     1       8.751   2.392  24.279  0.00  0.00    -0.329 N 
ATOM     16  H   UNL     1       7.879   2.463  24.822  0.00  0.00    +0.147 HD
BRANCH  15  17
ATOM     17  C   UNL     1       9.414   3.606  24.150  0.00  0.00    +0.039 A 
ATOM     18  C   UNL     1       8.882   4.780  24.745  0.00  0.00    +0.038 A 
ATOM     19  C   UNL     1       9.580   5.996  24.691  0.00  0.00    +0.013 A 
ATOM     20  C   UNL     1      10.847   6.047  24.116  0.00  0.00    +0.004 A 
ATOM     21  C   UNL     1      11.418   4.898  23.567  0.00  0.00    -0.049 A 
ATOM     22  C   UNL     1      12.824   4.943  23.043  0.00  0.00    +0.044 C 
ATOM     23  C   UNL     1      10.689   3.697  23.570  0.00  0.00    +0.027 A 
BRANCH  18  24
ATOM     24  C   UNL     1       7.544   4.739  25.412  0.00  0.00    +0.162 C 
ATOM     25  O   UNL     1       7.428   4.194  26.510  0.00  0.00    -0.292 OA
ATOM     26  C   UNL     1       6.359   5.394  24.751  0.00  0.00    +0.091 C 
ENDBRANCH  18  24
ENDBRANCH  15  17
ENDBRANCH   1  15
TORSDOF 5
ENDMDL
