MODEL 1
REMARK VINA RESULT:      -4.7      0.000      0.000
REMARK  Name = 
REMARK  3 active torsions:
REMARK  status: ('A' for Active; 'I' for Inactive)
REMARK    1  A    between atoms: O_1  and  C_2
REMARK    2  A    between atoms: C_2  and  C_4
REMARK    3  A    between atoms: C_9  and  O_10
REMARK                            x       y       z     vdW  Elec       q    Type
REMARK                         _______ _______ _______ _____ _____    ______ ____
ROOT
ATOM      1  C   UNL     1       9.814  -0.769  23.218  0.00  0.00    +0.100 A 
ATOM      2  C   UNL     1       9.763  -0.012  22.039  0.00  0.00    +0.131 A 
ATOM      3  C   UNL     1      10.045   1.356  22.056  0.00  0.00    +0.046 A 
ATOM      4  C   UNL     1      10.373   1.982  23.259  0.00  0.00    +0.004 A 
ATOM      5  C   UNL     1      10.419   1.246  24.441  0.00  0.00    +0.001 A 
ATOM      6  C   UNL     1      10.143  -0.123  24.420  0.00  0.00    +0.018 A 
ENDROOT
BRANCH   1   7
ATOM      7  C   UNL     1       9.539  -2.236  23.286  0.00  0.00    +0.340 C 
ATOM      8  O   UNL     1      10.259  -3.011  23.897  0.00  0.00    -0.245 OA
BRANCH   7   9
ATOM      9  O   UNL     1       8.442  -2.649  22.618  0.00  0.00    -0.477 OA
ATOM     10  H   UNL     1       8.378  -2.245  21.725  0.00  0.00    +0.295 HD
ENDBRANCH   7   9
ENDBRANCH   1   7
BRANCH   2  11
ATOM     11  O   UNL     1       9.431  -0.611  20.850  0.00  0.00    -0.506 OA
ATOM     12  H   UNL     1      10.140  -1.238  20.612  0.00  0.00    +0.292 HD
ENDBRANCH   2  11
TORSDOF 3
ENDMDL
MODEL 2
REMARK VINA RESULT:      -4.6      2.263      4.050
REMARK  Name = 
REMARK  3 active torsions:
REMARK  status: ('A' for Active; 'I' for Inactive)
REMARK    1  A    between atoms: O_1  and  C_2
REMARK    2  A    between atoms: C_2  and  C_4
REMARK    3  A    between atoms: C_9  and  O_10
REMARK                            x       y       z     vdW  Elec       q    Type
REMARK                         _______ _______ _______ _____ _____    ______ ____
ROOT
ATOM      1  C   UNL     1      10.028   0.487  22.979  0.00  0.00    +0.100 A 
ATOM      2  C   UNL     1      10.070  -0.161  24.222  0.00  0.00    +0.131 A 
ATOM      3  C   UNL     1       9.763  -1.519  24.330  0.00  0.00    +0.046 A 
ATOM      4  C   UNL     1       9.402  -2.242  23.193  0.00  0.00    +0.004 A 
ATOM      5  C   UNL     1       9.348  -1.611  21.951  0.00  0.00    +0.001 A 
ATOM      6  C   UNL     1       9.660  -0.254  21.845  0.00  0.00    +0.018 A 
ENDROOT
BRANCH   1   7
ATOM      7  C   UNL     1      10.352   1.931  22.774  0.00  0.00    +0.340 C 
ATOM      8  O   UNL     1      10.751   2.648  23.677  0.00  0.00    -0.245 OA
BRANCH   7   9
ATOM      9  O   UNL     1      10.165   2.391  21.519  0.00  0.00    -0.477 OA
ATOM     10  H   UNL     1      10.992   2.749  21.128  0.00  0.00    +0.295 HD
ENDBRANCH   7   9
ENDBRANCH   1   7
BRANCH   2  11
ATOM     11  O   UNL     1      10.412   0.539  25.352  0.00  0.00    -0.506 OA
ATOM     12  H   UNL     1       9.644   0.548  25.954  0.00  0.00    +0.292 HD
ENDBRANCH   2  11
TORSDOF 3
ENDMDL
MODEL 3
REMARK VINA RESULT:      -4.6      4.977      6.671
REMARK  Name = 
REMARK  3 active torsions:
REMARK  status: ('A' for Active; 'I' for Inactive)
REMARK    1  A    between atoms: O_1  and  C_2
REMARK    2  A    between atoms: C_2  and  C_4
REMARK    3  A    between atoms: C_9  and  O_10
REMARK                            x       y       z     vdW  Elec       q    Type
REMARK                         _______ _______ _______ _____ _____    ______ ____
ROOT
ATOM      1  C   UNL     1       8.040  -5.066  25.086  0.00  0.00    +0.100 A 
ATOM      2  C   UNL     1       7.353  -5.513  26.223  0.00  0.00    +0.131 A 
ATOM      3  C   UNL     1       5.984  -5.788  26.168  0.00  0.00    +0.046 A 
ATOM      4  C   UNL     1       5.287  -5.609  24.974  0.00  0.00    +0.004 A 
ATOM      5  C   UNL     1       5.954  -5.155  23.837  0.00  0.00    +0.001 A 
ATOM      6  C   UNL     1       7.323  -4.887  23.893  0.00  0.00    +0.018 A 
ENDROOT
BRANCH   1   7
ATOM      7  C   UNL     1       9.502  -4.760  25.056  0.00  0.00    +0.340 C 
ATOM      8  O   UNL     1       9.963  -3.820  24.427  0.00  0.00    -0.245 OA
BRANCH   7   9
ATOM      9  O   UNL     1      10.282  -5.602  25.765  0.00  0.00    -0.477 OA
ATOM     10  H   UNL     1      10.489  -5.251  26.659  0.00  0.00    +0.295 HD
ENDBRANCH   7   9
ENDBRANCH   1   7
BRANCH   2  11
ATOM     11  O   UNL     1       8.021  -5.685  27.410  0.00  0.00    -0.506 OA
ATOM     12  H   UNL     1       7.594  -6.412  27.902  0.00  0.00    +0.292 HD
ENDBRANCH   2  11
TORSDOF 3
ENDMDL
MODEL 4
REMARK VINA RESULT:      -4.5      1.536      2.401
REMARK  Name = 
REMARK  3 active torsions:
REMARK  status: ('A' for Active; 'I' for Inactive)
REMARK    1  A    between atoms: O_1  and  C_2
REMARK    2  A    between atoms: C_2  and  C_4
REMARK    3  A    between atoms: C_9  and  O_10
REMARK                            x       y       z     vdW  Elec       q    Type
REMARK                         _______ _______ _______ _____ _____    ______ ____
ROOT
ATOM      1  C   UNL     1       9.763  -0.736  23.517  0.00  0.00    +0.100 A 
ATOM      2  C   UNL     1      10.218   0.455  24.100  0.00  0.00    +0.131 A 
ATOM      3  C   UNL     1      10.279   1.637  23.357  0.00  0.00    +0.046 A 
ATOM      4  C   UNL     1       9.892   1.635  22.017  0.00  0.00    +0.004 A 
ATOM      5  C   UNL     1       9.447   0.457  21.420  0.00  0.00    +0.001 A 
ATOM      6  C   UNL     1       9.381  -0.721  22.166  0.00  0.00    +0.018 A 
ENDROOT
BRANCH   1   7
ATOM      7  C   UNL     1       9.656  -2.038  24.241  0.00  0.00    +0.340 C 
ATOM      8  O   UNL     1      10.210  -3.053  23.851  0.00  0.00    -0.245 OA
BRANCH   7   9
ATOM      9  O   UNL     1       8.895  -2.017  25.355  0.00  0.00    -0.477 OA
ATOM     10  H   UNL     1       8.148  -1.382  25.283  0.00  0.00    +0.295 HD
ENDBRANCH   7   9
ENDBRANCH   1   7
BRANCH   2  11
ATOM     11  O   UNL     1      10.612   0.472  25.415  0.00  0.00    -0.506 OA
ATOM     12  H   UNL     1      10.943  -0.416  25.649  0.00  0.00    +0.292 HD
ENDBRANCH   2  11
TORSDOF 3
ENDMDL
MODEL 5
REMARK VINA RESULT:      -4.4      5.580      6.260
REMARK  Name = 
REMARK  3 active torsions:
REMARK  status: ('A' for Active; 'I' for Inactive)
REMARK    1  A    between atoms: O_1  and  C_2
REMARK    2  A    between atoms: C_2  and  C_4
REMARK    3  A    between atoms: C_9  and  O_10
REMARK                            x       y       z     vdW  Elec       q    Type
REMARK                         _______ _______ _______ _____ _____    ______ ____
ROOT
ATOM      1  C   UNL     1       7.462  -5.112  25.512  0.00  0.00    +0.100 A 
ATOM      2  C   UNL     1       8.210  -5.294  24.340  0.00  0.00    +0.131 A 
ATOM      3  C   UNL     1       7.627  -5.108  23.084  0.00  0.00    +0.046 A 
ATOM      4  C   UNL     1       6.283  -4.746  22.990  0.00  0.00    +0.004 A 
ATOM      5  C   UNL     1       5.523  -4.571  24.145  0.00  0.00    +0.001 A 
ATOM      6  C   UNL     1       6.110  -4.751  25.399  0.00  0.00    +0.018 A 
ENDROOT
BRANCH   1   7
ATOM      7  C   UNL     1       8.010  -5.279  26.892  0.00  0.00    +0.340 C 
ATOM      8  O   UNL     1       7.376  -5.811  27.790  0.00  0.00    -0.245 OA
BRANCH   7   9
ATOM      9  O   UNL     1       9.255  -4.793  27.081  0.00  0.00    -0.477 OA
ATOM     10  H   UNL     1       9.245  -3.901  27.492  0.00  0.00    +0.295 HD
ENDBRANCH   7   9
ENDBRANCH   1   7
BRANCH   2  11
ATOM     11  O   UNL     1       9.531  -5.660  24.416  0.00  0.00    -0.506 OA
ATOM     12  H   UNL     1       9.580  -6.634  24.450  0.00  0.00    +0.292 HD
ENDBRANCH   2  11
TORSDOF 3
ENDMDL
MODEL 6
REMARK VINA RESULT:      -4.3      2.651      3.749
REMARK  Name = 
REMARK  3 active torsions:
REMARK  status: ('A' for Active; 'I' for Inactive)
REMARK    1  A    between atoms: O_1  and  C_2
REMARK    2  A    between atoms: C_2  and  C_4
REMARK    3  A    between atoms: C_9  and  O_10
REMARK                            x       y       z     vdW  Elec       q    Type
REMARK                         _______ _______ _______ _____ _____    ______ ____
ROOT
ATOM      1  C   UNL     1       9.803   1.331  23.304  0.00  0.00    +0.100 A 
ATOM      2  C   UNL     1       9.443   1.000  21.990  0.00  0.00    +0.131 A 
ATOM      3  C   UNL     1       9.532  -0.318  21.535  0.00  0.00    +0.046 A 
ATOM      4  C   UNL     1       9.992  -1.318  22.391  0.00  0.00    +0.004 A 
ATOM      5  C   UNL     1      10.363  -1.005  23.697  0.00  0.00    +0.001 A 
ATOM      6  C   UNL     1      10.267   0.313  24.151  0.00  0.00    +0.018 A 
ENDROOT
BRANCH   1   7
ATOM      7  C   UNL     1       9.727   2.709  23.873  0.00  0.00    +0.340 C 
ATOM      8  O   UNL     1       9.060   2.976  24.861  0.00  0.00    -0.245 OA
BRANCH   7   9
ATOM      9  O   UNL     1      10.442   3.646  23.214  0.00  0.00    -0.477 OA
ATOM     10  H   UNL     1      11.396   3.613  23.444  0.00  0.00    +0.295 HD
ENDBRANCH   7   9
ENDBRANCH   1   7
BRANCH   2  11
ATOM     11  O   UNL     1       8.998   1.974  21.131  0.00  0.00    -0.506 OA
ATOM     12  H   UNL     1       9.087   2.840  21.573  0.00  0.00    +0.292 HD
ENDBRANCH   2  11
TORSDOF 3
ENDMDL
MODEL 7
REMARK VINA RESULT:      -4.3      2.591      3.991
REMARK  Name = 
REMARK  3 active torsions:
REMARK  status: ('A' for Active; 'I' for Inactive)
REMARK    1  A    between atoms: O_1  and  C_2
REMARK    2  A    between atoms: C_2  and  C_4
REMARK    3  A    between atoms: C_9  and  O_10
REMARK                            x       y       z     vdW  Elec       q    Type
REMARK                         _______ _______ _______ _____ _____    ______ ____
ROOT
ATOM      1  C   UNL     1       8.759   0.205  22.269  0.00  0.00    +0.100 A 
ATOM      2  C   UNL     1       7.697  -0.497  22.857  0.00  0.00    +0.131 A 
ATOM      3  C   UNL     1       7.889  -1.780  23.374  0.00  0.00    +0.046 A 
ATOM      4  C   UNL     1       9.147  -2.378  23.300  0.00  0.00    +0.004 A 
ATOM      5  C   UNL     1      10.211  -1.698  22.711  0.00  0.00    +0.001 A 
ATOM      6  C   UNL     1      10.018  -0.412  22.199  0.00  0.00    +0.018 A 
ENDROOT
BRANCH   1   7
ATOM      7  C   UNL     1       8.644   1.582  21.702  0.00  0.00    +0.340 C 
ATOM      8  O   UNL     1       7.566   2.112  21.481  0.00  0.00    -0.245 OA
BRANCH   7   9
ATOM      9  O   UNL     1       9.815   2.200  21.443  0.00  0.00    -0.477 OA
ATOM     10  H   UNL     1      10.583   1.709  21.811  0.00  0.00    +0.295 HD
ENDBRANCH   7   9
ENDBRANCH   1   7
BRANCH   2  11
ATOM     11  O   UNL     1       6.451   0.073  22.928  0.00  0.00    -0.506 OA
ATOM     12  H   UNL     1       5.786  -0.612  22.723  0.00  0.00    +0.292 HD
ENDBRANCH   2  11
TORSDOF 3
ENDMDL
MODEL 8
REMARK VINA RESULT:      -4.2      1.755      3.481
REMARK  Name = 
REMARK  3 active torsions:
REMARK  status: ('A' for Active; 'I' for Inactive)
REMARK    1  A    between atoms: O_1  and  C_2
REMARK    2  A    between atoms: C_2  and  C_4
REMARK    3  A    between atoms: C_9  and  O_10
REMARK                            x       y       z     vdW  Elec       q    Type
REMARK                         _______ _______ _______ _____ _____    ______ ____
ROOT
ATOM      1  C   UNL     1       9.344   0.647  22.942  0.00  0.00    +0.100 A 
ATOM      2  C   UNL     1       9.595  -0.628  22.415  0.00  0.00    +0.131 A 
ATOM      3  C   UNL     1       9.707  -1.739  23.254  0.00  0.00    +0.046 A 
ATOM      4  C   UNL     1       9.577  -1.582  24.634  0.00  0.00    +0.004 A 
ATOM      5  C   UNL     1       9.337  -0.320  25.175  0.00  0.00    +0.001 A 
ATOM      6  C   UNL     1       9.220   0.788  24.333  0.00  0.00    +0.018 A 
ENDROOT
BRANCH   1   7
ATOM      7  C   UNL     1       9.199   1.883  22.116  0.00  0.00    +0.340 C 
ATOM      8  O   UNL     1       8.135   2.471  21.996  0.00  0.00    -0.245 OA
BRANCH   7   9
ATOM      9  O   UNL     1      10.326   2.303  21.503  0.00  0.00    -0.477 OA
ATOM     10  H   UNL     1      10.920   2.791  22.113  0.00  0.00    +0.295 HD
ENDBRANCH   7   9
ENDBRANCH   1   7
BRANCH   2  11
ATOM     11  O   UNL     1       9.736  -0.798  21.060  0.00  0.00    -0.506 OA
ATOM     12  H   UNL     1      10.177  -0.008  20.694  0.00  0.00    +0.292 HD
ENDBRANCH   2  11
TORSDOF 3
ENDMDL
MODEL 9
REMARK VINA RESULT:      -4.1      3.463      4.781
REMARK  Name = 
REMARK  3 active torsions:
REMARK  status: ('A' for Active; 'I' for Inactive)
REMARK    1  A    between atoms: O_1  and  C_2
REMARK    2  A    between atoms: C_2  and  C_4
REMARK    3  A    between atoms: C_9  and  O_10
REMARK                            x       y       z     vdW  Elec       q    Type
REMARK                         _______ _______ _______ _____ _____    ______ ____
ROOT
ATOM      1  C   UNL     1       8.624  -4.213  24.411  0.00  0.00    +0.100 A 
ATOM      2  C   UNL     1       8.619  -2.868  24.015  0.00  0.00    +0.131 A 
ATOM      3  C   UNL     1       7.904  -2.459  22.887  0.00  0.00    +0.046 A 
ATOM      4  C   UNL     1       7.192  -3.396  22.138  0.00  0.00    +0.004 A 
ATOM      5  C   UNL     1       7.194  -4.738  22.514  0.00  0.00    +0.001 A 
ATOM      6  C   UNL     1       7.905  -5.144  23.645  0.00  0.00    +0.018 A 
ENDROOT
BRANCH   1   7
ATOM      7  C   UNL     1       9.352  -4.732  25.608  0.00  0.00    +0.340 C 
ATOM      8  O   UNL     1       9.119  -4.337  26.740  0.00  0.00    -0.245 OA
BRANCH   7   9
ATOM      9  O   UNL     1      10.293  -5.665  25.352  0.00  0.00    -0.477 OA
ATOM     10  H   UNL     1      10.960  -5.349  24.704  0.00  0.00    +0.295 HD
ENDBRANCH   7   9
ENDBRANCH   1   7
BRANCH   2  11
ATOM     11  O   UNL     1       9.323  -1.935  24.734  0.00  0.00    -0.506 OA
ATOM     12  H   UNL     1       8.726  -1.542  25.398  0.00  0.00    +0.292 HD
ENDBRANCH   2  11
TORSDOF 3
ENDMDL
