MODEL 1
REMARK VINA RESULT:      -5.9      0.000      0.000
REMARK  Name = 
REMARK  10 active torsions:
REMARK  status: ('A' for Active; 'I' for Inactive)
REMARK    1  A    between atoms: C_1  and  C_2
REMARK    2  A    between atoms: C_5  and  C_6
REMARK    3  A    between atoms: C_6  and  O_7
REMARK    4  A    between atoms: O_7  and  P_8
REMARK    5  A    between atoms: P_8  and  O_9
REMARK    6  A    between atoms: P_8  and  O_10
REMARK    7  A    between atoms: C_12  and  C_13
REMARK    8  A    between atoms: C_13  and  N_14
REMARK    9  A    between atoms: N_14  and  C_15
REMARK   10  A    between atoms: C_22  and  O_23
REMARK                            x       y       z     vdW  Elec       q    Type
REMARK                         _______ _______ _______ _____ _____    ______ ____
ROOT
ATOM      1  C   UNL     1      11.299   1.076  24.436  0.00  0.00    +0.069 C 
ATOM      2  C   UNL     1      10.195   0.176  23.957  0.00  0.00    +0.080 A 
ATOM      3  C   UNL     1       9.301  -0.401  24.853  0.00  0.00    +0.142 A 
ATOM      4  C   UNL     1       8.245  -1.211  24.395  0.00  0.00    +0.016 A 
ATOM      5  C   UNL     1       8.146  -1.412  23.000  0.00  0.00    +0.005 A 
ATOM      6  C   UNL     1       9.105  -0.798  22.186  0.00  0.00    +0.117 A 
ATOM      7  N   UNL     1      10.113  -0.017  22.625  0.00  0.00    -0.256 NA
ENDROOT
BRANCH   3   8
ATOM      8  O   UNL     1       9.493  -0.131  26.187  0.00  0.00    -0.505 OA
ATOM      9  H   UNL     1       9.368   0.817  26.358  0.00  0.00    +0.292 HD
ENDBRANCH   3   8
BRANCH   4  10
ATOM     10  C   UNL     1       7.177  -1.725  25.341  0.00  0.00    +0.121 C 
BRANCH  10  11
ATOM     11  N   UNL     1       7.148  -3.195  25.449  0.00  0.00    -0.300 NA
ATOM     12  H   UNL     1       7.038  -3.584  24.510  0.00  0.00    +0.123 HD
BRANCH  11  13
ATOM     13  C   UNL     1       8.407  -3.749  26.025  0.00  0.00    +0.171 C 
ATOM     14  C   UNL     1       8.147  -5.058  26.734  0.00  0.00    +0.255 C 
ATOM     15  O   UNL     1       7.436  -5.207  27.715  0.00  0.00    -0.272 OA
ATOM     16  N   UNL     1       8.733  -6.058  26.011  0.00  0.00    -0.193 N 
ATOM     17  H   UNL     1       8.574  -7.048  26.132  0.00  0.00    +0.182 HD
ATOM     18  O   UNL     1       9.349  -5.580  24.833  0.00  0.00    -0.278 OA
ATOM     19  C   UNL     1       9.507  -4.175  25.049  0.00  0.00    +0.218 C 
ENDBRANCH  11  13
ENDBRANCH  10  11
ENDBRANCH   4  10
BRANCH   5  20
ATOM     20  C   UNL     1       7.098  -2.257  22.310  0.00  0.00    +0.209 C 
BRANCH  20  21
ATOM     21  O   UNL     1       7.403  -3.639  22.341  0.00  0.00    -0.282 OA
BRANCH  21  22
ATOM     22  P   UNL     1       6.066  -4.728  22.198  0.00  0.00    +0.473 P 
ATOM     23  O   UNL     1       4.869  -5.702  22.070  0.00  0.00    -0.228 OA
BRANCH  22  24
ATOM     24  O   UNL     1       5.161  -3.674  23.067  0.00  0.00    -0.303 OA
ATOM     25  H   UNL     1       5.391  -3.838  24.005  0.00  0.00    +0.222 HD
ENDBRANCH  22  24
BRANCH  22  26
ATOM     26  O   UNL     1       6.684  -5.480  23.511  0.00  0.00    -0.303 OA
ATOM     27  H   UNL     1       6.251  -5.113  24.301  0.00  0.00    +0.222 HD
ENDBRANCH  22  26
ENDBRANCH  21  22
ENDBRANCH  20  21
ENDBRANCH   5  20
TORSDOF 9
ENDMDL
MODEL 2
REMARK VINA RESULT:      -5.8      2.876      5.894
REMARK  Name = 
REMARK  10 active torsions:
REMARK  status: ('A' for Active; 'I' for Inactive)
REMARK    1  A    between atoms: C_1  and  C_2
REMARK    2  A    between atoms: C_5  and  C_6
REMARK    3  A    between atoms: C_6  and  O_7
REMARK    4  A    between atoms: O_7  and  P_8
REMARK    5  A    between atoms: P_8  and  O_9
REMARK    6  A    between atoms: P_8  and  O_10
REMARK    7  A    between atoms: C_12  and  C_13
REMARK    8  A    between atoms: C_13  and  N_14
REMARK    9  A    between atoms: N_14  and  C_15
REMARK   10  A    between atoms: C_22  and  O_23
REMARK                            x       y       z     vdW  Elec       q    Type
REMARK                         _______ _______ _______ _____ _____    ______ ____
ROOT
ATOM      1  C   UNL     1       6.167  -5.700  21.271  0.00  0.00    +0.069 C 
ATOM      2  C   UNL     1       6.209  -5.333  22.728  0.00  0.00    +0.080 A 
ATOM      3  C   UNL     1       6.889  -4.201  23.163  0.00  0.00    +0.142 A 
ATOM      4  C   UNL     1       6.890  -3.840  24.523  0.00  0.00    +0.016 A 
ATOM      5  C   UNL     1       6.184  -4.679  25.413  0.00  0.00    +0.005 A 
ATOM      6  C   UNL     1       5.544  -5.803  24.876  0.00  0.00    +0.117 A 
ATOM      7  N   UNL     1       5.538  -6.144  23.571  0.00  0.00    -0.256 NA
ENDROOT
BRANCH   3   8
ATOM      8  O   UNL     1       7.538  -3.457  22.205  0.00  0.00    -0.505 OA
ATOM      9  H   UNL     1       7.103  -3.567  21.344  0.00  0.00    +0.292 HD
ENDBRANCH   3   8
BRANCH   4  10
ATOM     10  C   UNL     1       7.500  -2.533  24.993  0.00  0.00    +0.121 C 
BRANCH  10  11
ATOM     11  N   UNL     1       8.942  -2.423  24.709  0.00  0.00    -0.300 NA
ATOM     12  H   UNL     1       9.196  -3.159  24.048  0.00  0.00    +0.123 HD
BRANCH  11  13
ATOM     13  C   UNL     1       9.303  -1.114  24.092  0.00  0.00    +0.171 C 
ATOM     14  C   UNL     1       9.891  -1.311  22.714  0.00  0.00    +0.255 C 
ATOM     15  O   UNL     1      10.926  -1.905  22.460  0.00  0.00    -0.272 OA
ATOM     16  N   UNL     1       9.000  -0.828  21.798  0.00  0.00    -0.193 N 
ATOM     17  H   UNL     1       9.030  -0.988  20.801  0.00  0.00    +0.182 HD
ATOM     18  O   UNL     1       7.817  -0.346  22.401  0.00  0.00    -0.278 OA
ATOM     19  C   UNL     1       8.164  -0.142  23.773  0.00  0.00    +0.218 C 
ENDBRANCH  11  13
ENDBRANCH  10  11
ENDBRANCH   4  10
BRANCH   5  20
ATOM     20  C   UNL     1       6.077  -4.478  26.908  0.00  0.00    +0.209 C 
BRANCH  20  21
ATOM     21  O   UNL     1       5.237  -5.434  27.529  0.00  0.00    -0.282 OA
BRANCH  21  22
ATOM     22  P   UNL     1       5.878  -6.234  28.923  0.00  0.00    +0.473 P 
ATOM     23  O   UNL     1       6.451  -6.951  30.171  0.00  0.00    -0.228 OA
BRANCH  22  24
ATOM     24  O   UNL     1       7.330  -6.307  28.170  0.00  0.00    -0.303 OA
ATOM     25  H   UNL     1       7.306  -7.122  27.625  0.00  0.00    +0.222 HD
ENDBRANCH  22  24
BRANCH  22  26
ATOM     26  O   UNL     1       5.313  -7.613  28.250  0.00  0.00    -0.303 OA
ATOM     27  H   UNL     1       5.239  -8.283  28.951  0.00  0.00    +0.222 HD
ENDBRANCH  22  26
ENDBRANCH  21  22
ENDBRANCH  20  21
ENDBRANCH   5  20
TORSDOF 9
ENDMDL
MODEL 3
REMARK VINA RESULT:      -5.7      2.498      3.953
REMARK  Name = 
REMARK  10 active torsions:
REMARK  status: ('A' for Active; 'I' for Inactive)
REMARK    1  A    between atoms: C_1  and  C_2
REMARK    2  A    between atoms: C_5  and  C_6
REMARK    3  A    between atoms: C_6  and  O_7
REMARK    4  A    between atoms: O_7  and  P_8
REMARK    5  A    between atoms: P_8  and  O_9
REMARK    6  A    between atoms: P_8  and  O_10
REMARK    7  A    between atoms: C_12  and  C_13
REMARK    8  A    between atoms: C_13  and  N_14
REMARK    9  A    between atoms: N_14  and  C_15
REMARK   10  A    between atoms: C_22  and  O_23
REMARK                            x       y       z     vdW  Elec       q    Type
REMARK                         _______ _______ _______ _____ _____    ______ ____
ROOT
ATOM      1  C   UNL     1       8.795   2.147  22.004  0.00  0.00    +0.069 C 
ATOM      2  C   UNL     1       8.860   0.792  22.650  0.00  0.00    +0.080 A 
ATOM      3  C   UNL     1       7.714   0.024  22.821  0.00  0.00    +0.142 A 
ATOM      4  C   UNL     1       7.786  -1.262  23.390  0.00  0.00    +0.016 A 
ATOM      5  C   UNL     1       9.063  -1.722  23.780  0.00  0.00    +0.005 A 
ATOM      6  C   UNL     1      10.152  -0.866  23.577  0.00  0.00    +0.117 A 
ATOM      7  N   UNL     1      10.082   0.363  23.026  0.00  0.00    -0.256 NA
ENDROOT
BRANCH   3   8
ATOM      8  O   UNL     1       6.526   0.574  22.399  0.00  0.00    -0.505 OA
ATOM      9  H   UNL     1       5.779   0.040  22.714  0.00  0.00    +0.292 HD
ENDBRANCH   3   8
BRANCH   4  10
ATOM     10  C   UNL     1       6.572  -2.169  23.448  0.00  0.00    +0.121 C 
BRANCH  10  11
ATOM     11  N   UNL     1       6.509  -3.138  22.340  0.00  0.00    -0.300 NA
ATOM     12  H   UNL     1       7.331  -3.743  22.396  0.00  0.00    +0.123 HD
BRANCH  11  13
ATOM     13  C   UNL     1       5.300  -4.008  22.412  0.00  0.00    +0.171 C 
ATOM     14  C   UNL     1       5.606  -5.401  21.914  0.00  0.00    +0.255 C 
ATOM     15  O   UNL     1       5.952  -5.692  20.780  0.00  0.00    -0.272 OA
ATOM     16  N   UNL     1       5.559  -6.255  22.979  0.00  0.00    -0.193 N 
ATOM     17  H   UNL     1       5.899  -7.206  22.992  0.00  0.00    +0.182 HD
ATOM     18  O   UNL     1       5.289  -5.585  24.193  0.00  0.00    -0.278 OA
ATOM     19  C   UNL     1       4.735  -4.326  23.799  0.00  0.00    +0.218 C 
ENDBRANCH  11  13
ENDBRANCH  10  11
ENDBRANCH   4  10
BRANCH   5  20
ATOM     20  C   UNL     1       9.353  -3.060  24.422  0.00  0.00    +0.209 C 
BRANCH  20  21
ATOM     21  O   UNL     1       8.905  -3.132  25.764  0.00  0.00    -0.282 OA
BRANCH  21  22
ATOM     22  P   UNL     1       8.195  -4.630  26.261  0.00  0.00    +0.473 P 
ATOM     23  O   UNL     1       7.560  -5.970  26.706  0.00  0.00    -0.228 OA
BRANCH  22  24
ATOM     24  O   UNL     1       9.703  -5.256  26.400  0.00  0.00    -0.303 OA
ATOM     25  H   UNL     1       9.764  -5.599  27.316  0.00  0.00    +0.222 HD
ENDBRANCH  22  24
BRANCH  22  26
ATOM     26  O   UNL     1       8.063  -4.965  24.666  0.00  0.00    -0.303 OA
ATOM     27  H   UNL     1       8.585  -4.308  24.175  0.00  0.00    +0.222 HD
ENDBRANCH  22  26
ENDBRANCH  21  22
ENDBRANCH  20  21
ENDBRANCH   5  20
TORSDOF 9
ENDMDL
MODEL 4
REMARK VINA RESULT:      -5.5      2.515      4.249
REMARK  Name = 
REMARK  10 active torsions:
REMARK  status: ('A' for Active; 'I' for Inactive)
REMARK    1  A    between atoms: C_1  and  C_2
REMARK    2  A    between atoms: C_5  and  C_6
REMARK    3  A    between atoms: C_6  and  O_7
REMARK    4  A    between atoms: O_7  and  P_8
REMARK    5  A    between atoms: P_8  and  O_9
REMARK    6  A    between atoms: P_8  and  O_10
REMARK    7  A    between atoms: C_12  and  C_13
REMARK    8  A    between atoms: C_13  and  N_14
REMARK    9  A    between atoms: N_14  and  C_15
REMARK   10  A    between atoms: C_22  and  O_23
REMARK                            x       y       z     vdW  Elec       q    Type
REMARK                         _______ _______ _______ _____ _____    ______ ____
ROOT
ATOM      1  C   UNL     1      10.802   0.306  24.092  0.00  0.00    +0.069 C 
ATOM      2  C   UNL     1       9.754  -0.604  24.669  0.00  0.00    +0.080 A 
ATOM      3  C   UNL     1       9.296  -1.709  23.961  0.00  0.00    +0.142 A 
ATOM      4  C   UNL     1       8.344  -2.580  24.523  0.00  0.00    +0.016 A 
ATOM      5  C   UNL     1       7.878  -2.274  25.820  0.00  0.00    +0.005 A 
ATOM      6  C   UNL     1       8.392  -1.129  26.442  0.00  0.00    +0.117 A 
ATOM      7  N   UNL     1       9.309  -0.299  25.905  0.00  0.00    -0.256 NA
ENDROOT
BRANCH   3   8
ATOM      8  O   UNL     1       9.825  -1.910  22.708  0.00  0.00    -0.505 OA
ATOM      9  H   UNL     1      10.462  -1.208  22.496  0.00  0.00    +0.292 HD
ENDBRANCH   3   8
BRANCH   4  10
ATOM     10  C   UNL     1       7.944  -3.867  23.828  0.00  0.00    +0.121 C 
BRANCH  10  11
ATOM     11  N   UNL     1       7.449  -3.664  22.455  0.00  0.00    -0.300 NA
ATOM     12  H   UNL     1       7.957  -4.297  21.834  0.00  0.00    +0.123 HD
BRANCH  11  13
ATOM     13  C   UNL     1       5.995  -3.968  22.322  0.00  0.00    +0.171 C 
ATOM     14  C   UNL     1       5.782  -5.280  21.603  0.00  0.00    +0.255 C 
ATOM     15  O   UNL     1       6.107  -5.522  20.452  0.00  0.00    -0.272 OA
ATOM     16  N   UNL     1       5.286  -6.182  22.501  0.00  0.00    -0.193 N 
ATOM     17  H   UNL     1       5.221  -7.181  22.364  0.00  0.00    +0.182 HD
ATOM     18  O   UNL     1       5.170  -5.639  23.800  0.00  0.00    -0.278 OA
ATOM     19  C   UNL     1       5.203  -4.222  23.608  0.00  0.00    +0.218 C 
ENDBRANCH  11  13
ENDBRANCH  10  11
ENDBRANCH   4  10
BRANCH   5  20
ATOM     20  C   UNL     1       6.848  -3.069  26.592  0.00  0.00    +0.209 C 
BRANCH  20  21
ATOM     21  O   UNL     1       7.399  -4.211  27.221  0.00  0.00    -0.282 OA
BRANCH  21  22
ATOM     22  P   UNL     1       6.339  -5.563  27.430  0.00  0.00    +0.473 P 
ATOM     23  O   UNL     1       5.391  -6.773  27.616  0.00  0.00    -0.228 OA
BRANCH  22  24
ATOM     24  O   UNL     1       7.514  -6.305  28.298  0.00  0.00    -0.303 OA
ATOM     25  H   UNL     1       7.143  -7.174  28.559  0.00  0.00    +0.222 HD
ENDBRANCH  22  24
BRANCH  22  26
ATOM     26  O   UNL     1       6.900  -6.081  25.984  0.00  0.00    -0.303 OA
ATOM     27  H   UNL     1       7.862  -6.206  26.061  0.00  0.00    +0.222 HD
ENDBRANCH  22  26
ENDBRANCH  21  22
ENDBRANCH  20  21
ENDBRANCH   5  20
TORSDOF 9
ENDMDL
MODEL 5
REMARK VINA RESULT:      -5.4      4.508      6.928
REMARK  Name = 
REMARK  10 active torsions:
REMARK  status: ('A' for Active; 'I' for Inactive)
REMARK    1  A    between atoms: C_1  and  C_2
REMARK    2  A    between atoms: C_5  and  C_6
REMARK    3  A    between atoms: C_6  and  O_7
REMARK    4  A    between atoms: O_7  and  P_8
REMARK    5  A    between atoms: P_8  and  O_9
REMARK    6  A    between atoms: P_8  and  O_10
REMARK    7  A    between atoms: C_12  and  C_13
REMARK    8  A    between atoms: C_13  and  N_14
REMARK    9  A    between atoms: N_14  and  C_15
REMARK   10  A    between atoms: C_22  and  O_23
REMARK                            x       y       z     vdW  Elec       q    Type
REMARK                         _______ _______ _______ _____ _____    ______ ____
ROOT
ATOM      1  C   UNL     1       6.798  -5.706  21.237  0.00  0.00    +0.069 C 
ATOM      2  C   UNL     1       6.631  -5.507  22.716  0.00  0.00    +0.080 A 
ATOM      3  C   UNL     1       5.402  -5.716  23.333  0.00  0.00    +0.142 A 
ATOM      4  C   UNL     1       5.261  -5.567  24.725  0.00  0.00    +0.016 A 
ATOM      5  C   UNL     1       6.411  -5.190  25.453  0.00  0.00    +0.005 A 
ATOM      6  C   UNL     1       7.597  -4.989  24.735  0.00  0.00    +0.117 A 
ATOM      7  N   UNL     1       7.732  -5.139  23.401  0.00  0.00    -0.256 NA
ENDROOT
BRANCH   3   8
ATOM      8  O   UNL     1       4.353  -6.086  22.524  0.00  0.00    -0.505 OA
ATOM      9  H   UNL     1       3.692  -5.376  22.488  0.00  0.00    +0.292 HD
ENDBRANCH   3   8
BRANCH   4  10
ATOM     10  C   UNL     1       3.970  -5.934  25.432  0.00  0.00    +0.121 C 
BRANCH  10  11
ATOM     11  N   UNL     1       2.764  -5.434  24.747  0.00  0.00    -0.300 NA
ATOM     12  H   UNL     1       3.023  -5.166  23.796  0.00  0.00    +0.123 HD
BRANCH  11  13
ATOM     13  C   UNL     1       1.694  -6.469  24.651  0.00  0.00    +0.171 C 
ATOM     14  C   UNL     1       1.391  -6.799  23.208  0.00  0.00    +0.255 C 
ATOM     15  O   UNL     1       0.946  -6.023  22.378  0.00  0.00    -0.272 OA
ATOM     16  N   UNL     1       1.824  -8.072  22.963  0.00  0.00    -0.193 N 
ATOM     17  H   UNL     1       1.928  -8.497  22.052  0.00  0.00    +0.182 HD
ATOM     18  O   UNL     1       2.445  -8.656  24.089  0.00  0.00    -0.278 OA
ATOM     19  C   UNL     1       2.005  -7.865  25.198  0.00  0.00    +0.218 C 
ENDBRANCH  11  13
ENDBRANCH  10  11
ENDBRANCH   4  10
BRANCH   5  20
ATOM     20  C   UNL     1       6.467  -4.961  26.947  0.00  0.00    +0.209 C 
BRANCH  20  21
ATOM     21  O   UNL     1       6.812  -6.131  27.666  0.00  0.00    -0.282 OA
BRANCH  21  22
ATOM     22  P   UNL     1       5.877  -6.469  29.083  0.00  0.00    +0.473 P 
ATOM     23  O   UNL     1       5.041  -6.773  30.350  0.00  0.00    -0.228 OA
BRANCH  22  24
ATOM     24  O   UNL     1       7.066  -7.480  29.582  0.00  0.00    -0.303 OA
ATOM     25  H   UNL     1       7.905  -7.072  29.279  0.00  0.00    +0.222 HD
ENDBRANCH  22  24
BRANCH  22  26
ATOM     26  O   UNL     1       5.121  -7.600  28.174  0.00  0.00    -0.303 OA
ATOM     27  H   UNL     1       5.435  -8.475  28.459  0.00  0.00    +0.222 HD
ENDBRANCH  22  26
ENDBRANCH  21  22
ENDBRANCH  20  21
ENDBRANCH   5  20
TORSDOF 9
ENDMDL
MODEL 6
REMARK VINA RESULT:      -5.3      2.949      5.743
REMARK  Name = 
REMARK  10 active torsions:
REMARK  status: ('A' for Active; 'I' for Inactive)
REMARK    1  A    between atoms: C_1  and  C_2
REMARK    2  A    between atoms: C_5  and  C_6
REMARK    3  A    between atoms: C_6  and  O_7
REMARK    4  A    between atoms: O_7  and  P_8
REMARK    5  A    between atoms: P_8  and  O_9
REMARK    6  A    between atoms: P_8  and  O_10
REMARK    7  A    between atoms: C_12  and  C_13
REMARK    8  A    between atoms: C_13  and  N_14
REMARK    9  A    between atoms: N_14  and  C_15
REMARK   10  A    between atoms: C_22  and  O_23
REMARK                            x       y       z     vdW  Elec       q    Type
REMARK                         _______ _______ _______ _____ _____    ______ ____
ROOT
ATOM      1  C   UNL     1       5.812  -5.960  21.340  0.00  0.00    +0.069 C 
ATOM      2  C   UNL     1       5.994  -5.625  22.794  0.00  0.00    +0.080 A 
ATOM      3  C   UNL     1       7.261  -5.567  23.363  0.00  0.00    +0.142 A 
ATOM      4  C   UNL     1       7.428  -5.213  24.715  0.00  0.00    +0.016 A 
ATOM      5  C   UNL     1       6.259  -4.934  25.456  0.00  0.00    +0.005 A 
ATOM      6  C   UNL     1       5.030  -5.035  24.793  0.00  0.00    +0.117 A 
ATOM      7  N   UNL     1       4.872  -5.368  23.496  0.00  0.00    -0.256 NA
ENDROOT
BRANCH   3   8
ATOM      8  O   UNL     1       8.327  -5.854  22.542  0.00  0.00    -0.505 OA
ATOM      9  H   UNL     1       8.661  -5.041  22.130  0.00  0.00    +0.292 HD
ENDBRANCH   3   8
BRANCH   4  10
ATOM     10  C   UNL     1       8.806  -5.001  25.311  0.00  0.00    +0.121 C 
BRANCH  10  11
ATOM     11  N   UNL     1       9.618  -4.015  24.577  0.00  0.00    -0.300 NA
ATOM     12  H   UNL     1       9.928  -4.442  23.702  0.00  0.00    +0.123 HD
BRANCH  11  13
ATOM     13  C   UNL     1       8.848  -2.785  24.233  0.00  0.00    +0.171 C 
ATOM     14  C   UNL     1       8.995  -1.737  25.311  0.00  0.00    +0.255 C 
ATOM     15  O   UNL     1       8.623  -1.848  26.468  0.00  0.00    -0.272 OA
ATOM     16  N   UNL     1       9.732  -0.704  24.803  0.00  0.00    -0.193 N 
ATOM     17  H   UNL     1      10.148   0.046  25.338  0.00  0.00    +0.182 HD
ATOM     18  O   UNL     1      10.155  -0.946  23.478  0.00  0.00    -0.278 OA
ATOM     19  C   UNL     1       9.295  -1.987  23.005  0.00  0.00    +0.218 C 
ENDBRANCH  11  13
ENDBRANCH  10  11
ENDBRANCH   4  10
BRANCH   5  20
ATOM     20  C   UNL     1       6.220  -4.554  26.920  0.00  0.00    +0.209 C 
BRANCH  20  21
ATOM     21  O   UNL     1       5.265  -5.300  27.653  0.00  0.00    -0.282 OA
BRANCH  21  22
ATOM     22  P   UNL     1       5.862  -6.195  29.009  0.00  0.00    +0.473 P 
ATOM     23  O   UNL     1       6.396  -6.996  30.221  0.00  0.00    -0.228 OA
BRANCH  22  24
ATOM     24  O   UNL     1       7.326  -6.258  28.277  0.00  0.00    -0.303 OA
ATOM     25  H   UNL     1       7.980  -6.032  28.971  0.00  0.00    +0.222 HD
ENDBRANCH  22  24
BRANCH  22  26
ATOM     26  O   UNL     1       5.280  -7.519  28.246  0.00  0.00    -0.303 OA
ATOM     27  H   UNL     1       5.938  -8.230  28.329  0.00  0.00    +0.222 HD
ENDBRANCH  22  26
ENDBRANCH  21  22
ENDBRANCH  20  21
ENDBRANCH   5  20
TORSDOF 9
ENDMDL
MODEL 7
REMARK VINA RESULT:      -5.1      2.840      4.416
REMARK  Name = 
REMARK  10 active torsions:
REMARK  status: ('A' for Active; 'I' for Inactive)
REMARK    1  A    between atoms: C_1  and  C_2
REMARK    2  A    between atoms: C_5  and  C_6
REMARK    3  A    between atoms: C_6  and  O_7
REMARK    4  A    between atoms: O_7  and  P_8
REMARK    5  A    between atoms: P_8  and  O_9
REMARK    6  A    between atoms: P_8  and  O_10
REMARK    7  A    between atoms: C_12  and  C_13
REMARK    8  A    between atoms: C_13  and  N_14
REMARK    9  A    between atoms: N_14  and  C_15
REMARK   10  A    between atoms: C_22  and  O_23
REMARK                            x       y       z     vdW  Elec       q    Type
REMARK                         _______ _______ _______ _____ _____    ______ ____
ROOT
ATOM      1  C   UNL     1       8.225   0.678  23.991  0.00  0.00    +0.069 C 
ATOM      2  C   UNL     1       7.927  -0.635  24.657  0.00  0.00    +0.080 A 
ATOM      3  C   UNL     1       6.670  -1.221  24.557  0.00  0.00    +0.142 A 
ATOM      4  C   UNL     1       6.408  -2.471  25.149  0.00  0.00    +0.016 A 
ATOM      5  C   UNL     1       7.469  -3.086  25.849  0.00  0.00    +0.005 A 
ATOM      6  C   UNL     1       8.692  -2.406  25.903  0.00  0.00    +0.117 A 
ATOM      7  N   UNL     1       8.944  -1.212  25.329  0.00  0.00    -0.256 NA
ENDROOT
BRANCH   3   8
ATOM      8  O   UNL     1       5.715  -0.531  23.846  0.00  0.00    -0.505 OA
ATOM      9  H   UNL     1       5.636  -0.896  22.950  0.00  0.00    +0.292 HD
ENDBRANCH   3   8
BRANCH   4  10
ATOM     10  C   UNL     1       5.092  -3.190  24.925  0.00  0.00    +0.121 C 
BRANCH  10  11
ATOM     11  N   UNL     1       4.913  -3.670  23.542  0.00  0.00    -0.300 NA
ATOM     12  H   UNL     1       4.958  -2.864  22.915  0.00  0.00    +0.123 HD
BRANCH  11  13
ATOM     13  C   UNL     1       5.979  -4.627  23.129  0.00  0.00    +0.171 C 
ATOM     14  C   UNL     1       5.416  -6.018  22.952  0.00  0.00    +0.255 C 
ATOM     15  O   UNL     1       4.914  -6.700  23.831  0.00  0.00    -0.272 OA
ATOM     16  N   UNL     1       5.447  -6.324  21.621  0.00  0.00    -0.193 N 
ATOM     17  H   UNL     1       4.971  -7.099  21.180  0.00  0.00    +0.182 HD
ATOM     18  O   UNL     1       5.941  -5.259  20.836  0.00  0.00    -0.278 OA
ATOM     19  C   UNL     1       6.632  -4.414  21.760  0.00  0.00    +0.218 C 
ENDBRANCH  11  13
ENDBRANCH  10  11
ENDBRANCH   4  10
BRANCH   5  20
ATOM     20  C   UNL     1       7.390  -4.415  26.566  0.00  0.00    +0.209 C 
BRANCH  20  21
ATOM     21  O   UNL     1       6.386  -4.439  27.564  0.00  0.00    -0.282 OA
BRANCH  21  22
ATOM     22  P   UNL     1       5.950  -5.996  28.182  0.00  0.00    +0.473 P 
ATOM     23  O   UNL     1       5.560  -7.389  28.735  0.00  0.00    -0.228 OA
BRANCH  22  24
ATOM     24  O   UNL     1       7.539  -6.395  28.199  0.00  0.00    -0.303 OA
ATOM     25  H   UNL     1       7.836  -6.262  29.123  0.00  0.00    +0.222 HD
ENDBRANCH  22  24
BRANCH  22  26
ATOM     26  O   UNL     1       5.725  -6.426  26.621  0.00  0.00    -0.303 OA
ATOM     27  H   UNL     1       6.464  -6.069  26.100  0.00  0.00    +0.222 HD
ENDBRANCH  22  26
ENDBRANCH  21  22
ENDBRANCH  20  21
ENDBRANCH   5  20
TORSDOF 9
ENDMDL
MODEL 8
REMARK VINA RESULT:      -5.1      1.806      2.325
REMARK  Name = 
REMARK  10 active torsions:
REMARK  status: ('A' for Active; 'I' for Inactive)
REMARK    1  A    between atoms: C_1  and  C_2
REMARK    2  A    between atoms: C_5  and  C_6
REMARK    3  A    between atoms: C_6  and  O_7
REMARK    4  A    between atoms: O_7  and  P_8
REMARK    5  A    between atoms: P_8  and  O_9
REMARK    6  A    between atoms: P_8  and  O_10
REMARK    7  A    between atoms: C_12  and  C_13
REMARK    8  A    between atoms: C_13  and  N_14
REMARK    9  A    between atoms: N_14  and  C_15
REMARK   10  A    between atoms: C_22  and  O_23
REMARK                            x       y       z     vdW  Elec       q    Type
REMARK                         _______ _______ _______ _____ _____    ______ ____
ROOT
ATOM      1  C   UNL     1       9.705   2.297  22.458  0.00  0.00    +0.069 C 
ATOM      2  C   UNL     1       9.384   0.848  22.692  0.00  0.00    +0.080 A 
ATOM      3  C   UNL     1       8.925   0.406  23.928  0.00  0.00    +0.142 A 
ATOM      4  C   UNL     1       8.586  -0.945  24.129  0.00  0.00    +0.016 A 
ATOM      5  C   UNL     1       8.744  -1.819  23.031  0.00  0.00    +0.005 A 
ATOM      6  C   UNL     1       9.227  -1.277  21.834  0.00  0.00    +0.117 A 
ATOM      7  N   UNL     1       9.545   0.019  21.640  0.00  0.00    -0.256 NA
ENDROOT
BRANCH   3   8
ATOM      8  O   UNL     1       8.806   1.349  24.922  0.00  0.00    -0.505 OA
ATOM      9  H   UNL     1       8.160   2.027  24.666  0.00  0.00    +0.292 HD
ENDBRANCH   3   8
BRANCH   4  10
ATOM     10  C   UNL     1       7.946  -1.414  25.421  0.00  0.00    +0.121 C 
BRANCH  10  11
ATOM     11  N   UNL     1       6.472  -1.417  25.379  0.00  0.00    -0.300 NA
ATOM     12  H   UNL     1       6.179  -1.636  24.425  0.00  0.00    +0.123 HD
BRANCH  11  13
ATOM     13  C   UNL     1       5.879  -2.445  26.284  0.00  0.00    +0.171 C 
ATOM     14  C   UNL     1       4.761  -3.190  25.592  0.00  0.00    +0.255 C 
ATOM     15  O   UNL     1       3.718  -2.699  25.193  0.00  0.00    -0.272 OA
ATOM     16  N   UNL     1       5.176  -4.474  25.376  0.00  0.00    -0.193 N 
ATOM     17  H   UNL     1       4.724  -5.149  24.774  0.00  0.00    +0.182 HD
ATOM     18  O   UNL     1       6.501  -4.692  25.812  0.00  0.00    -0.278 OA
ATOM     19  C   UNL     1       6.771  -3.613  26.712  0.00  0.00    +0.218 C 
ENDBRANCH  11  13
ENDBRANCH  10  11
ENDBRANCH   4  10
BRANCH   5  20
ATOM     20  C   UNL     1       8.454  -3.304  23.045  0.00  0.00    +0.209 C 
BRANCH  20  21
ATOM     21  O   UNL     1       7.068  -3.589  23.093  0.00  0.00    -0.282 OA
BRANCH  21  22
ATOM     22  P   UNL     1       6.447  -4.607  21.839  0.00  0.00    +0.473 P 
ATOM     23  O   UNL     1       5.890  -5.519  20.717  0.00  0.00    -0.228 OA
BRANCH  22  24
ATOM     24  O   UNL     1       4.933  -4.159  22.275  0.00  0.00    -0.303 OA
ATOM     25  H   UNL     1       4.639  -4.822  22.934  0.00  0.00    +0.222 HD
ENDBRANCH  22  24
BRANCH  22  26
ATOM     26  O   UNL     1       6.542  -5.819  22.932  0.00  0.00    -0.303 OA
ATOM     27  H   UNL     1       5.929  -5.619  23.660  0.00  0.00    +0.222 HD
ENDBRANCH  22  26
ENDBRANCH  21  22
ENDBRANCH  20  21
ENDBRANCH   5  20
TORSDOF 9
ENDMDL
MODEL 9
REMARK VINA RESULT:      -5.1      3.126      5.397
REMARK  Name = 
REMARK  10 active torsions:
REMARK  status: ('A' for Active; 'I' for Inactive)
REMARK    1  A    between atoms: C_1  and  C_2
REMARK    2  A    between atoms: C_5  and  C_6
REMARK    3  A    between atoms: C_6  and  O_7
REMARK    4  A    between atoms: O_7  and  P_8
REMARK    5  A    between atoms: P_8  and  O_9
REMARK    6  A    between atoms: P_8  and  O_10
REMARK    7  A    between atoms: C_12  and  C_13
REMARK    8  A    between atoms: C_13  and  N_14
REMARK    9  A    between atoms: N_14  and  C_15
REMARK   10  A    between atoms: C_22  and  O_23
REMARK                            x       y       z     vdW  Elec       q    Type
REMARK                         _______ _______ _______ _____ _____    ______ ____
ROOT
ATOM      1  C   UNL     1       5.899  -6.129  22.308  0.00  0.00    +0.069 C 
ATOM      2  C   UNL     1       6.597  -5.090  23.139  0.00  0.00    +0.080 A 
ATOM      3  C   UNL     1       6.443  -5.056  24.520  0.00  0.00    +0.142 A 
ATOM      4  C   UNL     1       7.132  -4.106  25.298  0.00  0.00    +0.016 A 
ATOM      5  C   UNL     1       7.967  -3.196  24.613  0.00  0.00    +0.005 A 
ATOM      6  C   UNL     1       8.042  -3.307  23.219  0.00  0.00    +0.117 A 
ATOM      7  N   UNL     1       7.387  -4.222  22.475  0.00  0.00    -0.256 NA
ENDROOT
BRANCH   3   8
ATOM      8  O   UNL     1       5.607  -5.994  25.078  0.00  0.00    -0.505 OA
ATOM      9  H   UNL     1       5.354  -6.655  24.413  0.00  0.00    +0.292 HD
ENDBRANCH   3   8
BRANCH   4  10
ATOM     10  C   UNL     1       7.092  -4.147  26.813  0.00  0.00    +0.121 C 
BRANCH  10  11
ATOM     11  N   UNL     1       5.743  -3.937  27.371  0.00  0.00    -0.300 NA
ATOM     12  H   UNL     1       5.064  -4.045  26.615  0.00  0.00    +0.123 HD
BRANCH  11  13
ATOM     13  C   UNL     1       5.404  -4.930  28.431  0.00  0.00    +0.171 C 
ATOM     14  C   UNL     1       4.087  -5.607  28.134  0.00  0.00    +0.255 C 
ATOM     15  O   UNL     1       3.000  -5.055  28.071  0.00  0.00    -0.272 OA
ATOM     16  N   UNL     1       4.340  -6.912  27.820  0.00  0.00    -0.193 N 
ATOM     17  H   UNL     1       3.687  -7.559  27.399  0.00  0.00    +0.182 HD
ATOM     18  O   UNL     1       5.722  -7.208  27.826  0.00  0.00    -0.278 OA
ATOM     19  C   UNL     1       6.318  -6.149  28.580  0.00  0.00    +0.218 C 
ENDBRANCH  11  13
ENDBRANCH  10  11
ENDBRANCH   4  10
BRANCH   5  20
ATOM     20  C   UNL     1       8.777  -2.093  25.258  0.00  0.00    +0.209 C 
BRANCH  20  21
ATOM     21  O   UNL     1       9.817  -1.619  24.423  0.00  0.00    -0.282 OA
BRANCH  21  22
ATOM     22  P   UNL     1      10.109   0.087  24.447  0.00  0.00    +0.473 P 
ATOM     23  O   UNL     1      10.369   1.613  24.469  0.00  0.00    -0.228 OA
BRANCH  22  24
ATOM     24  O   UNL     1       9.675   0.102  26.027  0.00  0.00    -0.303 OA
ATOM     25  H   UNL     1      10.489   0.329  26.523  0.00  0.00    +0.222 HD
ENDBRANCH  22  24
BRANCH  22  26
ATOM     26  O   UNL     1       8.578   0.240  23.892  0.00  0.00    -0.303 OA
ATOM     27  H   UNL     1       8.068  -0.530  24.197  0.00  0.00    +0.222 HD
ENDBRANCH  22  26
ENDBRANCH  21  22
ENDBRANCH  20  21
ENDBRANCH   5  20
TORSDOF 9
ENDMDL
