MODEL 1
REMARK VINA RESULT:      -6.4      0.000      0.000
REMARK  Name = 
REMARK  11 active torsions:
REMARK  status: ('A' for Active; 'I' for Inactive)
REMARK    1  A    between atoms: C_1  and  C_2
REMARK    2  A    between atoms: C_5  and  C_6
REMARK    3  A    between atoms: C_6  and  O_7
REMARK    4  A    between atoms: O_7  and  P_8
REMARK    5  A    between atoms: P_8  and  O_9
REMARK    6  A    between atoms: P_8  and  O_10
REMARK    7  A    between atoms: C_12  and  C_13
REMARK    8  A    between atoms: C_13  and  N_14
REMARK    9  A    between atoms: N_14  and  C_15
REMARK   10  A    between atoms: C_19  and  O_20
REMARK   11  A    between atoms: C_21  and  O_22
REMARK                            x       y       z     vdW  Elec       q    Type
REMARK                         _______ _______ _______ _____ _____    ______ ____
ROOT
ATOM      1  C   UNL     1       6.015  -6.018  21.506  0.00  0.00    +0.069 C 
ATOM      2  C   UNL     1       6.441  -4.687  22.051  0.00  0.00    +0.080 A 
ATOM      3  C   UNL     1       7.550  -4.577  22.892  0.00  0.00    +0.143 A 
ATOM      4  C   UNL     1       7.902  -3.330  23.438  0.00  0.00    +0.020 A 
ATOM      5  C   UNL     1       7.139  -2.206  23.059  0.00  0.00    +0.005 A 
ATOM      6  C   UNL     1       6.078  -2.418  22.174  0.00  0.00    +0.117 A 
ATOM      7  N   UNL     1       5.707  -3.616  21.678  0.00  0.00    -0.256 NA
ENDROOT
BRANCH   3   8
ATOM      8  O   UNL     1       8.267  -5.711  23.161  0.00  0.00    -0.505 OA
ATOM      9  H   UNL     1       7.727  -6.490  22.948  0.00  0.00    +0.292 HD
ENDBRANCH   3   8
BRANCH   4  10
ATOM     10  C   UNL     1       9.056  -3.215  24.405  0.00  0.00    +0.141 C 
BRANCH  10  11
ATOM     11  N   UNL     1       8.555  -2.928  25.741  0.00  0.00    -0.333 N 
ATOM     12  H   UNL     1       9.185  -2.365  26.314  0.00  0.00    +0.147 HD
BRANCH  11  13
ATOM     13  C   UNL     1       7.784  -3.834  26.399  0.00  0.00    +0.130 A 
ATOM     14  C   UNL     1       8.016  -5.207  26.565  0.00  0.00    +0.273 A 
ATOM     15  N   UNL     1       7.069  -5.831  27.257  0.00  0.00    -0.038 NA
ATOM     16  O   UNL     1       6.160  -4.824  27.579  0.00  0.00    -0.358 OA
ATOM     17  C   UNL     1       6.596  -3.640  27.062  0.00  0.00    +0.257 A 
BRANCH  14  18
ATOM     18  O   UNL     1       9.017  -5.956  26.106  0.00  0.00    -0.489 OA
ATOM     19  H   UNL     1       9.541  -5.367  25.535  0.00  0.00    +0.294 HD
ENDBRANCH  14  18
ENDBRANCH  11  13
ENDBRANCH  10  11
ENDBRANCH   4  10
BRANCH   5  20
ATOM     20  C   UNL     1       7.416  -0.795  23.512  0.00  0.00    +0.209 C 
BRANCH  20  21
ATOM     21  O   UNL     1       7.873  -0.066  22.388  0.00  0.00    -0.282 OA
BRANCH  21  22
ATOM     22  P   UNL     1       9.446   0.091  22.197  0.00  0.00    +0.473 P 
ATOM     23  O   UNL     1      10.257  -0.007  23.440  0.00  0.00    -0.228 OA
BRANCH  22  24
ATOM     24  O   UNL     1       9.564   1.462  21.393  0.00  0.00    -0.303 OA
ATOM     25  H   UNL     1       8.798   1.588  20.804  0.00  0.00    +0.222 HD
ENDBRANCH  22  24
BRANCH  22  26
ATOM     26  O   UNL     1       9.828  -1.008  21.106  0.00  0.00    -0.303 OA
ATOM     27  H   UNL     1      10.215  -1.789  21.545  0.00  0.00    +0.222 HD
ENDBRANCH  22  26
ENDBRANCH  21  22
ENDBRANCH  20  21
ENDBRANCH   5  20
TORSDOF 10
ENDMDL
MODEL 2
REMARK VINA RESULT:      -6.4      2.806      4.648
REMARK  Name = 
REMARK  11 active torsions:
REMARK  status: ('A' for Active; 'I' for Inactive)
REMARK    1  A    between atoms: C_1  and  C_2
REMARK    2  A    between atoms: C_5  and  C_6
REMARK    3  A    between atoms: C_6  and  O_7
REMARK    4  A    between atoms: O_7  and  P_8
REMARK    5  A    between atoms: P_8  and  O_9
REMARK    6  A    between atoms: P_8  and  O_10
REMARK    7  A    between atoms: C_12  and  C_13
REMARK    8  A    between atoms: C_13  and  N_14
REMARK    9  A    between atoms: N_14  and  C_15
REMARK   10  A    between atoms: C_19  and  O_20
REMARK   11  A    between atoms: C_21  and  O_22
REMARK                            x       y       z     vdW  Elec       q    Type
REMARK                         _______ _______ _______ _____ _____    ______ ____
ROOT
ATOM      1  C   UNL     1      10.982   1.521  24.014  0.00  0.00    +0.069 C 
ATOM      2  C   UNL     1       9.903   0.529  23.695  0.00  0.00    +0.080 A 
ATOM      3  C   UNL     1       9.068   0.029  24.697  0.00  0.00    +0.143 A 
ATOM      4  C   UNL     1       8.097  -0.940  24.390  0.00  0.00    +0.020 A 
ATOM      5  C   UNL     1       7.963  -1.335  23.042  0.00  0.00    +0.005 A 
ATOM      6  C   UNL     1       8.817  -0.738  22.109  0.00  0.00    +0.117 A 
ATOM      7  N   UNL     1       9.779   0.162  22.401  0.00  0.00    -0.256 NA
ENDROOT
BRANCH   3   8
ATOM      8  O   UNL     1       9.230   0.511  25.967  0.00  0.00    -0.505 OA
ATOM      9  H   UNL     1      10.145   0.354  26.255  0.00  0.00    +0.292 HD
ENDBRANCH   3   8
BRANCH   4  10
ATOM     10  C   UNL     1       7.240  -1.538  25.479  0.00  0.00    +0.141 C 
BRANCH  10  11
ATOM     11  N   UNL     1       8.069  -2.306  26.395  0.00  0.00    -0.333 N 
ATOM     12  H   UNL     1       8.883  -1.802  26.750  0.00  0.00    +0.147 HD
BRANCH  11  13
ATOM     13  C   UNL     1       8.210  -3.649  26.238  0.00  0.00    +0.130 A 
ATOM     14  C   UNL     1       9.075  -4.331  25.370  0.00  0.00    +0.273 A 
ATOM     15  N   UNL     1       8.974  -5.654  25.442  0.00  0.00    -0.038 NA
ATOM     16  O   UNL     1       7.999  -5.871  26.415  0.00  0.00    -0.358 OA
ATOM     17  C   UNL     1       7.552  -4.670  26.881  0.00  0.00    +0.257 A 
BRANCH  14  18
ATOM     18  O   UNL     1       9.937  -3.843  24.480  0.00  0.00    -0.489 OA
ATOM     19  H   UNL     1      10.805  -3.863  24.921  0.00  0.00    +0.294 HD
ENDBRANCH  14  18
ENDBRANCH  11  13
ENDBRANCH  10  11
ENDBRANCH   4  10
BRANCH   5  20
ATOM     20  C   UNL     1       6.940  -2.321  22.540  0.00  0.00    +0.209 C 
BRANCH  20  21
ATOM     21  O   UNL     1       7.557  -3.594  22.498  0.00  0.00    -0.282 OA
BRANCH  21  22
ATOM     22  P   UNL     1       6.626  -4.860  22.240  0.00  0.00    +0.473 P 
ATOM     23  O   UNL     1       7.125  -5.829  21.228  0.00  0.00    -0.228 OA
BRANCH  22  24
ATOM     24  O   UNL     1       5.211  -4.196  21.933  0.00  0.00    -0.303 OA
ATOM     25  H   UNL     1       5.025  -4.197  20.977  0.00  0.00    +0.222 HD
ENDBRANCH  22  24
BRANCH  22  26
ATOM     26  O   UNL     1       6.422  -5.507  23.685  0.00  0.00    -0.303 OA
ATOM     27  H   UNL     1       7.237  -5.970  23.957  0.00  0.00    +0.222 HD
ENDBRANCH  22  26
ENDBRANCH  21  22
ENDBRANCH  20  21
ENDBRANCH   5  20
TORSDOF 10
ENDMDL
MODEL 3
REMARK VINA RESULT:      -6.3      2.142      3.936
REMARK  Name = 
REMARK  11 active torsions:
REMARK  status: ('A' for Active; 'I' for Inactive)
REMARK    1  A    between atoms: C_1  and  C_2
REMARK    2  A    between atoms: C_5  and  C_6
REMARK    3  A    between atoms: C_6  and  O_7
REMARK    4  A    between atoms: O_7  and  P_8
REMARK    5  A    between atoms: P_8  and  O_9
REMARK    6  A    between atoms: P_8  and  O_10
REMARK    7  A    between atoms: C_12  and  C_13
REMARK    8  A    between atoms: C_13  and  N_14
REMARK    9  A    between atoms: N_14  and  C_15
REMARK   10  A    between atoms: C_19  and  O_20
REMARK   11  A    between atoms: C_21  and  O_22
REMARK                            x       y       z     vdW  Elec       q    Type
REMARK                         _______ _______ _______ _____ _____    ______ ____
ROOT
ATOM      1  C   UNL     1       6.738  -6.296  21.850  0.00  0.00    +0.069 C 
ATOM      2  C   UNL     1       6.657  -4.914  22.426  0.00  0.00    +0.080 A 
ATOM      3  C   UNL     1       7.580  -4.476  23.377  0.00  0.00    +0.143 A 
ATOM      4  C   UNL     1       7.457  -3.197  23.947  0.00  0.00    +0.020 A 
ATOM      5  C   UNL     1       6.417  -2.366  23.481  0.00  0.00    +0.005 A 
ATOM      6  C   UNL     1       5.575  -2.883  22.491  0.00  0.00    +0.117 A 
ATOM      7  N   UNL     1       5.660  -4.123  21.969  0.00  0.00    -0.256 NA
ENDROOT
BRANCH   3   8
ATOM      8  O   UNL     1       8.592  -5.328  23.729  0.00  0.00    -0.505 OA
ATOM      9  H   UNL     1       9.395  -4.814  23.912  0.00  0.00    +0.292 HD
ENDBRANCH   3   8
BRANCH   4  10
ATOM     10  C   UNL     1       8.408  -2.745  25.028  0.00  0.00    +0.141 C 
BRANCH  10  11
ATOM     11  N   UNL     1       9.711  -2.454  24.450  0.00  0.00    -0.333 N 
ATOM     12  H   UNL     1      10.492  -2.920  24.916  0.00  0.00    +0.147 HD
BRANCH  11  13
ATOM     13  C   UNL     1       9.970  -1.233  23.909  0.00  0.00    +0.130 A 
ATOM     14  C   UNL     1      10.053  -0.890  22.553  0.00  0.00    +0.273 A 
ATOM     15  N   UNL     1      10.329   0.392  22.340  0.00  0.00    -0.038 NA
ATOM     16  O   UNL     1      10.428   0.938  23.619  0.00  0.00    -0.358 OA
ATOM     17  C   UNL     1      10.213  -0.039  24.545  0.00  0.00    +0.257 A 
BRANCH  14  18
ATOM     18  O   UNL     1       9.927  -1.663  21.476  0.00  0.00    -0.489 OA
ATOM     19  H   UNL     1      10.742  -2.195  21.443  0.00  0.00    +0.294 HD
ENDBRANCH  14  18
ENDBRANCH  11  13
ENDBRANCH  10  11
ENDBRANCH   4  10
BRANCH   5  20
ATOM     20  C   UNL     1       6.180  -0.953  23.949  0.00  0.00    +0.209 C 
BRANCH  20  21
ATOM     21  O   UNL     1       6.764  -0.083  22.997  0.00  0.00    -0.282 OA
BRANCH  21  22
ATOM     22  P   UNL     1       6.826   1.468  23.352  0.00  0.00    +0.473 P 
ATOM     23  O   UNL     1       7.164   1.791  24.764  0.00  0.00    -0.228 OA
BRANCH  22  24
ATOM     24  O   UNL     1       5.418   2.002  22.831  0.00  0.00    -0.303 OA
ATOM     25  H   UNL     1       4.945   2.481  23.535  0.00  0.00    +0.222 HD
ENDBRANCH  22  24
BRANCH  22  26
ATOM     26  O   UNL     1       7.861   2.077  22.302  0.00  0.00    -0.303 OA
ATOM     27  H   UNL     1       8.572   1.432  22.127  0.00  0.00    +0.222 HD
ENDBRANCH  22  26
ENDBRANCH  21  22
ENDBRANCH  20  21
ENDBRANCH   5  20
TORSDOF 10
ENDMDL
MODEL 4
REMARK VINA RESULT:      -6.3      2.608      5.401
REMARK  Name = 
REMARK  11 active torsions:
REMARK  status: ('A' for Active; 'I' for Inactive)
REMARK    1  A    between atoms: C_1  and  C_2
REMARK    2  A    between atoms: C_5  and  C_6
REMARK    3  A    between atoms: C_6  and  O_7
REMARK    4  A    between atoms: O_7  and  P_8
REMARK    5  A    between atoms: P_8  and  O_9
REMARK    6  A    between atoms: P_8  and  O_10
REMARK    7  A    between atoms: C_12  and  C_13
REMARK    8  A    between atoms: C_13  and  N_14
REMARK    9  A    between atoms: N_14  and  C_15
REMARK   10  A    between atoms: C_19  and  O_20
REMARK   11  A    between atoms: C_21  and  O_22
REMARK                            x       y       z     vdW  Elec       q    Type
REMARK                         _______ _______ _______ _____ _____    ______ ____
ROOT
ATOM      1  C   UNL     1      10.185   1.757  22.237  0.00  0.00    +0.069 C 
ATOM      2  C   UNL     1       9.631   0.616  23.038  0.00  0.00    +0.080 A 
ATOM      3  C   UNL     1       9.344  -0.611  22.438  0.00  0.00    +0.143 A 
ATOM      4  C   UNL     1       8.774  -1.652  23.192  0.00  0.00    +0.020 A 
ATOM      5  C   UNL     1       8.566  -1.429  24.569  0.00  0.00    +0.005 A 
ATOM      6  C   UNL     1       8.932  -0.181  25.082  0.00  0.00    +0.117 A 
ATOM      7  N   UNL     1       9.440   0.838  24.358  0.00  0.00    -0.256 NA
ENDROOT
BRANCH   3   8
ATOM      8  O   UNL     1       9.632  -0.758  21.108  0.00  0.00    -0.505 OA
ATOM      9  H   UNL     1      10.081  -1.609  20.969  0.00  0.00    +0.292 HD
ENDBRANCH   3   8
BRANCH   4  10
ATOM     10  C   UNL     1       8.394  -2.956  22.534  0.00  0.00    +0.141 C 
BRANCH  10  11
ATOM     11  N   UNL     1       7.094  -2.826  21.894  0.00  0.00    -0.333 N 
ATOM     12  H   UNL     1       6.808  -1.863  21.714  0.00  0.00    +0.147 HD
BRANCH  11  13
ATOM     13  C   UNL     1       6.099  -3.713  22.166  0.00  0.00    +0.130 A 
ATOM     14  C   UNL     1       6.011  -5.058  21.779  0.00  0.00    +0.273 A 
ATOM     15  N   UNL     1       4.904  -5.664  22.196  0.00  0.00    -0.038 NA
ATOM     16  O   UNL     1       4.220  -4.678  22.907  0.00  0.00    -0.358 OA
ATOM     17  C   UNL     1       4.941  -3.521  22.881  0.00  0.00    +0.257 A 
BRANCH  14  18
ATOM     18  O   UNL     1       6.850  -5.781  21.041  0.00  0.00    -0.489 OA
ATOM     19  H   UNL     1       7.588  -5.184  20.827  0.00  0.00    +0.294 HD
ENDBRANCH  14  18
ENDBRANCH  11  13
ENDBRANCH  10  11
ENDBRANCH   4  10
BRANCH   5  20
ATOM     20  C   UNL     1       8.015  -2.456  25.525  0.00  0.00    +0.209 C 
BRANCH  20  21
ATOM     21  O   UNL     1       9.043  -3.393  25.787  0.00  0.00    -0.282 OA
BRANCH  21  22
ATOM     22  P   UNL     1       8.664  -4.939  25.742  0.00  0.00    +0.473 P 
ATOM     23  O   UNL     1       7.475  -5.285  24.919  0.00  0.00    -0.228 OA
BRANCH  22  24
ATOM     24  O   UNL     1       8.579  -5.322  27.287  0.00  0.00    -0.303 OA
ATOM     25  H   UNL     1       9.242  -4.830  27.805  0.00  0.00    +0.222 HD
ENDBRANCH  22  24
BRANCH  22  26
ATOM     26  O   UNL     1      10.000  -5.664  25.258  0.00  0.00    -0.303 OA
ATOM     27  H   UNL     1      10.073  -5.606  24.286  0.00  0.00    +0.222 HD
ENDBRANCH  22  26
ENDBRANCH  21  22
ENDBRANCH  20  21
ENDBRANCH   5  20
TORSDOF 10
ENDMDL
MODEL 5
REMARK VINA RESULT:      -6.2      2.957      5.948
REMARK  Name = 
REMARK  11 active torsions:
REMARK  status: ('A' for Active; 'I' for Inactive)
REMARK    1  A    between atoms: C_1  and  C_2
REMARK    2  A    between atoms: C_5  and  C_6
REMARK    3  A    between atoms: C_6  and  O_7
REMARK    4  A    between atoms: O_7  and  P_8
REMARK    5  A    between atoms: P_8  and  O_9
REMARK    6  A    between atoms: P_8  and  O_10
REMARK    7  A    between atoms: C_12  and  C_13
REMARK    8  A    between atoms: C_13  and  N_14
REMARK    9  A    between atoms: N_14  and  C_15
REMARK   10  A    between atoms: C_19  and  O_20
REMARK   11  A    between atoms: C_21  and  O_22
REMARK                            x       y       z     vdW  Elec       q    Type
REMARK                         _______ _______ _______ _____ _____    ______ ____
ROOT
ATOM      1  C   UNL     1       6.441  -5.706  21.166  0.00  0.00    +0.069 C 
ATOM      2  C   UNL     1       6.295  -5.262  22.591  0.00  0.00    +0.080 A 
ATOM      3  C   UNL     1       6.844  -4.054  23.027  0.00  0.00    +0.143 A 
ATOM      4  C   UNL     1       6.745  -3.679  24.379  0.00  0.00    +0.020 A 
ATOM      5  C   UNL     1       6.028  -4.528  25.247  0.00  0.00    +0.005 A 
ATOM      6  C   UNL     1       5.476  -5.690  24.699  0.00  0.00    +0.117 A 
ATOM      7  N   UNL     1       5.601  -6.080  23.414  0.00  0.00    -0.256 NA
ENDROOT
BRANCH   3   8
ATOM      8  O   UNL     1       7.474  -3.265  22.103  0.00  0.00    -0.505 OA
ATOM      9  H   UNL     1       7.804  -2.462  22.539  0.00  0.00    +0.292 HD
ENDBRANCH   3   8
BRANCH   4  10
ATOM     10  C   UNL     1       7.398  -2.411  24.871  0.00  0.00    +0.141 C 
BRANCH  10  11
ATOM     11  N   UNL     1       8.828  -2.455  24.604  0.00  0.00    -0.333 N 
ATOM     12  H   UNL     1       9.341  -3.136  25.166  0.00  0.00    +0.147 HD
BRANCH  11  13
ATOM     13  C   UNL     1       9.501  -1.325  24.260  0.00  0.00    +0.130 A 
ATOM     14  C   UNL     1      10.046  -0.990  23.012  0.00  0.00    +0.273 A 
ATOM     15  N   UNL     1      10.655   0.191  22.992  0.00  0.00    -0.038 NA
ATOM     16  O   UNL     1      10.504   0.677  24.290  0.00  0.00    -0.358 OA
ATOM     17  C   UNL     1       9.815  -0.234  25.035  0.00  0.00    +0.257 A 
BRANCH  14  18
ATOM     18  O   UNL     1      10.064  -1.694  21.881  0.00  0.00    -0.489 OA
ATOM     19  H   UNL     1       9.651  -2.547  22.101  0.00  0.00    +0.294 HD
ENDBRANCH  14  18
ENDBRANCH  11  13
ENDBRANCH  10  11
ENDBRANCH   4  10
BRANCH   5  20
ATOM     20  C   UNL     1       5.785  -4.246  26.707  0.00  0.00    +0.209 C 
BRANCH  20  21
ATOM     21  O   UNL     1       5.247  -5.420  27.287  0.00  0.00    -0.282 OA
BRANCH  21  22
ATOM     22  P   UNL     1       6.040  -6.076  28.502  0.00  0.00    +0.473 P 
ATOM     23  O   UNL     1       5.893  -5.386  29.812  0.00  0.00    -0.228 OA
BRANCH  22  24
ATOM     24  O   UNL     1       7.524  -6.186  27.933  0.00  0.00    -0.303 OA
ATOM     25  H   UNL     1       8.049  -6.825  28.448  0.00  0.00    +0.222 HD
ENDBRANCH  22  24
BRANCH  22  26
ATOM     26  O   UNL     1       5.545  -7.593  28.530  0.00  0.00    -0.303 OA
ATOM     27  H   UNL     1       4.887  -7.738  27.824  0.00  0.00    +0.222 HD
ENDBRANCH  22  26
ENDBRANCH  21  22
ENDBRANCH  20  21
ENDBRANCH   5  20
TORSDOF 10
ENDMDL
MODEL 6
REMARK VINA RESULT:      -6.1      2.822      5.614
REMARK  Name = 
REMARK  11 active torsions:
REMARK  status: ('A' for Active; 'I' for Inactive)
REMARK    1  A    between atoms: C_1  and  C_2
REMARK    2  A    between atoms: C_5  and  C_6
REMARK    3  A    between atoms: C_6  and  O_7
REMARK    4  A    between atoms: O_7  and  P_8
REMARK    5  A    between atoms: P_8  and  O_9
REMARK    6  A    between atoms: P_8  and  O_10
REMARK    7  A    between atoms: C_12  and  C_13
REMARK    8  A    between atoms: C_13  and  N_14
REMARK    9  A    between atoms: N_14  and  C_15
REMARK   10  A    between atoms: C_19  and  O_20
REMARK   11  A    between atoms: C_21  and  O_22
REMARK                            x       y       z     vdW  Elec       q    Type
REMARK                         _______ _______ _______ _____ _____    ______ ____
ROOT
ATOM      1  C   UNL     1       8.839   2.575  22.960  0.00  0.00    +0.069 C 
ATOM      2  C   UNL     1       8.679   1.285  23.707  0.00  0.00    +0.080 A 
ATOM      3  C   UNL     1       7.518   0.520  23.581  0.00  0.00    +0.143 A 
ATOM      4  C   UNL     1       7.362  -0.659  24.331  0.00  0.00    +0.020 A 
ATOM      5  C   UNL     1       8.434  -1.063  25.154  0.00  0.00    +0.005 A 
ATOM      6  C   UNL     1       9.572  -0.251  25.172  0.00  0.00    +0.117 A 
ATOM      7  N   UNL     1       9.714   0.904  24.489  0.00  0.00    -0.256 NA
ENDROOT
BRANCH   3   8
ATOM      8  O   UNL     1       6.553   0.958  22.716  0.00  0.00    -0.505 OA
ATOM      9  H   UNL     1       5.676   0.785  23.098  0.00  0.00    +0.292 HD
ENDBRANCH   3   8
BRANCH   4  10
ATOM     10  C   UNL     1       6.080  -1.452  24.254  0.00  0.00    +0.141 C 
BRANCH  10  11
ATOM     11  N   UNL     1       5.885  -1.947  22.900  0.00  0.00    -0.333 N 
ATOM     12  H   UNL     1       5.077  -1.551  22.419  0.00  0.00    +0.147 HD
BRANCH  11  13
ATOM     13  C   UNL     1       6.213  -3.228  22.579  0.00  0.00    +0.130 A 
ATOM     14  C   UNL     1       5.376  -4.352  22.550  0.00  0.00    +0.273 A 
ATOM     15  N   UNL     1       5.997  -5.474  22.202  0.00  0.00    -0.038 NA
ATOM     16  O   UNL     1       7.316  -5.081  21.977  0.00  0.00    -0.358 OA
ATOM     17  C   UNL     1       7.432  -3.741  22.206  0.00  0.00    +0.257 A 
BRANCH  14  18
ATOM     18  O   UNL     1       4.082  -4.450  22.849  0.00  0.00    -0.489 OA
ATOM     19  H   UNL     1       3.633  -4.624  22.004  0.00  0.00    +0.294 HD
ENDBRANCH  14  18
ENDBRANCH  11  13
ENDBRANCH  10  11
ENDBRANCH   4  10
BRANCH   5  20
ATOM     20  C   UNL     1       8.448  -2.324  25.979  0.00  0.00    +0.209 C 
BRANCH  20  21
ATOM     21  O   UNL     1       9.047  -3.340  25.197  0.00  0.00    -0.282 OA
BRANCH  21  22
ATOM     22  P   UNL     1       8.800  -4.853  25.631  0.00  0.00    +0.473 P 
ATOM     23  O   UNL     1       7.405  -5.345  25.475  0.00  0.00    -0.228 OA
BRANCH  22  24
ATOM     24  O   UNL     1       9.393  -4.892  27.109  0.00  0.00    -0.303 OA
ATOM     25  H   UNL     1       8.887  -4.309  27.704  0.00  0.00    +0.222 HD
ENDBRANCH  22  24
BRANCH  22  26
ATOM     26  O   UNL     1       9.863  -5.690  24.787  0.00  0.00    -0.303 OA
ATOM     27  H   UNL     1      10.638  -5.896  25.343  0.00  0.00    +0.222 HD
ENDBRANCH  22  26
ENDBRANCH  21  22
ENDBRANCH  20  21
ENDBRANCH   5  20
TORSDOF 10
ENDMDL
MODEL 7
REMARK VINA RESULT:      -5.8      2.910      5.882
REMARK  Name = 
REMARK  11 active torsions:
REMARK  status: ('A' for Active; 'I' for Inactive)
REMARK    1  A    between atoms: C_1  and  C_2
REMARK    2  A    between atoms: C_5  and  C_6
REMARK    3  A    between atoms: C_6  and  O_7
REMARK    4  A    between atoms: O_7  and  P_8
REMARK    5  A    between atoms: P_8  and  O_9
REMARK    6  A    between atoms: P_8  and  O_10
REMARK    7  A    between atoms: C_12  and  C_13
REMARK    8  A    between atoms: C_13  and  N_14
REMARK    9  A    between atoms: N_14  and  C_15
REMARK   10  A    between atoms: C_19  and  O_20
REMARK   11  A    between atoms: C_21  and  O_22
REMARK                            x       y       z     vdW  Elec       q    Type
REMARK                         _______ _______ _______ _____ _____    ______ ____
ROOT
ATOM      1  C   UNL     1      10.939   0.460  24.046  0.00  0.00    +0.069 C 
ATOM      2  C   UNL     1       9.937  -0.465  24.671  0.00  0.00    +0.080 A 
ATOM      3  C   UNL     1       9.677  -1.721  24.120  0.00  0.00    +0.143 A 
ATOM      4  C   UNL     1       8.695  -2.552  24.688  0.00  0.00    +0.020 A 
ATOM      5  C   UNL     1       8.040  -2.098  25.851  0.00  0.00    +0.005 A 
ATOM      6  C   UNL     1       8.408  -0.845  26.350  0.00  0.00    +0.117 A 
ATOM      7  N   UNL     1       9.318  -0.023  25.789  0.00  0.00    -0.256 NA
ENDROOT
BRANCH   3   8
ATOM      8  O   UNL     1      10.401  -2.104  23.024  0.00  0.00    -0.505 OA
ATOM      9  H   UNL     1      11.150  -2.652  23.310  0.00  0.00    +0.292 HD
ENDBRANCH   3   8
BRANCH   4  10
ATOM     10  C   UNL     1       8.357  -3.881  24.056  0.00  0.00    +0.141 C 
BRANCH  10  11
ATOM     11  N   UNL     1       7.678  -3.666  22.787  0.00  0.00    -0.333 N 
ATOM     12  H   UNL     1       7.620  -2.688  22.501  0.00  0.00    +0.147 HD
BRANCH  11  13
ATOM     13  C   UNL     1       6.646  -4.469  22.412  0.00  0.00    +0.130 A 
ATOM     14  C   UNL     1       5.376  -4.573  22.997  0.00  0.00    +0.273 A 
ATOM     15  N   UNL     1       4.583  -5.458  22.403  0.00  0.00    -0.038 NA
ATOM     16  O   UNL     1       5.357  -5.967  21.361  0.00  0.00    -0.358 OA
ATOM     17  C   UNL     1       6.583  -5.370  21.377  0.00  0.00    +0.257 A 
BRANCH  14  18
ATOM     18  O   UNL     1       4.882  -3.944  24.062  0.00  0.00    -0.489 OA
ATOM     19  H   UNL     1       5.653  -3.721  24.613  0.00  0.00    +0.294 HD
ENDBRANCH  14  18
ENDBRANCH  11  13
ENDBRANCH  10  11
ENDBRANCH   4  10
BRANCH   5  20
ATOM     20  C   UNL     1       7.004  -2.888  26.610  0.00  0.00    +0.209 C 
BRANCH  20  21
ATOM     21  O   UNL     1       7.623  -4.075  27.071  0.00  0.00    -0.282 OA
BRANCH  21  22
ATOM     22  P   UNL     1       6.705  -5.361  27.265  0.00  0.00    +0.473 P 
ATOM     23  O   UNL     1       6.263  -6.030  26.011  0.00  0.00    -0.228 OA
BRANCH  22  24
ATOM     24  O   UNL     1       5.545  -4.823  28.215  0.00  0.00    -0.303 OA
ATOM     25  H   UNL     1       5.384  -5.439  28.953  0.00  0.00    +0.222 HD
ENDBRANCH  22  24
BRANCH  22  26
ATOM     26  O   UNL     1       7.551  -6.315  28.223  0.00  0.00    -0.303 OA
ATOM     27  H   UNL     1       7.067  -7.150  28.370  0.00  0.00    +0.222 HD
ENDBRANCH  22  26
ENDBRANCH  21  22
ENDBRANCH  20  21
ENDBRANCH   5  20
TORSDOF 10
ENDMDL
MODEL 8
REMARK VINA RESULT:      -5.8      2.753      4.992
REMARK  Name = 
REMARK  11 active torsions:
REMARK  status: ('A' for Active; 'I' for Inactive)
REMARK    1  A    between atoms: C_1  and  C_2
REMARK    2  A    between atoms: C_5  and  C_6
REMARK    3  A    between atoms: C_6  and  O_7
REMARK    4  A    between atoms: O_7  and  P_8
REMARK    5  A    between atoms: P_8  and  O_9
REMARK    6  A    between atoms: P_8  and  O_10
REMARK    7  A    between atoms: C_12  and  C_13
REMARK    8  A    between atoms: C_13  and  N_14
REMARK    9  A    between atoms: N_14  and  C_15
REMARK   10  A    between atoms: C_19  and  O_20
REMARK   11  A    between atoms: C_21  and  O_22
REMARK                            x       y       z     vdW  Elec       q    Type
REMARK                         _______ _______ _______ _____ _____    ______ ____
ROOT
ATOM      1  C   UNL     1       8.319   2.904  23.005  0.00  0.00    +0.069 C 
ATOM      2  C   UNL     1       8.637   1.444  23.137  0.00  0.00    +0.080 A 
ATOM      3  C   UNL     1       7.677   0.471  22.851  0.00  0.00    +0.143 A 
ATOM      4  C   UNL     1       7.974  -0.891  23.033  0.00  0.00    +0.020 A 
ATOM      5  C   UNL     1       9.278  -1.231  23.449  0.00  0.00    +0.005 A 
ATOM      6  C   UNL     1      10.179  -0.182  23.663  0.00  0.00    +0.117 A 
ATOM      7  N   UNL     1       9.891   1.129  23.532  0.00  0.00    -0.256 NA
ENDROOT
BRANCH   3   8
ATOM      8  O   UNL     1       6.455   0.889  22.397  0.00  0.00    -0.505 OA
ATOM      9  H   UNL     1       5.839   0.137  22.396  0.00  0.00    +0.292 HD
ENDBRANCH   3   8
BRANCH   4  10
ATOM     10  C   UNL     1       6.919  -1.944  22.795  0.00  0.00    +0.141 C 
BRANCH  10  11
ATOM     11  N   UNL     1       5.830  -1.775  23.745  0.00  0.00    -0.333 N 
ATOM     12  H   UNL     1       5.403  -0.848  23.737  0.00  0.00    +0.147 HD
BRANCH  11  13
ATOM     13  C   UNL     1       5.852  -2.421  24.942  0.00  0.00    +0.130 A 
ATOM     14  C   UNL     1       5.500  -3.751  25.213  0.00  0.00    +0.273 A 
ATOM     15  N   UNL     1       5.622  -4.088  26.492  0.00  0.00    -0.038 NA
ATOM     16  O   UNL     1       6.088  -2.928  27.110  0.00  0.00    -0.358 OA
ATOM     17  C   UNL     1       6.221  -1.943  26.177  0.00  0.00    +0.257 A 
BRANCH  14  18
ATOM     18  O   UNL     1       5.039  -4.688  24.386  0.00  0.00    -0.489 OA
ATOM     19  H   UNL     1       5.803  -4.956  23.846  0.00  0.00    +0.294 HD
ENDBRANCH  14  18
ENDBRANCH  11  13
ENDBRANCH  10  11
ENDBRANCH   4  10
BRANCH   5  20
ATOM     20  C   UNL     1       9.772  -2.642  23.640  0.00  0.00    +0.209 C 
BRANCH  20  21
ATOM     21  O   UNL     1       9.391  -3.058  24.938  0.00  0.00    -0.282 OA
BRANCH  21  22
ATOM     22  P   UNL     1       9.115  -4.610  25.167  0.00  0.00    +0.473 P 
ATOM     23  O   UNL     1       8.223  -5.257  24.169  0.00  0.00    -0.228 OA
BRANCH  22  24
ATOM     24  O   UNL     1       8.621  -4.656  26.681  0.00  0.00    -0.303 OA
ATOM     25  H   UNL     1       7.670  -4.451  26.743  0.00  0.00    +0.222 HD
ENDBRANCH  22  24
BRANCH  22  26
ATOM     26  O   UNL     1      10.567  -5.267  25.235  0.00  0.00    -0.303 OA
ATOM     27  H   UNL     1      10.488  -6.238  25.305  0.00  0.00    +0.222 HD
ENDBRANCH  22  26
ENDBRANCH  21  22
ENDBRANCH  20  21
ENDBRANCH   5  20
TORSDOF 10
ENDMDL
MODEL 9
REMARK VINA RESULT:      -5.7      3.209      5.044
REMARK  Name = 
REMARK  11 active torsions:
REMARK  status: ('A' for Active; 'I' for Inactive)
REMARK    1  A    between atoms: C_1  and  C_2
REMARK    2  A    between atoms: C_5  and  C_6
REMARK    3  A    between atoms: C_6  and  O_7
REMARK    4  A    between atoms: O_7  and  P_8
REMARK    5  A    between atoms: P_8  and  O_9
REMARK    6  A    between atoms: P_8  and  O_10
REMARK    7  A    between atoms: C_12  and  C_13
REMARK    8  A    between atoms: C_13  and  N_14
REMARK    9  A    between atoms: N_14  and  C_15
REMARK   10  A    between atoms: C_19  and  O_20
REMARK   11  A    between atoms: C_21  and  O_22
REMARK                            x       y       z     vdW  Elec       q    Type
REMARK                         _______ _______ _______ _____ _____    ______ ____
ROOT
ATOM      1  C   UNL     1      10.145   1.900  22.342  0.00  0.00    +0.069 C 
ATOM      2  C   UNL     1       9.899   0.575  22.999  0.00  0.00    +0.080 A 
ATOM      3  C   UNL     1       9.533   0.496  24.344  0.00  0.00    +0.143 A 
ATOM      4  C   UNL     1       9.359  -0.757  24.958  0.00  0.00    +0.020 A 
ATOM      5  C   UNL     1       9.508  -1.908  24.158  0.00  0.00    +0.005 A 
ATOM      6  C   UNL     1       9.829  -1.718  22.811  0.00  0.00    +0.117 A 
ATOM      7  N   UNL     1      10.039  -0.523  22.223  0.00  0.00    -0.256 NA
ENDROOT
BRANCH   3   8
ATOM      8  O   UNL     1       9.355   1.667  25.030  0.00  0.00    -0.505 OA
ATOM      9  H   UNL     1      10.152   2.215  24.942  0.00  0.00    +0.292 HD
ENDBRANCH   3   8
BRANCH   4  10
ATOM     10  C   UNL     1       9.034  -0.850  26.429  0.00  0.00    +0.141 C 
BRANCH  10  11
ATOM     11  N   UNL     1       7.679  -0.377  26.667  0.00  0.00    -0.333 N 
ATOM     12  H   UNL     1       7.533   0.038  27.589  0.00  0.00    +0.147 HD
BRANCH  11  13
ATOM     13  C   UNL     1       6.615  -1.024  26.120  0.00  0.00    +0.130 A 
ATOM     14  C   UNL     1       6.171  -2.328  26.379  0.00  0.00    +0.273 A 
ATOM     15  N   UNL     1       5.100  -2.680  25.676  0.00  0.00    -0.038 NA
ATOM     16  O   UNL     1       4.805  -1.551  24.913  0.00  0.00    -0.358 OA
ATOM     17  C   UNL     1       5.714  -0.572  25.186  0.00  0.00    +0.257 A 
BRANCH  14  18
ATOM     18  O   UNL     1       6.687  -3.251  27.190  0.00  0.00    -0.489 OA
ATOM     19  H   UNL     1       7.617  -3.342  26.921  0.00  0.00    +0.294 HD
ENDBRANCH  14  18
ENDBRANCH  11  13
ENDBRANCH  10  11
ENDBRANCH   4  10
BRANCH   5  20
ATOM     20  C   UNL     1       9.305  -3.319  24.648  0.00  0.00    +0.209 C 
BRANCH  20  21
ATOM     21  O   UNL     1       8.865  -4.095  23.550  0.00  0.00    -0.282 OA
BRANCH  21  22
ATOM     22  P   UNL     1       7.451  -4.818  23.672  0.00  0.00    +0.473 P 
ATOM     23  O   UNL     1       7.133  -5.383  25.011  0.00  0.00    -0.228 OA
BRANCH  22  24
ATOM     24  O   UNL     1       7.486  -5.858  22.466  0.00  0.00    -0.303 OA
ATOM     25  H   UNL     1       6.923  -6.631  22.655  0.00  0.00    +0.222 HD
ENDBRANCH  22  24
BRANCH  22  26
ATOM     26  O   UNL     1       6.399  -3.724  23.183  0.00  0.00    -0.303 OA
ATOM     27  H   UNL     1       6.798  -2.834  23.237  0.00  0.00    +0.222 HD
ENDBRANCH  22  26
ENDBRANCH  21  22
ENDBRANCH  20  21
ENDBRANCH   5  20
TORSDOF 10
ENDMDL
