MODEL 1
REMARK VINA RESULT:      -4.4      0.000      0.000
REMARK  Name = 
REMARK  6 active torsions:
REMARK  status: ('A' for Active; 'I' for Inactive)
REMARK    1  A    between atoms: C_1  and  C_2
REMARK    2  A    between atoms: N_4  and  CA_5
REMARK    3  A    between atoms: CA_5  and  CB_7
REMARK    4  A    between atoms: CA_5  and  C_9
REMARK    5  A    between atoms: CB_7  and  OG_8
REMARK    6  A    between atoms: C_9  and  O_10
REMARK                            x       y       z     vdW  Elec       q    Type
REMARK                         _______ _______ _______ _____ _____    ______ ____
ROOT
ATOM      1  CA  SER A   1      12.025   4.782  23.601  0.00  0.00    +0.207 C 
ENDROOT
BRANCH   1   4
ATOM      2  C   UNK A   0       9.397   2.303  22.404  0.00  0.00    +0.109 C 
ATOM      3  C   UNK A   0      10.565   2.823  23.195  0.00  0.00    +0.211 C 
ATOM      4  N   SER A   1      10.829   4.161  22.996  0.00  0.00    -0.301 N 
ATOM      5  H   SER A   1      10.544   4.556  22.101  0.00  0.00    +0.150 HD
ATOM      6  O   UNK A   0      11.165   2.149  24.022  0.00  0.00    -0.276 OA
ENDBRANCH   1   4
BRANCH   1   7
ATOM      7  C   SER A   1      11.692   6.052  24.387  0.00  0.00    +0.328 C 
ATOM      8  OXT SER A   1      10.568   6.522  24.479  0.00  0.00    -0.249 OA
BRANCH   7   9
ATOM      9  O   SER A   1      12.758   6.603  25.016  0.00  0.00    -0.479 OA
ATOM     10  H   SER A   1      13.584   6.236  24.640  0.00  0.00    +0.295 HD
ENDBRANCH   7   9
ENDBRANCH   1   7
BRANCH   1  11
ATOM     11  CB  SER A   1      13.044   5.141  22.517  0.00  0.00    +0.189 C 
BRANCH  11  12
ATOM     12  OG  SER A   1      14.367   5.104  23.065  0.00  0.00    -0.393 OA
ATOM     13  H   SER A   1      14.888   4.482  22.527  0.00  0.00    +0.209 HD
ENDBRANCH  11  12
ENDBRANCH   1  11
TORSDOF 5
ENDMDL
MODEL 2
REMARK VINA RESULT:      -4.1      4.203      5.190
REMARK  Name = 
REMARK  6 active torsions:
REMARK  status: ('A' for Active; 'I' for Inactive)
REMARK    1  A    between atoms: C_1  and  C_2
REMARK    2  A    between atoms: N_4  and  CA_5
REMARK    3  A    between atoms: CA_5  and  CB_7
REMARK    4  A    between atoms: CA_5  and  C_9
REMARK    5  A    between atoms: CB_7  and  OG_8
REMARK    6  A    between atoms: C_9  and  O_10
REMARK                            x       y       z     vdW  Elec       q    Type
REMARK                         _______ _______ _______ _____ _____    ______ ____
ROOT
ATOM      1  CA  SER A   1       9.879   0.377  23.012  0.00  0.00    +0.207 C 
ENDROOT
BRANCH   1   4
ATOM      2  C   UNK A   0       8.267  -3.067  23.167  0.00  0.00    +0.109 C 
ATOM      3  C   UNK A   0       9.362  -2.045  23.033  0.00  0.00    +0.211 C 
ATOM      4  N   SER A   1       8.947  -0.747  23.240  0.00  0.00    -0.301 N 
ATOM      5  H   SER A   1       7.969  -0.542  23.047  0.00  0.00    +0.150 HD
ATOM      6  O   UNK A   0      10.536  -2.343  22.858  0.00  0.00    -0.276 OA
ENDBRANCH   1   4
BRANCH   1   7
ATOM      7  C   SER A   1      10.082   1.233  24.264  0.00  0.00    +0.328 C 
ATOM      8  OXT SER A   1       9.704   2.390  24.367  0.00  0.00    -0.249 OA
BRANCH   7   9
ATOM      9  O   SER A   1      10.693   0.581  25.282  0.00  0.00    -0.479 OA
ATOM     10  H   SER A   1      11.343   1.176  25.707  0.00  0.00    +0.295 HD
ENDBRANCH   7   9
ENDBRANCH   1   7
BRANCH   1  11
ATOM     11  CB  SER A   1       9.359   1.280  21.891  0.00  0.00    +0.189 C 
BRANCH  11  12
ATOM     12  OG  SER A   1      10.327   2.294  21.598  0.00  0.00    -0.393 OA
ATOM     13  H   SER A   1      10.060   3.099  22.078  0.00  0.00    +0.209 HD
ENDBRANCH  11  12
ENDBRANCH   1  11
TORSDOF 5
ENDMDL
MODEL 3
REMARK VINA RESULT:      -4.1      9.729     10.630
REMARK  Name = 
REMARK  6 active torsions:
REMARK  status: ('A' for Active; 'I' for Inactive)
REMARK    1  A    between atoms: C_1  and  C_2
REMARK    2  A    between atoms: N_4  and  CA_5
REMARK    3  A    between atoms: CA_5  and  CB_7
REMARK    4  A    between atoms: CA_5  and  C_9
REMARK    5  A    between atoms: CB_7  and  OG_8
REMARK    6  A    between atoms: C_9  and  O_10
REMARK                            x       y       z     vdW  Elec       q    Type
REMARK                         _______ _______ _______ _____ _____    ______ ____
ROOT
ATOM      1  CA  SER A   1       7.788  -4.778  24.803  0.00  0.00    +0.207 C 
ENDROOT
BRANCH   1   4
ATOM      2  C   UNK A   0       6.435  -5.590  21.340  0.00  0.00    +0.109 C 
ATOM      3  C   UNK A   0       7.100  -4.788  22.424  0.00  0.00    +0.211 C 
ATOM      4  N   SER A   1       7.272  -5.474  23.607  0.00  0.00    -0.301 N 
ATOM      5  H   SER A   1       6.618  -6.231  23.797  0.00  0.00    +0.150 HD
ATOM      6  O   UNK A   0       7.542  -3.661  22.246  0.00  0.00    -0.276 OA
ENDBRANCH   1   4
BRANCH   1   7
ATOM      7  C   SER A   1       9.311  -4.869  24.923  0.00  0.00    +0.328 C 
ATOM      8  OXT SER A   1      10.079  -4.009  24.519  0.00  0.00    -0.249 OA
BRANCH   7   9
ATOM      9  O   SER A   1       9.746  -5.982  25.560  0.00  0.00    -0.479 OA
ATOM     10  H   SER A   1      10.179  -6.578  24.916  0.00  0.00    +0.295 HD
ENDBRANCH   7   9
ENDBRANCH   1   7
BRANCH   1  11
ATOM     11  CB  SER A   1       7.170  -5.371  26.072  0.00  0.00    +0.189 C 
BRANCH  11  12
ATOM     12  OG  SER A   1       7.820  -4.827  27.226  0.00  0.00    -0.393 OA
ATOM     13  H   SER A   1       7.738  -3.858  27.178  0.00  0.00    +0.209 HD
ENDBRANCH  11  12
ENDBRANCH   1  11
TORSDOF 5
ENDMDL
MODEL 4
REMARK VINA RESULT:      -4.0      4.015      6.906
REMARK  Name = 
REMARK  6 active torsions:
REMARK  status: ('A' for Active; 'I' for Inactive)
REMARK    1  A    between atoms: C_1  and  C_2
REMARK    2  A    between atoms: N_4  and  CA_5
REMARK    3  A    between atoms: CA_5  and  CB_7
REMARK    4  A    between atoms: CA_5  and  C_9
REMARK    5  A    between atoms: CB_7  and  OG_8
REMARK    6  A    between atoms: C_9  and  O_10
REMARK                            x       y       z     vdW  Elec       q    Type
REMARK                         _______ _______ _______ _____ _____    ______ ____
ROOT
ATOM      1  CA  SER A   1       9.045  -0.847  23.615  0.00  0.00    +0.207 C 
ENDROOT
BRANCH   1   4
ATOM      2  C   UNK A   0      10.609   2.622  23.521  0.00  0.00    +0.109 C 
ATOM      3  C   UNK A   0      10.368   1.214  23.989  0.00  0.00    +0.211 C 
ATOM      4  N   SER A   1       9.483   0.504  23.206  0.00  0.00    -0.301 N 
ATOM      5  H   SER A   1       8.790   1.045  22.692  0.00  0.00    +0.150 HD
ATOM      6  O   UNK A   0      10.979   0.705  24.920  0.00  0.00    -0.276 OA
ENDBRANCH   1   4
BRANCH   1   7
ATOM      7  C   SER A   1       9.992  -1.944  23.123  0.00  0.00    +0.328 C 
ATOM      8  OXT SER A   1      10.242  -2.961  23.752  0.00  0.00    -0.249 OA
BRANCH   7   9
ATOM      9  O   SER A   1      10.510  -1.711  21.894  0.00  0.00    -0.479 OA
ATOM     10  H   SER A   1      10.587  -0.746  21.750  0.00  0.00    +0.295 HD
ENDBRANCH   7   9
ENDBRANCH   1   7
BRANCH   1  11
ATOM     11  CB  SER A   1       7.645  -1.139  23.070  0.00  0.00    +0.189 C 
BRANCH  11  12
ATOM     12  OG  SER A   1       7.681  -2.312  22.249  0.00  0.00    -0.393 OA
ATOM     13  H   SER A   1       7.909  -3.064  22.825  0.00  0.00    +0.209 HD
ENDBRANCH  11  12
ENDBRANCH   1  11
TORSDOF 5
ENDMDL
MODEL 5
REMARK VINA RESULT:      -4.0      8.691     10.491
REMARK  Name = 
REMARK  6 active torsions:
REMARK  status: ('A' for Active; 'I' for Inactive)
REMARK    1  A    between atoms: C_1  and  C_2
REMARK    2  A    between atoms: N_4  and  CA_5
REMARK    3  A    between atoms: CA_5  and  CB_7
REMARK    4  A    between atoms: CA_5  and  C_9
REMARK    5  A    between atoms: CB_7  and  OG_8
REMARK    6  A    between atoms: C_9  and  O_10
REMARK                            x       y       z     vdW  Elec       q    Type
REMARK                         _______ _______ _______ _____ _____    ______ ____
ROOT
ATOM      1  CA  SER A   1       8.418  -4.825  24.108  0.00  0.00    +0.207 C 
ENDROOT
BRANCH   1   4
ATOM      2  C   UNK A   0       5.008  -5.666  22.642  0.00  0.00    +0.109 C 
ATOM      3  C   UNK A   0       6.507  -5.629  22.753  0.00  0.00    +0.211 C 
ATOM      4  N   SER A   1       6.971  -5.053  23.916  0.00  0.00    -0.301 N 
ATOM      5  H   SER A   1       6.363  -4.369  24.363  0.00  0.00    +0.150 HD
ATOM      6  O   UNK A   0       7.251  -6.153  21.935  0.00  0.00    -0.276 OA
ENDBRANCH   1   4
BRANCH   1   7
ATOM      7  C   SER A   1       8.939  -5.428  25.414  0.00  0.00    +0.328 C 
ATOM      8  OXT SER A   1       8.225  -5.728  26.359  0.00  0.00    -0.249 OA
BRANCH   7   9
ATOM      9  O   SER A   1      10.276  -5.643  25.425  0.00  0.00    -0.479 OA
ATOM     10  H   SER A   1      10.464  -6.511  25.836  0.00  0.00    +0.295 HD
ENDBRANCH   7   9
ENDBRANCH   1   7
BRANCH   1  11
ATOM     11  CB  SER A   1       8.723  -3.324  24.116  0.00  0.00    +0.189 C 
BRANCH  11  12
ATOM     12  OG  SER A   1      10.128  -3.116  23.939  0.00  0.00    -0.393 OA
ATOM     13  H   SER A   1      10.460  -3.834  23.369  0.00  0.00    +0.209 HD
ENDBRANCH  11  12
ENDBRANCH   1  11
TORSDOF 5
ENDMDL
MODEL 6
REMARK VINA RESULT:      -4.0     10.028     10.515
REMARK  Name = 
REMARK  6 active torsions:
REMARK  status: ('A' for Active; 'I' for Inactive)
REMARK    1  A    between atoms: C_1  and  C_2
REMARK    2  A    between atoms: N_4  and  CA_5
REMARK    3  A    between atoms: CA_5  and  CB_7
REMARK    4  A    between atoms: CA_5  and  C_9
REMARK    5  A    between atoms: CB_7  and  OG_8
REMARK    6  A    between atoms: C_9  and  O_10
REMARK                            x       y       z     vdW  Elec       q    Type
REMARK                         _______ _______ _______ _____ _____    ______ ____
ROOT
ATOM      1  CA  SER A   1       8.036  -5.054  25.243  0.00  0.00    +0.207 C 
ENDROOT
BRANCH   1   4
ATOM      2  C   UNK A   0       6.369  -3.735  22.086  0.00  0.00    +0.109 C 
ATOM      3  C   UNK A   0       7.118  -4.692  22.971  0.00  0.00    +0.211 C 
ATOM      4  N   SER A   1       7.216  -4.285  24.285  0.00  0.00    -0.301 N 
ATOM      5  H   SER A   1       7.176  -3.282  24.458  0.00  0.00    +0.150 HD
ATOM      6  O   UNK A   0       7.518  -5.783  22.588  0.00  0.00    -0.276 OA
ENDBRANCH   1   4
BRANCH   1   7
ATOM      7  C   SER A   1       7.551  -4.898  26.686  0.00  0.00    +0.328 C 
ATOM      8  OXT SER A   1       6.863  -3.968  27.078  0.00  0.00    -0.249 OA
BRANCH   7   9
ATOM      9  O   SER A   1       7.922  -5.914  27.502  0.00  0.00    -0.479 OA
ATOM     10  H   SER A   1       7.803  -5.643  28.435  0.00  0.00    +0.295 HD
ENDBRANCH   7   9
ENDBRANCH   1   7
BRANCH   1  11
ATOM     11  CB  SER A   1       9.497  -4.602  25.175  0.00  0.00    +0.189 C 
BRANCH  11  12
ATOM     12  OG  SER A   1      10.342  -5.613  25.733  0.00  0.00    -0.393 OA
ATOM     13  H   SER A   1      11.017  -5.831  25.064  0.00  0.00    +0.209 HD
ENDBRANCH  11  12
ENDBRANCH   1  11
TORSDOF 5
ENDMDL
MODEL 7
REMARK VINA RESULT:      -3.9      4.548      6.308
REMARK  Name = 
REMARK  6 active torsions:
REMARK  status: ('A' for Active; 'I' for Inactive)
REMARK    1  A    between atoms: C_1  and  C_2
REMARK    2  A    between atoms: N_4  and  CA_5
REMARK    3  A    between atoms: CA_5  and  CB_7
REMARK    4  A    between atoms: CA_5  and  C_9
REMARK    5  A    between atoms: CB_7  and  OG_8
REMARK    6  A    between atoms: C_9  and  O_10
REMARK                            x       y       z     vdW  Elec       q    Type
REMARK                         _______ _______ _______ _____ _____    ______ ____
ROOT
ATOM      1  CA  SER A   1       9.931  -0.353  23.489  0.00  0.00    +0.207 C 
ENDROOT
BRANCH   1   4
ATOM      2  C   UNK A   0       7.842   2.239  21.645  0.00  0.00    +0.109 C 
ATOM      3  C   UNK A   0       9.078   1.544  22.144  0.00  0.00    +0.211 C 
ATOM      4  N   SER A   1       8.828   0.371  22.825  0.00  0.00    -0.301 N 
ATOM      5  H   SER A   1       7.922   0.292  23.283  0.00  0.00    +0.150 HD
ATOM      6  O   UNK A   0      10.211   1.926  21.883  0.00  0.00    -0.276 OA
ENDBRANCH   1   4
BRANCH   1   7
ATOM      7  C   SER A   1      10.181  -1.732  22.875  0.00  0.00    +0.328 C 
ATOM      8  OXT SER A   1      10.272  -2.762  23.526  0.00  0.00    -0.249 OA
BRANCH   7   9
ATOM      9  O   SER A   1      10.255  -1.725  21.523  0.00  0.00    -0.479 OA
ATOM     10  H   SER A   1       9.494  -2.216  21.152  0.00  0.00    +0.295 HD
ENDBRANCH   7   9
ENDBRANCH   1   7
BRANCH   1  11
ATOM     11  CB  SER A   1       9.626  -0.538  24.978  0.00  0.00    +0.189 C 
BRANCH  11  12
ATOM     12  OG  SER A   1      10.281   0.485  25.736  0.00  0.00    -0.393 OA
ATOM     13  H   SER A   1      10.111   1.334  25.289  0.00  0.00    +0.209 HD
ENDBRANCH  11  12
ENDBRANCH   1  11
TORSDOF 5
ENDMDL
MODEL 8
REMARK VINA RESULT:      -3.9      8.254      9.744
REMARK  Name = 
REMARK  6 active torsions:
REMARK  status: ('A' for Active; 'I' for Inactive)
REMARK    1  A    between atoms: C_1  and  C_2
REMARK    2  A    between atoms: N_4  and  CA_5
REMARK    3  A    between atoms: CA_5  and  CB_7
REMARK    4  A    between atoms: CA_5  and  C_9
REMARK    5  A    between atoms: CB_7  and  OG_8
REMARK    6  A    between atoms: C_9  and  O_10
REMARK                            x       y       z     vdW  Elec       q    Type
REMARK                         _______ _______ _______ _____ _____    ______ ____
ROOT
ATOM      1  CA  SER A   1       8.389  -4.281  24.813  0.00  0.00    +0.207 C 
ENDROOT
BRANCH   1   4
ATOM      2  C   UNK A   0       6.779  -6.193  21.943  0.00  0.00    +0.109 C 
ATOM      3  C   UNK A   0       6.949  -5.118  22.979  0.00  0.00    +0.211 C 
ATOM      4  N   SER A   1       8.138  -5.188  23.675  0.00  0.00    -0.301 N 
ATOM      5  H   SER A   1       8.569  -6.107  23.751  0.00  0.00    +0.150 HD
ATOM      6  O   UNK A   0       6.154  -4.199  23.125  0.00  0.00    -0.276 OA
ENDBRANCH   1   4
BRANCH   1   7
ATOM      7  C   SER A   1       9.170  -3.030  24.405  0.00  0.00    +0.328 C 
ATOM      8  OXT SER A   1      10.253  -3.057  23.842  0.00  0.00    -0.249 OA
BRANCH   7   9
ATOM      9  O   SER A   1       8.533  -1.869  24.689  0.00  0.00    -0.479 OA
ATOM     10  H   SER A   1       8.637  -1.248  23.940  0.00  0.00    +0.295 HD
ENDBRANCH   7   9
ENDBRANCH   1   7
BRANCH   1  11
ATOM     11  CB  SER A   1       9.179  -5.006  25.906  0.00  0.00    +0.189 C 
BRANCH  11  12
ATOM     12  OG  SER A   1      10.356  -5.594  25.342  0.00  0.00    -0.393 OA
ATOM     13  H   SER A   1      10.541  -5.132  24.504  0.00  0.00    +0.209 HD
ENDBRANCH  11  12
ENDBRANCH   1  11
TORSDOF 5
ENDMDL
MODEL 9
REMARK VINA RESULT:      -3.8      5.488      7.100
REMARK  Name = 
REMARK  6 active torsions:
REMARK  status: ('A' for Active; 'I' for Inactive)
REMARK    1  A    between atoms: C_1  and  C_2
REMARK    2  A    between atoms: N_4  and  CA_5
REMARK    3  A    between atoms: CA_5  and  CB_7
REMARK    4  A    between atoms: CA_5  and  C_9
REMARK    5  A    between atoms: CB_7  and  OG_8
REMARK    6  A    between atoms: C_9  and  O_10
REMARK                            x       y       z     vdW  Elec       q    Type
REMARK                         _______ _______ _______ _____ _____    ______ ____
ROOT
ATOM      1  CA  SER A   1       9.875  -1.711  23.898  0.00  0.00    +0.207 C 
ENDROOT
BRANCH   1   4
ATOM      2  C   UNK A   0       8.046  -4.334  25.962  0.00  0.00    +0.109 C 
ATOM      3  C   UNK A   0       9.104  -3.756  25.064  0.00  0.00    +0.211 C 
ATOM      4  N   SER A   1       8.989  -2.397  24.861  0.00  0.00    -0.301 N 
ATOM      5  H   SER A   1       8.057  -1.998  24.949  0.00  0.00    +0.150 HD
ATOM      6  O   UNK A   0      10.045  -4.409  24.633  0.00  0.00    -0.276 OA
ENDBRANCH   1   4
BRANCH   1   7
ATOM      7  C   SER A   1      10.185  -0.271  24.310  0.00  0.00    +0.328 C 
ATOM      8  OXT SER A   1      10.582   0.588  23.538  0.00  0.00    -0.249 OA
BRANCH   7   9
ATOM      9  O   SER A   1       9.942  -0.009  25.616  0.00  0.00    -0.479 OA
ATOM     10  H   SER A   1       9.686   0.930  25.719  0.00  0.00    +0.295 HD
ENDBRANCH   7   9
ENDBRANCH   1   7
BRANCH   1  11
ATOM     11  CB  SER A   1       9.232  -1.686  22.509  0.00  0.00    +0.189 C 
BRANCH  11  12
ATOM     12  OG  SER A   1      10.248  -1.561  21.508  0.00  0.00    -0.393 OA
ATOM     13  H   SER A   1       9.835  -1.756  20.647  0.00  0.00    +0.209 HD
ENDBRANCH  11  12
ENDBRANCH   1  11
TORSDOF 5
ENDMDL
