MODEL 1
REMARK VINA RESULT:      -6.6      0.000      0.000
REMARK  Name = 
REMARK  19 active torsions:
REMARK  status: ('A' for Active; 'I' for Inactive)
REMARK    1  A    between atoms: N_1  and  C_2
REMARK    2  A    between atoms: C_2  and  C_4
REMARK    3  A    between atoms: C_2  and  C_34
REMARK    4  A    between atoms: C_4  and  C_5
REMARK    5  A    between atoms: C_5  and  C_6
REMARK    6  A    between atoms: N_8  and  C_9
REMARK    7  A    between atoms: C_9  and  C_11
REMARK    8  A    between atoms: C_9  and  C_27
REMARK    9  A    between atoms: C_11  and  S_12
REMARK   10  A    between atoms: S_12  and  C_13
REMARK   11  A    between atoms: C_13  and  O_15
REMARK   12  A    between atoms: C_13  and  O_16
REMARK   13  A    between atoms: O_16  and  C_17
REMARK   14  A    between atoms: C_17  and  C_18
REMARK   15  A    between atoms: C_21  and  N_24
REMARK   16  A    between atoms: N_29  and  CA_30
REMARK   17  A    between atoms: CA_30  and  C_31
REMARK   18  A    between atoms: C_31  and  O_32
REMARK   19  A    between atoms: C_34  and  O_35
REMARK                            x       y       z     vdW  Elec       q    Type
REMARK                         _______ _______ _______ _____ _____    ______ ____
ROOT
ATOM      1  C   UNK A   1       8.218  -4.200  26.085  0.00  0.00    +0.169 C 
ENDROOT
BRANCH   1   3
ATOM      2  C   UNK A   1       6.491  -5.380  27.472  0.00  0.00    +0.214 C 
ATOM      3  N   UNK A   1       6.816  -4.437  26.524  0.00  0.00    -0.303 N 
ATOM      4  H   UNK A   1       6.085  -3.929  26.045  0.00  0.00    +0.149 HD
ATOM      5  O   UNK A   1       7.345  -6.050  28.045  0.00  0.00    -0.276 OA
BRANCH   2   6
ATOM      6  C   UNK A   1       5.006  -5.545  27.796  0.00  0.00    +0.098 C 
BRANCH   6   7
ATOM      7  C   UNK A   1       4.315  -6.832  27.322  0.00  0.00    +0.039 C 
BRANCH   7   8
ATOM      8  C   UNK A   1       3.399  -6.729  26.086  0.00  0.00    +0.161 C 
BRANCH   8   9
ATOM      9  N   UNK A   1       2.588  -7.910  25.820  0.00  0.00    -0.318 NA
ATOM     10  H   UNK A   1       3.137  -8.766  25.911  0.00  0.00    +0.119 HD
ATOM     11  H   UNK A   1       1.785  -7.969  26.440  0.00  0.00    +0.119 HD
ENDBRANCH   8   9
BRANCH   8  12
ATOM     12  C   UNK A   1       4.245  -6.354  24.867  0.00  0.00    +0.322 C 
ATOM     13  O   UNK A   1       4.570  -5.229  24.527  0.00  0.00    -0.249 OA
BRANCH  12  14
ATOM     14  O   UNK A   1       4.503  -7.450  24.106  0.00  0.00    -0.480 OA
ATOM     15  H   UNK A   1       3.906  -7.541  23.336  0.00  0.00    +0.295 HD
ENDBRANCH  12  14
ENDBRANCH   8  12
ENDBRANCH   7   8
ENDBRANCH   6   7
ENDBRANCH   2   6
ENDBRANCH   1   3
BRANCH   1  16
ATOM     16  C   UNK A   1       8.476  -4.931  24.733  0.00  0.00    +0.235 C 
ATOM     17  N   GLY A   2       7.490  -4.832  23.789  0.00  0.00    -0.303 N 
ATOM     18  H   GLY A   2       6.753  -4.135  23.915  0.00  0.00    +0.149 HD
ATOM     19  O   UNK A   1       9.534  -5.500  24.467  0.00  0.00    -0.274 OA
BRANCH  17  20
ATOM     20  CA  GLY A   2       7.444  -5.616  22.549  0.00  0.00    +0.224 C 
BRANCH  20  21
ATOM     21  C   GLY A   2       6.284  -5.449  21.554  0.00  0.00    +0.322 C 
ATOM     22  OXT GLY A   2       5.995  -4.382  21.027  0.00  0.00    -0.249 OA
BRANCH  21  23
ATOM     23  O   GLY A   2       5.505  -6.536  21.390  0.00  0.00    -0.480 OA
ATOM     24  H   GLY A   2       4.573  -6.270  21.565  0.00  0.00    +0.295 HD
ENDBRANCH  21  23
ENDBRANCH  20  21
ENDBRANCH  17  20
ENDBRANCH   1  16
BRANCH   1  25
ATOM     25  C   UNK A   1       8.496  -2.682  25.950  0.00  0.00    +0.105 C 
BRANCH  25  26
ATOM     26  S   UNK A   1       7.043  -1.740  25.349  0.00  0.00    -0.099 S 
BRANCH  26  27
ATOM     27  C   UNK A   1       7.493  -1.536  23.603  0.00  0.00    +0.310 C 
BRANCH  27  28
ATOM     28  O   UNK A   1       6.474  -2.065  22.778  0.00  0.00    -0.359 OA
ATOM     29  H   UNK A   1       6.026  -2.743  23.306  0.00  0.00    +0.213 HD
ENDBRANCH  27  28
BRANCH  27  30
ATOM     30  O   UNK A   1       8.742  -2.135  23.293  0.00  0.00    -0.338 OA
BRANCH  30  31
ATOM     31  C   UNK A   1       9.373  -1.499  22.182  0.00  0.00    +0.199 C 
BRANCH  31  32
ATOM     32  C   UNK A   1       9.743  -0.084  22.551  0.00  0.00    -0.021 A 
ATOM     33  C   UNK A   1      10.511   0.169  23.698  0.00  0.00    +0.012 A 
ATOM     34  C   UNK A   1      10.891   1.472  24.028  0.00  0.00    +0.084 A 
ATOM     35  C   UNK A   1      10.498   2.534  23.205  0.00  0.00    +0.273 A 
ATOM     36  C   UNK A   1       9.702   2.302  22.076  0.00  0.00    +0.084 A 
ATOM     37  C   UNK A   1       9.327   0.994  21.755  0.00  0.00    +0.012 A 
BRANCH  35  38
ATOM     38  N   UNK A   1      10.943   3.898  23.511  0.00  0.00    +0.080 N 
ATOM     39  O   UNK A   1      10.088   4.717  23.874  0.00  0.00    +0.041 OA
ATOM     40  O   UNK A   1      12.152   4.150  23.396  0.00  0.00    -0.576 OA
ENDBRANCH  35  38
ENDBRANCH  31  32
ENDBRANCH  30  31
ENDBRANCH  27  30
ENDBRANCH  26  27
ENDBRANCH  25  26
ENDBRANCH   1  25
TORSDOF 19
ENDMDL
MODEL 2
REMARK VINA RESULT:      -6.3      2.514      8.344
REMARK  Name = 
REMARK  19 active torsions:
REMARK  status: ('A' for Active; 'I' for Inactive)
REMARK    1  A    between atoms: N_1  and  C_2
REMARK    2  A    between atoms: C_2  and  C_4
REMARK    3  A    between atoms: C_2  and  C_34
REMARK    4  A    between atoms: C_4  and  C_5
REMARK    5  A    between atoms: C_5  and  C_6
REMARK    6  A    between atoms: N_8  and  C_9
REMARK    7  A    between atoms: C_9  and  C_11
REMARK    8  A    between atoms: C_9  and  C_27
REMARK    9  A    between atoms: C_11  and  S_12
REMARK   10  A    between atoms: S_12  and  C_13
REMARK   11  A    between atoms: C_13  and  O_15
REMARK   12  A    between atoms: C_13  and  O_16
REMARK   13  A    between atoms: O_16  and  C_17
REMARK   14  A    between atoms: C_17  and  C_18
REMARK   15  A    between atoms: C_21  and  N_24
REMARK   16  A    between atoms: N_29  and  CA_30
REMARK   17  A    between atoms: CA_30  and  C_31
REMARK   18  A    between atoms: C_31  and  O_32
REMARK   19  A    between atoms: C_34  and  O_35
REMARK                            x       y       z     vdW  Elec       q    Type
REMARK                         _______ _______ _______ _____ _____    ______ ____
ROOT
ATOM      1  C   UNK A   1       9.091   2.196  23.169  0.00  0.00    +0.169 C 
ENDROOT
BRANCH   1   3
ATOM      2  C   UNK A   1       6.973   1.388  24.247  0.00  0.00    +0.214 C 
ATOM      3  N   UNK A   1       8.332   1.597  24.301  0.00  0.00    -0.303 N 
ATOM      4  H   UNK A   1       8.839   1.413  25.156  0.00  0.00    +0.149 HD
ATOM      5  O   UNK A   1       6.314   1.640  23.244  0.00  0.00    -0.276 OA
BRANCH   2   6
ATOM      6  C   UNK A   1       6.318   0.804  25.500  0.00  0.00    +0.098 C 
BRANCH   6   7
ATOM      7  C   UNK A   1       6.226  -0.726  25.604  0.00  0.00    +0.039 C 
BRANCH   7   8
ATOM      8  C   UNK A   1       7.208  -1.430  26.561  0.00  0.00    +0.161 C 
BRANCH   8   9
ATOM      9  N   UNK A   1       8.549  -0.862  26.595  0.00  0.00    -0.318 NA
ATOM     10  H   UNK A   1       8.996  -0.908  25.679  0.00  0.00    +0.119 HD
ATOM     11  H   UNK A   1       8.545   0.105  26.909  0.00  0.00    +0.119 HD
ENDBRANCH   8   9
BRANCH   8  12
ATOM     12  C   UNK A   1       7.249  -2.923  26.226  0.00  0.00    +0.322 C 
ATOM     13  O   UNK A   1       6.310  -3.700  26.257  0.00  0.00    -0.249 OA
BRANCH  12  14
ATOM     14  O   UNK A   1       8.526  -3.328  25.998  0.00  0.00    -0.480 OA
ATOM     15  H   UNK A   1       8.953  -2.871  25.245  0.00  0.00    +0.295 HD
ENDBRANCH  12  14
ENDBRANCH   8  12
ENDBRANCH   7   8
ENDBRANCH   6   7
ENDBRANCH   2   6
ENDBRANCH   1   3
BRANCH   1  16
ATOM     16  C   UNK A   1       9.748   3.532  23.624  0.00  0.00    +0.235 C 
ATOM     17  N   GLY A   2      10.927   3.870  23.017  0.00  0.00    -0.303 N 
ATOM     18  H   GLY A   2      11.208   3.369  22.171  0.00  0.00    +0.149 HD
ATOM     19  O   UNK A   1       9.218   4.305  24.421  0.00  0.00    -0.274 OA
BRANCH  17  20
ATOM     20  CA  GLY A   2      11.804   4.963  23.452  0.00  0.00    +0.224 C 
BRANCH  20  21
ATOM     21  C   GLY A   2      13.104   5.280  22.694  0.00  0.00    +0.322 C 
ATOM     22  OXT GLY A   2      13.130   5.686  21.539  0.00  0.00    -0.249 OA
BRANCH  21  23
ATOM     23  O   GLY A   2      14.241   4.954  23.340  0.00  0.00    -0.480 OA
ATOM     24  H   GLY A   2      14.035   4.223  23.965  0.00  0.00    +0.295 HD
ENDBRANCH  21  23
ENDBRANCH  20  21
ENDBRANCH  17  20
ENDBRANCH   1  16
BRANCH   1  25
ATOM     25  C   UNK A   1      10.163   1.205  22.650  0.00  0.00    +0.105 C 
BRANCH  25  26
ATOM     26  S   UNK A   1      10.780   0.073  23.953  0.00  0.00    -0.099 S 
BRANCH  26  27
ATOM     27  C   UNK A   1      10.140  -1.508  23.335  0.00  0.00    +0.310 C 
BRANCH  27  28
ATOM     28  O   UNK A   1      10.536  -1.696  21.991  0.00  0.00    -0.359 OA
ATOM     29  H   UNK A   1      10.517  -0.818  21.580  0.00  0.00    +0.213 HD
ENDBRANCH  27  28
BRANCH  27  30
ATOM     30  O   UNK A   1       8.728  -1.602  23.453  0.00  0.00    -0.338 OA
BRANCH  30  31
ATOM     31  C   UNK A   1       8.127  -2.067  22.245  0.00  0.00    +0.199 C 
BRANCH  31  32
ATOM     32  C   UNK A   1       7.119  -3.143  22.562  0.00  0.00    -0.021 A 
ATOM     33  C   UNK A   1       7.540  -4.465  22.777  0.00  0.00    +0.012 A 
ATOM     34  C   UNK A   1       6.619  -5.461  23.108  0.00  0.00    +0.084 A 
ATOM     35  C   UNK A   1       5.263  -5.136  23.224  0.00  0.00    +0.273 A 
ATOM     36  C   UNK A   1       4.822  -3.830  22.979  0.00  0.00    +0.084 A 
ATOM     37  C   UNK A   1       5.751  -2.839  22.647  0.00  0.00    +0.012 A 
BRANCH  35  38
ATOM     38  N   UNK A   1       4.298  -6.164  23.629  0.00  0.00    +0.080 N 
ATOM     39  O   UNK A   1       3.098  -5.949  23.412  0.00  0.00    +0.041 OA
ATOM     40  O   UNK A   1       4.742  -7.194  24.160  0.00  0.00    -0.576 OA
ENDBRANCH  35  38
ENDBRANCH  31  32
ENDBRANCH  30  31
ENDBRANCH  27  30
ENDBRANCH  26  27
ENDBRANCH  25  26
ENDBRANCH   1  25
TORSDOF 19
ENDMDL
MODEL 3
REMARK VINA RESULT:      -6.2      2.370      4.411
REMARK  Name = 
REMARK  19 active torsions:
REMARK  status: ('A' for Active; 'I' for Inactive)
REMARK    1  A    between atoms: N_1  and  C_2
REMARK    2  A    between atoms: C_2  and  C_4
REMARK    3  A    between atoms: C_2  and  C_34
REMARK    4  A    between atoms: C_4  and  C_5
REMARK    5  A    between atoms: C_5  and  C_6
REMARK    6  A    between atoms: N_8  and  C_9
REMARK    7  A    between atoms: C_9  and  C_11
REMARK    8  A    between atoms: C_9  and  C_27
REMARK    9  A    between atoms: C_11  and  S_12
REMARK   10  A    between atoms: S_12  and  C_13
REMARK   11  A    between atoms: C_13  and  O_15
REMARK   12  A    between atoms: C_13  and  O_16
REMARK   13  A    between atoms: O_16  and  C_17
REMARK   14  A    between atoms: C_17  and  C_18
REMARK   15  A    between atoms: C_21  and  N_24
REMARK   16  A    between atoms: N_29  and  CA_30
REMARK   17  A    between atoms: CA_30  and  C_31
REMARK   18  A    between atoms: C_31  and  O_32
REMARK   19  A    between atoms: C_34  and  O_35
REMARK                            x       y       z     vdW  Elec       q    Type
REMARK                         _______ _______ _______ _____ _____    ______ ____
ROOT
ATOM      1  C   UNK A   1       5.163  -5.583  27.015  0.00  0.00    +0.169 C 
ENDROOT
BRANCH   1   3
ATOM      2  C   UNK A   1       4.600  -6.160  24.638  0.00  0.00    +0.214 C 
ATOM      3  N   UNK A   1       4.902  -5.219  25.595  0.00  0.00    -0.303 N 
ATOM      4  H   UNK A   1       5.028  -4.252  25.331  0.00  0.00    +0.149 HD
ATOM      5  O   UNK A   1       4.483  -7.351  24.909  0.00  0.00    -0.276 OA
BRANCH   2   6
ATOM      6  C   UNK A   1       4.397  -5.648  23.211  0.00  0.00    +0.098 C 
BRANCH   6   7
ATOM      7  C   UNK A   1       4.609  -4.148  22.959  0.00  0.00    +0.039 C 
BRANCH   7   8
ATOM      8  C   UNK A   1       5.678  -3.749  21.923  0.00  0.00    +0.161 C 
BRANCH   8   9
ATOM      9  N   UNK A   1       6.041  -4.797  20.978  0.00  0.00    -0.318 NA
ATOM     10  H   UNK A   1       5.254  -5.046  20.378  0.00  0.00    +0.119 HD
ATOM     11  H   UNK A   1       6.825  -4.525  20.392  0.00  0.00    +0.119 HD
ENDBRANCH   8   9
BRANCH   8  12
ATOM     12  C   UNK A   1       6.911  -3.216  22.657  0.00  0.00    +0.322 C 
ATOM     13  O   UNK A   1       7.954  -2.844  22.149  0.00  0.00    -0.249 OA
BRANCH  12  14
ATOM     14  O   UNK A   1       6.751  -3.321  24.003  0.00  0.00    -0.480 OA
ATOM     15  H   UNK A   1       6.765  -2.459  24.467  0.00  0.00    +0.295 HD
ENDBRANCH  12  14
ENDBRANCH   8  12
ENDBRANCH   7   8
ENDBRANCH   6   7
ENDBRANCH   2   6
ENDBRANCH   1   3
BRANCH   1  16
ATOM     16  C   UNK A   1       6.689  -5.481  27.311  0.00  0.00    +0.235 C 
ATOM     17  N   GLY A   2       7.379  -4.512  26.634  0.00  0.00    -0.303 N 
ATOM     18  H   GLY A   2       6.855  -3.781  26.147  0.00  0.00    +0.149 HD
ATOM     19  O   UNK A   1       7.255  -6.162  28.165  0.00  0.00    -0.274 OA
BRANCH  17  20
ATOM     20  CA  GLY A   2       8.841  -4.396  26.609  0.00  0.00    +0.224 C 
BRANCH  20  21
ATOM     21  C   GLY A   2       9.638  -4.753  25.343  0.00  0.00    +0.322 C 
ATOM     22  OXT GLY A   2       9.931  -3.939  24.477  0.00  0.00    -0.249 OA
BRANCH  21  23
ATOM     23  O   GLY A   2       9.889  -6.067  25.173  0.00  0.00    -0.480 OA
ATOM     24  H   GLY A   2      10.350  -6.394  25.979  0.00  0.00    +0.295 HD
ENDBRANCH  21  23
ENDBRANCH  20  21
ENDBRANCH  17  20
ENDBRANCH   1  16
BRANCH   1  25
ATOM     25  C   UNK A   1       4.356  -4.666  27.968  0.00  0.00    +0.105 C 
BRANCH  25  26
ATOM     26  S   UNK A   1       3.669  -3.190  27.126  0.00  0.00    -0.099 S 
BRANCH  26  27
ATOM     27  C   UNK A   1       4.932  -1.958  27.554  0.00  0.00    +0.310 C 
BRANCH  27  28
ATOM     28  O   UNK A   1       4.341  -0.678  27.654  0.00  0.00    -0.359 OA
ATOM     29  H   UNK A   1       4.446  -0.264  26.784  0.00  0.00    +0.213 HD
ENDBRANCH  27  28
BRANCH  27  30
ATOM     30  O   UNK A   1       6.002  -1.938  26.622  0.00  0.00    -0.338 OA
BRANCH  30  31
ATOM     31  C   UNK A   1       6.955  -0.922  26.934  0.00  0.00    +0.199 C 
BRANCH  31  32
ATOM     32  C   UNK A   1       7.646  -0.469  25.672  0.00  0.00    -0.021 A 
ATOM     33  C   UNK A   1       9.020  -0.697  25.498  0.00  0.00    +0.012 A 
ATOM     34  C   UNK A   1       9.661  -0.316  24.317  0.00  0.00    +0.084 A 
ATOM     35  C   UNK A   1       8.924   0.301  23.300  0.00  0.00    +0.273 A 
ATOM     36  C   UNK A   1       7.560   0.567  23.472  0.00  0.00    +0.084 A 
ATOM     37  C   UNK A   1       6.927   0.182  24.658  0.00  0.00    +0.012 A 
BRANCH  35  38
ATOM     38  N   UNK A   1       9.577   0.651  22.034  0.00  0.00    +0.080 N 
ATOM     39  O   UNK A   1      10.152   1.745  21.962  0.00  0.00    +0.041 OA
ATOM     40  O   UNK A   1       9.522  -0.175  21.110  0.00  0.00    -0.576 OA
ENDBRANCH  35  38
ENDBRANCH  31  32
ENDBRANCH  30  31
ENDBRANCH  27  30
ENDBRANCH  26  27
ENDBRANCH  25  26
ENDBRANCH   1  25
TORSDOF 19
ENDMDL
MODEL 4
REMARK VINA RESULT:      -6.2      1.868      3.376
REMARK  Name = 
REMARK  19 active torsions:
REMARK  status: ('A' for Active; 'I' for Inactive)
REMARK    1  A    between atoms: N_1  and  C_2
REMARK    2  A    between atoms: C_2  and  C_4
REMARK    3  A    between atoms: C_2  and  C_34
REMARK    4  A    between atoms: C_4  and  C_5
REMARK    5  A    between atoms: C_5  and  C_6
REMARK    6  A    between atoms: N_8  and  C_9
REMARK    7  A    between atoms: C_9  and  C_11
REMARK    8  A    between atoms: C_9  and  C_27
REMARK    9  A    between atoms: C_11  and  S_12
REMARK   10  A    between atoms: S_12  and  C_13
REMARK   11  A    between atoms: C_13  and  O_15
REMARK   12  A    between atoms: C_13  and  O_16
REMARK   13  A    between atoms: O_16  and  C_17
REMARK   14  A    between atoms: C_17  and  C_18
REMARK   15  A    between atoms: C_21  and  N_24
REMARK   16  A    between atoms: N_29  and  CA_30
REMARK   17  A    between atoms: CA_30  and  C_31
REMARK   18  A    between atoms: C_31  and  O_32
REMARK   19  A    between atoms: C_34  and  O_35
REMARK                            x       y       z     vdW  Elec       q    Type
REMARK                         _______ _______ _______ _____ _____    ______ ____
ROOT
ATOM      1  C   UNK A   1       7.253  -4.396  22.819  0.00  0.00    +0.169 C 
ENDROOT
BRANCH   1   3
ATOM      2  C   UNK A   1       8.270  -4.920  25.053  0.00  0.00    +0.214 C 
ATOM      3  N   UNK A   1       7.358  -4.222  24.293  0.00  0.00    -0.303 N 
ATOM      4  H   UNK A   1       6.680  -3.622  24.742  0.00  0.00    +0.149 HD
ATOM      5  O   UNK A   1       9.081  -5.692  24.552  0.00  0.00    -0.276 OA
BRANCH   2   6
ATOM      6  C   UNK A   1       8.239  -4.672  26.562  0.00  0.00    +0.098 C 
BRANCH   6   7
ATOM      7  C   UNK A   1       7.233  -5.482  27.393  0.00  0.00    +0.039 C 
BRANCH   7   8
ATOM      8  C   UNK A   1       5.890  -5.838  26.726  0.00  0.00    +0.161 C 
BRANCH   8   9
ATOM      9  N   UNK A   1       5.025  -4.702  26.434  0.00  0.00    -0.318 NA
ATOM     10  H   UNK A   1       4.083  -5.006  26.186  0.00  0.00    +0.119 HD
ATOM     11  H   UNK A   1       4.965  -4.059  27.218  0.00  0.00    +0.119 HD
ENDBRANCH   8   9
BRANCH   8  12
ATOM     12  C   UNK A   1       5.165  -6.877  27.585  0.00  0.00    +0.322 C 
ATOM     13  O   UNK A   1       5.610  -7.446  28.567  0.00  0.00    -0.249 OA
BRANCH  12  14
ATOM     14  O   UNK A   1       3.963  -7.199  27.037  0.00  0.00    -0.480 OA
ATOM     15  H   UNK A   1       3.202  -7.005  27.623  0.00  0.00    +0.295 HD
ENDBRANCH  12  14
ENDBRANCH   8  12
ENDBRANCH   7   8
ENDBRANCH   6   7
ENDBRANCH   2   6
ENDBRANCH   1   3
BRANCH   1  16
ATOM     16  C   UNK A   1       5.856  -4.983  22.458  0.00  0.00    +0.235 C 
ATOM     17  N   GLY A   2       4.815  -4.626  23.272  0.00  0.00    -0.303 N 
ATOM     18  H   GLY A   2       4.942  -3.849  23.925  0.00  0.00    +0.149 HD
ATOM     19  O   UNK A   1       5.651  -5.663  21.453  0.00  0.00    -0.274 OA
BRANCH  17  20
ATOM     20  CA  GLY A   2       3.481  -5.235  23.231  0.00  0.00    +0.224 C 
BRANCH  20  21
ATOM     21  C   GLY A   2       3.198  -6.560  23.959  0.00  0.00    +0.322 C 
ATOM     22  OXT GLY A   2       2.207  -6.751  24.654  0.00  0.00    -0.249 OA
BRANCH  21  23
ATOM     23  O   GLY A   2       4.187  -7.474  23.895  0.00  0.00    -0.480 OA
ATOM     24  H   GLY A   2       3.851  -8.247  23.386  0.00  0.00    +0.295 HD
ENDBRANCH  21  23
ENDBRANCH  20  21
ENDBRANCH  17  20
ENDBRANCH   1  16
BRANCH   1  25
ATOM     25  C   UNK A   1       7.485  -3.046  22.095  0.00  0.00    +0.105 C 
BRANCH  25  26
ATOM     26  S   UNK A   1       8.005  -1.706  23.232  0.00  0.00    -0.099 S 
BRANCH  26  27
ATOM     27  C   UNK A   1       9.808  -1.811  23.050  0.00  0.00    +0.310 C 
BRANCH  27  28
ATOM     28  O   UNK A   1      10.300  -2.925  23.768  0.00  0.00    -0.359 OA
ATOM     29  H   UNK A   1       9.939  -3.710  23.327  0.00  0.00    +0.213 HD
ENDBRANCH  27  28
BRANCH  27  30
ATOM     30  O   UNK A   1      10.463  -0.624  23.469  0.00  0.00    -0.338 OA
BRANCH  30  31
ATOM     31  C   UNK A   1       9.848  -0.062  24.628  0.00  0.00    +0.199 C 
BRANCH  31  32
ATOM     32  C   UNK A   1       9.689   1.427  24.446  0.00  0.00    -0.021 A 
ATOM     33  C   UNK A   1      10.628   2.151  23.695  0.00  0.00    +0.012 A 
ATOM     34  C   UNK A   1      10.469   3.524  23.489  0.00  0.00    +0.084 A 
ATOM     35  C   UNK A   1       9.363   4.181  24.040  0.00  0.00    +0.273 A 
ATOM     36  C   UNK A   1       8.435   3.479  24.820  0.00  0.00    +0.084 A 
ATOM     37  C   UNK A   1       8.603   2.106  25.021  0.00  0.00    +0.012 A 
BRANCH  35  38
ATOM     38  N   UNK A   1       9.157   5.610  23.778  0.00  0.00    +0.080 N 
ATOM     39  O   UNK A   1      10.156   6.305  23.551  0.00  0.00    +0.041 OA
ATOM     40  O   UNK A   1       7.993   6.037  23.792  0.00  0.00    -0.576 OA
ENDBRANCH  35  38
ENDBRANCH  31  32
ENDBRANCH  30  31
ENDBRANCH  27  30
ENDBRANCH  26  27
ENDBRANCH  25  26
ENDBRANCH   1  25
TORSDOF 19
ENDMDL
MODEL 5
REMARK VINA RESULT:      -6.2      3.148      9.490
REMARK  Name = 
REMARK  19 active torsions:
REMARK  status: ('A' for Active; 'I' for Inactive)
REMARK    1  A    between atoms: N_1  and  C_2
REMARK    2  A    between atoms: C_2  and  C_4
REMARK    3  A    between atoms: C_2  and  C_34
REMARK    4  A    between atoms: C_4  and  C_5
REMARK    5  A    between atoms: C_5  and  C_6
REMARK    6  A    between atoms: N_8  and  C_9
REMARK    7  A    between atoms: C_9  and  C_11
REMARK    8  A    between atoms: C_9  and  C_27
REMARK    9  A    between atoms: C_11  and  S_12
REMARK   10  A    between atoms: S_12  and  C_13
REMARK   11  A    between atoms: C_13  and  O_15
REMARK   12  A    between atoms: C_13  and  O_16
REMARK   13  A    between atoms: O_16  and  C_17
REMARK   14  A    between atoms: C_17  and  C_18
REMARK   15  A    between atoms: C_21  and  N_24
REMARK   16  A    between atoms: N_29  and  CA_30
REMARK   17  A    between atoms: CA_30  and  C_31
REMARK   18  A    between atoms: C_31  and  O_32
REMARK   19  A    between atoms: C_34  and  O_35
REMARK                            x       y       z     vdW  Elec       q    Type
REMARK                         _______ _______ _______ _____ _____    ______ ____
ROOT
ATOM      1  C   UNK A   1       7.520   2.573  22.874  0.00  0.00    +0.169 C 
ENDROOT
BRANCH   1   3
ATOM      2  C   UNK A   1       7.879   5.056  22.815  0.00  0.00    +0.214 C 
ATOM      3  N   UNK A   1       8.188   3.820  23.337  0.00  0.00    -0.303 N 
ATOM      4  H   UNK A   1       8.941   3.727  24.003  0.00  0.00    +0.149 HD
ATOM      5  O   UNK A   1       7.001   5.207  21.971  0.00  0.00    -0.276 OA
BRANCH   2   6
ATOM      6  C   UNK A   1       8.673   6.247  23.354  0.00  0.00    +0.098 C 
BRANCH   6   7
ATOM      7  C   UNK A   1       9.932   5.944  24.180  0.00  0.00    +0.039 C 
BRANCH   7   8
ATOM      8  C   UNK A   1      11.205   5.546  23.408  0.00  0.00    +0.161 C 
BRANCH   8   9
ATOM      9  N   UNK A   1      11.308   4.132  23.075  0.00  0.00    -0.318 NA
ATOM     10  H   UNK A   1      10.389   3.689  23.046  0.00  0.00    +0.119 HD
ATOM     11  H   UNK A   1      11.771   3.983  22.183  0.00  0.00    +0.119 HD
ENDBRANCH   8   9
BRANCH   8  12
ATOM     12  C   UNK A   1      12.433   6.020  24.191  0.00  0.00    +0.322 C 
ATOM     13  O   UNK A   1      12.441   6.806  25.123  0.00  0.00    -0.249 OA
BRANCH  12  14
ATOM     14  O   UNK A   1      13.574   5.541  23.630  0.00  0.00    -0.480 OA
ATOM     15  H   UNK A   1      14.007   6.174  23.022  0.00  0.00    +0.295 HD
ENDBRANCH  12  14
ENDBRANCH   8  12
ENDBRANCH   7   8
ENDBRANCH   6   7
ENDBRANCH   2   6
ENDBRANCH   1   3
BRANCH   1  16
ATOM     16  C   UNK A   1       8.581   1.598  22.281  0.00  0.00    +0.235 C 
ATOM     17  N   GLY A   2       8.220   0.280  22.200  0.00  0.00    -0.303 N 
ATOM     18  H   GLY A   2       7.236   0.029  22.320  0.00  0.00    +0.149 HD
ATOM     19  O   UNK A   1       9.659   1.974  21.823  0.00  0.00    -0.274 OA
BRANCH  17  20
ATOM     20  CA  GLY A   2       9.141  -0.816  21.878  0.00  0.00    +0.224 C 
BRANCH  20  21
ATOM     21  C   GLY A   2      10.199  -1.279  22.893  0.00  0.00    +0.322 C 
ATOM     22  OXT GLY A   2      10.615  -2.429  22.958  0.00  0.00    -0.249 OA
BRANCH  21  23
ATOM     23  O   GLY A   2      10.556  -0.360  23.813  0.00  0.00    -0.480 OA
ATOM     24  H   GLY A   2       9.818   0.286  23.897  0.00  0.00    +0.295 HD
ENDBRANCH  21  23
ENDBRANCH  20  21
ENDBRANCH  17  20
ENDBRANCH   1  16
BRANCH   1  25
ATOM     25  C   UNK A   1       6.752   1.904  24.042  0.00  0.00    +0.105 C 
BRANCH  25  26
ATOM     26  S   UNK A   1       7.578   2.128  25.662  0.00  0.00    -0.099 S 
BRANCH  26  27
ATOM     27  C   UNK A   1       7.483   0.435  26.308  0.00  0.00    +0.310 C 
BRANCH  27  28
ATOM     28  O   UNK A   1       8.065   0.377  27.596  0.00  0.00    -0.359 OA
ATOM     29  H   UNK A   1       7.364   0.076  28.194  0.00  0.00    +0.213 HD
ENDBRANCH  27  28
BRANCH  27  30
ATOM     30  O   UNK A   1       8.100  -0.508  25.445  0.00  0.00    -0.338 OA
BRANCH  30  31
ATOM     31  C   UNK A   1       8.032  -1.832  25.972  0.00  0.00    +0.199 C 
BRANCH  31  32
ATOM     32  C   UNK A   1       7.588  -2.786  24.892  0.00  0.00    -0.021 A 
ATOM     33  C   UNK A   1       6.580  -2.413  23.989  0.00  0.00    +0.012 A 
ATOM     34  C   UNK A   1       6.189  -3.274  22.962  0.00  0.00    +0.084 A 
ATOM     35  C   UNK A   1       6.808  -4.522  22.835  0.00  0.00    +0.273 A 
ATOM     36  C   UNK A   1       7.791  -4.924  23.747  0.00  0.00    +0.084 A 
ATOM     37  C   UNK A   1       8.176  -4.056  24.773  0.00  0.00    +0.012 A 
BRANCH  35  38
ATOM     38  N   UNK A   1       6.445  -5.408  21.723  0.00  0.00    +0.080 N 
ATOM     39  O   UNK A   1       6.739  -6.607  21.818  0.00  0.00    +0.041 OA
ATOM     40  O   UNK A   1       5.857  -4.905  20.753  0.00  0.00    -0.576 OA
ENDBRANCH  35  38
ENDBRANCH  31  32
ENDBRANCH  30  31
ENDBRANCH  27  30
ENDBRANCH  26  27
ENDBRANCH  25  26
ENDBRANCH   1  25
TORSDOF 19
ENDMDL
MODEL 6
REMARK VINA RESULT:      -6.2      1.762      2.872
REMARK  Name = 
REMARK  19 active torsions:
REMARK  status: ('A' for Active; 'I' for Inactive)
REMARK    1  A    between atoms: N_1  and  C_2
REMARK    2  A    between atoms: C_2  and  C_4
REMARK    3  A    between atoms: C_2  and  C_34
REMARK    4  A    between atoms: C_4  and  C_5
REMARK    5  A    between atoms: C_5  and  C_6
REMARK    6  A    between atoms: N_8  and  C_9
REMARK    7  A    between atoms: C_9  and  C_11
REMARK    8  A    between atoms: C_9  and  C_27
REMARK    9  A    between atoms: C_11  and  S_12
REMARK   10  A    between atoms: S_12  and  C_13
REMARK   11  A    between atoms: C_13  and  O_15
REMARK   12  A    between atoms: C_13  and  O_16
REMARK   13  A    between atoms: O_16  and  C_17
REMARK   14  A    between atoms: C_17  and  C_18
REMARK   15  A    between atoms: C_21  and  N_24
REMARK   16  A    between atoms: N_29  and  CA_30
REMARK   17  A    between atoms: CA_30  and  C_31
REMARK   18  A    between atoms: C_31  and  O_32
REMARK   19  A    between atoms: C_34  and  O_35
REMARK                            x       y       z     vdW  Elec       q    Type
REMARK                         _______ _______ _______ _____ _____    ______ ____
ROOT
ATOM      1  C   UNK A   1       8.020  -3.565  26.181  0.00  0.00    +0.169 C 
ENDROOT
BRANCH   1   3
ATOM      2  C   UNK A   1       6.470  -5.531  26.367  0.00  0.00    +0.214 C 
ATOM      3  N   UNK A   1       6.802  -4.326  25.790  0.00  0.00    -0.303 N 
ATOM      4  H   UNK A   1       6.254  -3.966  25.022  0.00  0.00    +0.149 HD
ATOM      5  O   UNK A   1       7.135  -6.025  27.272  0.00  0.00    -0.276 OA
BRANCH   2   6
ATOM      6  C   UNK A   1       5.213  -6.222  25.839  0.00  0.00    +0.098 C 
BRANCH   6   7
ATOM      7  C   UNK A   1       5.214  -6.670  24.369  0.00  0.00    +0.039 C 
BRANCH   7   8
ATOM      8  C   UNK A   1       4.687  -5.668  23.324  0.00  0.00    +0.161 C 
BRANCH   8   9
ATOM      9  N   UNK A   1       3.451  -6.063  22.660  0.00  0.00    -0.318 NA
ATOM     10  H   UNK A   1       3.614  -6.297  21.680  0.00  0.00    +0.119 HD
ATOM     11  H   UNK A   1       3.011  -6.857  23.117  0.00  0.00    +0.119 HD
ENDBRANCH   8   9
BRANCH   8  12
ATOM     12  C   UNK A   1       5.792  -5.380  22.306  0.00  0.00    +0.322 C 
ATOM     13  O   UNK A   1       6.771  -6.070  22.081  0.00  0.00    -0.249 OA
BRANCH  12  14
ATOM     14  O   UNK A   1       5.618  -4.155  21.742  0.00  0.00    -0.480 OA
ATOM     15  H   UNK A   1       6.095  -3.438  22.208  0.00  0.00    +0.295 HD
ENDBRANCH  12  14
ENDBRANCH   8  12
ENDBRANCH   7   8
ENDBRANCH   6   7
ENDBRANCH   2   6
ENDBRANCH   1   3
BRANCH   1  16
ATOM     16  C   UNK A   1       8.990  -3.466  24.966  0.00  0.00    +0.235 C 
ATOM     17  N   GLY A   2       9.261  -2.207  24.504  0.00  0.00    -0.303 N 
ATOM     18  H   GLY A   2       9.005  -1.402  25.081  0.00  0.00    +0.149 HD
ATOM     19  O   UNK A   1       9.565  -4.440  24.483  0.00  0.00    -0.274 OA
BRANCH  17  20
ATOM     20  CA  GLY A   2       9.969  -1.915  23.252  0.00  0.00    +0.224 C 
BRANCH  20  21
ATOM     21  C   GLY A   2       9.191  -1.660  21.949  0.00  0.00    +0.322 C 
ATOM     22  OXT GLY A   2       8.167  -2.260  21.645  0.00  0.00    -0.249 OA
BRANCH  21  23
ATOM     23  O   GLY A   2       9.784  -0.815  21.081  0.00  0.00    -0.480 OA
ATOM     24  H   GLY A   2      10.487  -0.327  21.567  0.00  0.00    +0.295 HD
ENDBRANCH  21  23
ENDBRANCH  20  21
ENDBRANCH  17  20
ENDBRANCH   1  16
BRANCH   1  25
ATOM     25  C   UNK A   1       7.637  -2.155  26.695  0.00  0.00    +0.105 C 
BRANCH  25  26
ATOM     26  S   UNK A   1       5.878  -1.737  26.392  0.00  0.00    -0.099 S 
BRANCH  26  27
ATOM     27  C   UNK A   1       6.000  -1.019  24.730  0.00  0.00    +0.310 C 
BRANCH  27  28
ATOM     28  O   UNK A   1       6.083  -2.049  23.765  0.00  0.00    -0.359 OA
ATOM     29  H   UNK A   1       5.643  -2.819  24.156  0.00  0.00    +0.213 HD
ENDBRANCH  27  28
BRANCH  27  30
ATOM     30  O   UNK A   1       7.102  -0.133  24.604  0.00  0.00    -0.338 OA
BRANCH  30  31
ATOM     31  C   UNK A   1       6.923   0.784  23.525  0.00  0.00    +0.199 C 
BRANCH  31  32
ATOM     32  C   UNK A   1       7.972   1.865  23.600  0.00  0.00    -0.021 A 
ATOM     33  C   UNK A   1       9.284   1.552  23.986  0.00  0.00    +0.012 A 
ATOM     34  C   UNK A   1      10.271   2.540  24.021  0.00  0.00    +0.084 A 
ATOM     35  C   UNK A   1       9.945   3.854  23.670  0.00  0.00    +0.273 A 
ATOM     36  C   UNK A   1       8.632   4.190  23.316  0.00  0.00    +0.084 A 
ATOM     37  C   UNK A   1       7.651   3.195  23.284  0.00  0.00    +0.012 A 
BRANCH  35  38
ATOM     38  N   UNK A   1      10.989   4.885  23.648  0.00  0.00    +0.080 N 
ATOM     39  O   UNK A   1      12.051   4.620  23.070  0.00  0.00    +0.041 OA
ATOM     40  O   UNK A   1      10.743   5.967  24.203  0.00  0.00    -0.576 OA
ENDBRANCH  35  38
ENDBRANCH  31  32
ENDBRANCH  30  31
ENDBRANCH  27  30
ENDBRANCH  26  27
ENDBRANCH  25  26
ENDBRANCH   1  25
TORSDOF 19
ENDMDL
MODEL 7
REMARK VINA RESULT:      -6.1      2.282      5.384
REMARK  Name = 
REMARK  19 active torsions:
REMARK  status: ('A' for Active; 'I' for Inactive)
REMARK    1  A    between atoms: N_1  and  C_2
REMARK    2  A    between atoms: C_2  and  C_4
REMARK    3  A    between atoms: C_2  and  C_34
REMARK    4  A    between atoms: C_4  and  C_5
REMARK    5  A    between atoms: C_5  and  C_6
REMARK    6  A    between atoms: N_8  and  C_9
REMARK    7  A    between atoms: C_9  and  C_11
REMARK    8  A    between atoms: C_9  and  C_27
REMARK    9  A    between atoms: C_11  and  S_12
REMARK   10  A    between atoms: S_12  and  C_13
REMARK   11  A    between atoms: C_13  and  O_15
REMARK   12  A    between atoms: C_13  and  O_16
REMARK   13  A    between atoms: O_16  and  C_17
REMARK   14  A    between atoms: C_17  and  C_18
REMARK   15  A    between atoms: C_21  and  N_24
REMARK   16  A    between atoms: N_29  and  CA_30
REMARK   17  A    between atoms: CA_30  and  C_31
REMARK   18  A    between atoms: C_31  and  O_32
REMARK   19  A    between atoms: C_34  and  O_35
REMARK                            x       y       z     vdW  Elec       q    Type
REMARK                         _______ _______ _______ _____ _____    ______ ____
ROOT
ATOM      1  C   UNK A   1       6.930  -3.987  25.750  0.00  0.00    +0.169 C 
ENDROOT
BRANCH   1   3
ATOM      2  C   UNK A   1       7.471  -1.626  26.408  0.00  0.00    +0.214 C 
ATOM      3  N   UNK A   1       6.553  -2.570  26.005  0.00  0.00    -0.303 N 
ATOM      4  H   UNK A   1       5.574  -2.330  25.947  0.00  0.00    +0.149 HD
ATOM      5  O   UNK A   1       8.663  -1.888  26.535  0.00  0.00    -0.276 OA
BRANCH   2   6
ATOM      6  C   UNK A   1       6.936  -0.218  26.674  0.00  0.00    +0.098 C 
BRANCH   6   7
ATOM      7  C   UNK A   1       7.344   0.892  25.694  0.00  0.00    +0.039 C 
BRANCH   7   8
ATOM      8  C   UNK A   1       6.342   1.256  24.581  0.00  0.00    +0.161 C 
BRANCH   8   9
ATOM      9  N   UNK A   1       6.205   0.261  23.525  0.00  0.00    -0.318 NA
ATOM     10  H   UNK A   1       6.373  -0.681  23.879  0.00  0.00    +0.119 HD
ATOM     11  H   UNK A   1       5.286   0.290  23.093  0.00  0.00    +0.119 HD
ENDBRANCH   8   9
BRANCH   8  12
ATOM     12  C   UNK A   1       6.711   2.625  24.005  0.00  0.00    +0.322 C 
ATOM     13  O   UNK A   1       6.561   2.993  22.852  0.00  0.00    -0.249 OA
BRANCH  12  14
ATOM     14  O   UNK A   1       7.363   3.376  24.931  0.00  0.00    -0.480 OA
ATOM     15  H   UNK A   1       8.133   3.862  24.569  0.00  0.00    +0.295 HD
ENDBRANCH  12  14
ENDBRANCH   8  12
ENDBRANCH   7   8
ENDBRANCH   6   7
ENDBRANCH   2   6
ENDBRANCH   1   3
BRANCH   1  16
ATOM     16  C   UNK A   1       6.771  -4.817  27.059  0.00  0.00    +0.235 C 
ATOM     17  N   GLY A   2       5.563  -4.727  27.696  0.00  0.00    -0.303 N 
ATOM     18  H   GLY A   2       4.772  -4.313  27.197  0.00  0.00    +0.149 HD
ATOM     19  O   UNK A   1       7.635  -5.587  27.476  0.00  0.00    -0.274 OA
BRANCH  17  20
ATOM     20  CA  GLY A   2       5.289  -5.252  29.038  0.00  0.00    +0.224 C 
BRANCH  20  21
ATOM     21  C   GLY A   2       4.905  -6.727  29.244  0.00  0.00    +0.322 C 
ATOM     22  OXT GLY A   2       4.302  -7.137  30.228  0.00  0.00    -0.249 OA
BRANCH  21  23
ATOM     23  O   GLY A   2       5.394  -7.583  28.325  0.00  0.00    -0.480 OA
ATOM     24  H   GLY A   2       5.713  -8.385  28.798  0.00  0.00    +0.295 HD
ENDBRANCH  21  23
ENDBRANCH  20  21
ENDBRANCH  17  20
ENDBRANCH   1  16
BRANCH   1  25
ATOM     25  C   UNK A   1       6.062  -4.583  24.614  0.00  0.00    +0.105 C 
BRANCH  25  26
ATOM     26  S   UNK A   1       5.499  -3.322  23.409  0.00  0.00    -0.099 S 
BRANCH  26  27
ATOM     27  C   UNK A   1       7.016  -3.106  22.436  0.00  0.00    +0.310 C 
BRANCH  27  28
ATOM     28  O   UNK A   1       7.607  -4.365  22.182  0.00  0.00    -0.359 OA
ATOM     29  H   UNK A   1       8.146  -4.571  22.961  0.00  0.00    +0.213 HD
ENDBRANCH  27  28
BRANCH  27  30
ATOM     30  O   UNK A   1       7.946  -2.241  23.072  0.00  0.00    -0.338 OA
BRANCH  30  31
ATOM     31  C   UNK A   1       9.031  -1.907  22.208  0.00  0.00    +0.199 C 
BRANCH  31  32
ATOM     32  C   UNK A   1       9.516  -0.513  22.520  0.00  0.00    -0.021 A 
ATOM     33  C   UNK A   1       9.308   0.529  21.603  0.00  0.00    +0.012 A 
ATOM     34  C   UNK A   1       9.720   1.831  21.899  0.00  0.00    +0.084 A 
ATOM     35  C   UNK A   1      10.347   2.095  23.121  0.00  0.00    +0.273 A 
ATOM     36  C   UNK A   1      10.593   1.060  24.032  0.00  0.00    +0.084 A 
ATOM     37  C   UNK A   1      10.178  -0.240  23.727  0.00  0.00    +0.012 A 
BRANCH  35  38
ATOM     38  N   UNK A   1      10.729   3.469  23.464  0.00  0.00    +0.080 N 
ATOM     39  O   UNK A   1      11.919   3.788  23.339  0.00  0.00    +0.041 OA
ATOM     40  O   UNK A   1       9.834   4.236  23.854  0.00  0.00    -0.576 OA
ENDBRANCH  35  38
ENDBRANCH  31  32
ENDBRANCH  30  31
ENDBRANCH  27  30
ENDBRANCH  26  27
ENDBRANCH  25  26
ENDBRANCH   1  25
TORSDOF 19
ENDMDL
MODEL 8
REMARK VINA RESULT:      -6.0      2.936      8.746
REMARK  Name = 
REMARK  19 active torsions:
REMARK  status: ('A' for Active; 'I' for Inactive)
REMARK    1  A    between atoms: N_1  and  C_2
REMARK    2  A    between atoms: C_2  and  C_4
REMARK    3  A    between atoms: C_2  and  C_34
REMARK    4  A    between atoms: C_4  and  C_5
REMARK    5  A    between atoms: C_5  and  C_6
REMARK    6  A    between atoms: N_8  and  C_9
REMARK    7  A    between atoms: C_9  and  C_11
REMARK    8  A    between atoms: C_9  and  C_27
REMARK    9  A    between atoms: C_11  and  S_12
REMARK   10  A    between atoms: S_12  and  C_13
REMARK   11  A    between atoms: C_13  and  O_15
REMARK   12  A    between atoms: C_13  and  O_16
REMARK   13  A    between atoms: O_16  and  C_17
REMARK   14  A    between atoms: C_17  and  C_18
REMARK   15  A    between atoms: C_21  and  N_24
REMARK   16  A    between atoms: N_29  and  CA_30
REMARK   17  A    between atoms: CA_30  and  C_31
REMARK   18  A    between atoms: C_31  and  O_32
REMARK   19  A    between atoms: C_34  and  O_35
REMARK                            x       y       z     vdW  Elec       q    Type
REMARK                         _______ _______ _______ _____ _____    ______ ____
ROOT
ATOM      1  C   UNK A   1       9.017   2.596  23.473  0.00  0.00    +0.169 C 
ENDROOT
BRANCH   1   3
ATOM      2  C   UNK A   1       6.786   2.355  24.598  0.00  0.00    +0.214 C 
ATOM      3  N   UNK A   1       8.160   2.369  24.670  0.00  0.00    -0.303 N 
ATOM      4  H   UNK A   1       8.621   2.298  25.566  0.00  0.00    +0.149 HD
ATOM      5  O   UNK A   1       6.187   2.483  23.535  0.00  0.00    -0.276 OA
BRANCH   2   6
ATOM      6  C   UNK A   1       6.032   2.152  25.914  0.00  0.00    +0.098 C 
BRANCH   6   7
ATOM      7  C   UNK A   1       6.852   2.179  27.212  0.00  0.00    +0.039 C 
BRANCH   7   8
ATOM      8  C   UNK A   1       7.089   0.834  27.927  0.00  0.00    +0.161 C 
BRANCH   8   9
ATOM      9  N   UNK A   1       7.984   0.895  29.075  0.00  0.00    -0.318 NA
ATOM     10  H   UNK A   1       8.624   1.687  29.006  0.00  0.00    +0.119 HD
ATOM     11  H   UNK A   1       7.474   0.962  29.952  0.00  0.00    +0.119 HD
ENDBRANCH   8   9
BRANCH   8  12
ATOM     12  C   UNK A   1       7.573  -0.197  26.904  0.00  0.00    +0.322 C 
ATOM     13  O   UNK A   1       6.935  -1.139  26.464  0.00  0.00    -0.249 OA
BRANCH  12  14
ATOM     14  O   UNK A   1       8.889  -0.011  26.621  0.00  0.00    -0.480 OA
ATOM     15  H   UNK A   1       9.202  -0.536  25.856  0.00  0.00    +0.295 HD
ENDBRANCH  12  14
ENDBRANCH   8  12
ENDBRANCH   7   8
ENDBRANCH   6   7
ENDBRANCH   2   6
ENDBRANCH   1   3
BRANCH   1  16
ATOM     16  C   UNK A   1       9.720   3.981  23.586  0.00  0.00    +0.235 C 
ATOM     17  N   GLY A   2      11.047   4.021  23.251  0.00  0.00    -0.303 N 
ATOM     18  H   GLY A   2      11.454   3.227  22.752  0.00  0.00    +0.149 HD
ATOM     19  O   UNK A   1       9.123   5.018  23.875  0.00  0.00    -0.274 OA
BRANCH  17  20
ATOM     20  CA  GLY A   2      11.932   5.166  23.494  0.00  0.00    +0.224 C 
BRANCH  20  21
ATOM     21  C   GLY A   2      13.224   5.348  22.680  0.00  0.00    +0.322 C 
ATOM     22  OXT GLY A   2      13.241   5.710  21.511  0.00  0.00    -0.249 OA
BRANCH  21  23
ATOM     23  O   GLY A   2      14.355   4.952  23.300  0.00  0.00    -0.480 OA
ATOM     24  H   GLY A   2      15.081   4.955  22.635  0.00  0.00    +0.295 HD
ENDBRANCH  21  23
ENDBRANCH  20  21
ENDBRANCH  17  20
ENDBRANCH   1  16
BRANCH   1  25
ATOM     25  C   UNK A   1      10.060   1.460  23.329  0.00  0.00    +0.105 C 
BRANCH  25  26
ATOM     26  S   UNK A   1       9.630   0.257  22.015  0.00  0.00    -0.099 S 
BRANCH  26  27
ATOM     27  C   UNK A   1       8.740  -0.984  22.995  0.00  0.00    +0.310 C 
BRANCH  27  28
ATOM     28  O   UNK A   1       7.495  -0.462  23.418  0.00  0.00    -0.359 OA
ATOM     29  H   UNK A   1       7.318  -0.859  24.285  0.00  0.00    +0.213 HD
ENDBRANCH  27  28
BRANCH  27  30
ATOM     30  O   UNK A   1       9.493  -1.432  24.112  0.00  0.00    -0.338 OA
BRANCH  30  31
ATOM     31  C   UNK A   1       9.883  -2.798  23.973  0.00  0.00    +0.199 C 
BRANCH  31  32
ATOM     32  C   UNK A   1       8.844  -3.689  24.606  0.00  0.00    -0.021 A 
ATOM     33  C   UNK A   1       8.852  -3.910  25.992  0.00  0.00    +0.012 A 
ATOM     34  C   UNK A   1       7.871  -4.703  26.593  0.00  0.00    +0.084 A 
ATOM     35  C   UNK A   1       6.874  -5.283  25.802  0.00  0.00    +0.273 A 
ATOM     36  C   UNK A   1       6.871  -5.100  24.413  0.00  0.00    +0.084 A 
ATOM     37  C   UNK A   1       7.857  -4.305  23.821  0.00  0.00    +0.012 A 
BRANCH  35  38
ATOM     38  N   UNK A   1       5.806  -6.068  26.432  0.00  0.00    +0.080 N 
ATOM     39  O   UNK A   1       4.713  -6.128  25.853  0.00  0.00    +0.041 OA
ATOM     40  O   UNK A   1       6.063  -6.632  27.506  0.00  0.00    -0.576 OA
ENDBRANCH  35  38
ENDBRANCH  31  32
ENDBRANCH  30  31
ENDBRANCH  27  30
ENDBRANCH  26  27
ENDBRANCH  25  26
ENDBRANCH   1  25
TORSDOF 19
ENDMDL
MODEL 9
REMARK VINA RESULT:      -6.0      2.622      7.886
REMARK  Name = 
REMARK  19 active torsions:
REMARK  status: ('A' for Active; 'I' for Inactive)
REMARK    1  A    between atoms: N_1  and  C_2
REMARK    2  A    between atoms: C_2  and  C_4
REMARK    3  A    between atoms: C_2  and  C_34
REMARK    4  A    between atoms: C_4  and  C_5
REMARK    5  A    between atoms: C_5  and  C_6
REMARK    6  A    between atoms: N_8  and  C_9
REMARK    7  A    between atoms: C_9  and  C_11
REMARK    8  A    between atoms: C_9  and  C_27
REMARK    9  A    between atoms: C_11  and  S_12
REMARK   10  A    between atoms: S_12  and  C_13
REMARK   11  A    between atoms: C_13  and  O_15
REMARK   12  A    between atoms: C_13  and  O_16
REMARK   13  A    between atoms: O_16  and  C_17
REMARK   14  A    between atoms: C_17  and  C_18
REMARK   15  A    between atoms: C_21  and  N_24
REMARK   16  A    between atoms: N_29  and  CA_30
REMARK   17  A    between atoms: CA_30  and  C_31
REMARK   18  A    between atoms: C_31  and  O_32
REMARK   19  A    between atoms: C_34  and  O_35
REMARK                            x       y       z     vdW  Elec       q    Type
REMARK                         _______ _______ _______ _____ _____    ______ ____
ROOT
ATOM      1  C   UNK A   1       7.939  -0.323  26.042  0.00  0.00    +0.169 C 
ENDROOT
BRANCH   1   3
ATOM      2  C   UNK A   1       6.545   1.407  24.874  0.00  0.00    +0.214 C 
ATOM      3  N   UNK A   1       7.375   0.310  24.818  0.00  0.00    -0.303 N 
ATOM      4  H   UNK A   1       7.560  -0.140  23.933  0.00  0.00    +0.149 HD
ATOM      5  O   UNK A   1       6.259   1.956  25.933  0.00  0.00    -0.276 OA
BRANCH   2   6
ATOM      6  C   UNK A   1       6.005   1.927  23.541  0.00  0.00    +0.098 C 
BRANCH   6   7
ATOM      7  C   UNK A   1       6.762   3.086  22.873  0.00  0.00    +0.039 C 
BRANCH   7   8
ATOM      8  C   UNK A   1       8.302   3.038  22.910  0.00  0.00    +0.161 C 
BRANCH   8   9
ATOM      9  N   UNK A   1       8.960   4.338  22.869  0.00  0.00    -0.318 NA
ATOM     10  H   UNK A   1       9.952   4.259  23.095  0.00  0.00    +0.119 HD
ATOM     11  H   UNK A   1       8.865   4.784  21.961  0.00  0.00    +0.119 HD
ENDBRANCH   8   9
BRANCH   8  12
ATOM     12  C   UNK A   1       8.801   2.131  21.782  0.00  0.00    +0.322 C 
ATOM     13  O   UNK A   1       8.146   1.303  21.172  0.00  0.00    -0.249 OA
BRANCH  12  14
ATOM     14  O   UNK A   1      10.142   2.271  21.612  0.00  0.00    -0.480 OA
ATOM     15  H   UNK A   1      10.388   3.042  21.060  0.00  0.00    +0.295 HD
ENDBRANCH  12  14
ENDBRANCH   8  12
ENDBRANCH   7   8
ENDBRANCH   6   7
ENDBRANCH   2   6
ENDBRANCH   1   3
BRANCH   1  16
ATOM     16  C   UNK A   1       7.076  -1.556  26.442  0.00  0.00    +0.235 C 
ATOM     17  N   GLY A   2       7.664  -2.784  26.301  0.00  0.00    -0.303 N 
ATOM     18  H   GLY A   2       8.675  -2.833  26.155  0.00  0.00    +0.149 HD
ATOM     19  O   UNK A   1       5.955  -1.460  26.940  0.00  0.00    -0.274 OA
BRANCH  17  20
ATOM     20  CA  GLY A   2       6.955  -4.064  26.415  0.00  0.00    +0.224 C 
BRANCH  20  21
ATOM     21  C   GLY A   2       7.727  -5.372  26.656  0.00  0.00    +0.322 C 
ATOM     22  OXT GLY A   2       8.405  -5.925  25.799  0.00  0.00    -0.249 OA
BRANCH  21  23
ATOM     23  O   GLY A   2       7.505  -5.959  27.850  0.00  0.00    -0.480 OA
ATOM     24  H   GLY A   2       7.185  -5.268  28.472  0.00  0.00    +0.295 HD
ENDBRANCH  21  23
ENDBRANCH  20  21
ENDBRANCH  17  20
ENDBRANCH   1  16
BRANCH   1  25
ATOM     25  C   UNK A   1       9.413  -0.737  25.808  0.00  0.00    +0.105 C 
BRANCH  25  26
ATOM     26  S   UNK A   1      10.127  -0.008  24.285  0.00  0.00    -0.099 S 
BRANCH  26  27
ATOM     27  C   UNK A   1      10.086  -1.454  23.188  0.00  0.00    +0.310 C 
BRANCH  27  28
ATOM     28  O   UNK A   1      10.044  -1.033  21.839  0.00  0.00    -0.359 OA
ATOM     29  H   UNK A   1      10.125  -1.837  21.304  0.00  0.00    +0.213 HD
ENDBRANCH  27  28
BRANCH  27  30
ATOM     30  O   UNK A   1       8.995  -2.316  23.471  0.00  0.00    -0.338 OA
BRANCH  30  31
ATOM     31  C   UNK A   1       8.006  -2.272  22.444  0.00  0.00    +0.199 C 
BRANCH  31  32
ATOM     32  C   UNK A   1       6.978  -3.349  22.683  0.00  0.00    -0.021 A 
ATOM     33  C   UNK A   1       7.339  -4.703  22.593  0.00  0.00    +0.012 A 
ATOM     34  C   UNK A   1       6.404  -5.708  22.850  0.00  0.00    +0.084 A 
ATOM     35  C   UNK A   1       5.094  -5.359  23.198  0.00  0.00    +0.273 A 
ATOM     36  C   UNK A   1       4.708  -4.014  23.258  0.00  0.00    +0.084 A 
ATOM     37  C   UNK A   1       5.651  -3.015  22.999  0.00  0.00    +0.012 A 
BRANCH  35  38
ATOM     38  N   UNK A   1       4.122  -6.408  23.527  0.00  0.00    +0.080 N 
ATOM     39  O   UNK A   1       3.000  -6.340  23.007  0.00  0.00    +0.041 OA
ATOM     40  O   UNK A   1       4.484  -7.306  24.302  0.00  0.00    -0.576 OA
ENDBRANCH  35  38
ENDBRANCH  31  32
ENDBRANCH  30  31
ENDBRANCH  27  30
ENDBRANCH  26  27
ENDBRANCH  25  26
ENDBRANCH   1  25
TORSDOF 19
ENDMDL
