MODEL 1
REMARK VINA RESULT:      -5.7      0.000      0.000
REMARK  Name = 
REMARK  7 active torsions:
REMARK  status: ('A' for Active; 'I' for Inactive)
REMARK    1  A    between atoms: C_1  and  C_2
REMARK    2  A    between atoms: C_2  and  N_3
REMARK    3  A    between atoms: C_2  and  C_4
REMARK    4  A    between atoms: C_2  and  C_12
REMARK    5  A    between atoms: C_4  and  C_5
REMARK    6  A    between atoms: C_8  and  O_9
REMARK    7  A    between atoms: C_12  and  O_13
REMARK                            x       y       z     vdW  Elec       q    Type
REMARK                         _______ _______ _______ _____ _____    ______ ____
ROOT
ATOM      1  C   UNL     1       7.859  -4.164  23.537  0.00  0.00    +0.040 C 
ATOM      2  C   UNL     1       8.740  -3.477  24.588  0.00  0.00    +0.116 C 
ENDROOT
BRANCH   2   3
ATOM      3  N   UNL     1       7.918  -2.463  25.292  0.00  0.00    -0.316 NA
ATOM      4  H   UNL     1       8.213  -2.247  26.240  0.00  0.00    +0.119 HD
ATOM      5  H   UNL     1       7.621  -1.679  24.721  0.00  0.00    +0.119 HD
ENDBRANCH   2   3
BRANCH   2   6
ATOM      6  C   UNL     1       9.214  -4.569  25.585  0.00  0.00    +0.325 C 
ATOM      7  O   UNL     1       8.732  -4.754  26.694  0.00  0.00    -0.249 OA
BRANCH   6   8
ATOM      8  O   UNL     1      10.239  -5.324  25.120  0.00  0.00    -0.479 OA
ATOM      9  H   UNL     1      10.640  -4.887  24.348  0.00  0.00    +0.295 HD
ENDBRANCH   6   8
ENDBRANCH   2   6
BRANCH   2  10
ATOM     10  C   UNL     1      10.027  -2.863  23.962  0.00  0.00    +0.068 C 
BRANCH  10  11
ATOM     11  C   UNL     1       9.929  -1.493  23.319  0.00  0.00    -0.045 A 
ATOM     12  C   UNL     1       9.479  -1.363  21.995  0.00  0.00    +0.007 A 
ATOM     13  C   UNL     1       9.431  -0.109  21.378  0.00  0.00    +0.045 A 
ATOM     14  C   UNL     1       9.825   1.022  22.079  0.00  0.00    +0.117 A 
ATOM     15  C   UNL     1      10.286   0.919  23.385  0.00  0.00    +0.045 A 
ATOM     16  C   UNL     1      10.349  -0.336  23.994  0.00  0.00    +0.007 A 
BRANCH  14  17
ATOM     17  O   UNL     1       9.753   2.227  21.447  0.00  0.00    -0.507 OA
ATOM     18  H   UNL     1       9.635   2.069  20.496  0.00  0.00    +0.292 HD
ENDBRANCH  14  17
ENDBRANCH  10  11
ENDBRANCH   2  10
TORSDOF 6
ENDMDL
MODEL 2
REMARK VINA RESULT:      -5.5      1.109      1.166
REMARK  Name = 
REMARK  7 active torsions:
REMARK  status: ('A' for Active; 'I' for Inactive)
REMARK    1  A    between atoms: C_1  and  C_2
REMARK    2  A    between atoms: C_2  and  N_3
REMARK    3  A    between atoms: C_2  and  C_4
REMARK    4  A    between atoms: C_2  and  C_12
REMARK    5  A    between atoms: C_4  and  C_5
REMARK    6  A    between atoms: C_8  and  O_9
REMARK    7  A    between atoms: C_12  and  O_13
REMARK                            x       y       z     vdW  Elec       q    Type
REMARK                         _______ _______ _______ _____ _____    ______ ____
ROOT
ATOM      1  C   UNL     1       7.363  -2.611  24.300  0.00  0.00    +0.040 C 
ATOM      2  C   UNL     1       8.604  -3.379  24.772  0.00  0.00    +0.116 C 
ENDROOT
BRANCH   2   3
ATOM      3  N   UNL     1       8.681  -3.274  26.249  0.00  0.00    -0.316 NA
ATOM      4  H   UNL     1       9.444  -3.788  26.681  0.00  0.00    +0.119 HD
ATOM      5  H   UNL     1       8.487  -2.352  26.625  0.00  0.00    +0.119 HD
ENDBRANCH   2   3
BRANCH   2   6
ATOM      6  C   UNL     1       8.422  -4.863  24.349  0.00  0.00    +0.325 C 
ATOM      7  O   UNL     1       7.406  -5.321  23.844  0.00  0.00    -0.249 OA
BRANCH   6   8
ATOM      8  O   UNL     1       9.507  -5.637  24.593  0.00  0.00    -0.479 OA
ATOM      9  H   UNL     1       9.319  -6.553  24.323  0.00  0.00    +0.295 HD
ENDBRANCH   6   8
ENDBRANCH   2   6
BRANCH   2  10
ATOM     10  C   UNL     1       9.903  -2.879  24.075  0.00  0.00    +0.068 C 
BRANCH  10  11
ATOM     11  C   UNL     1       9.888  -1.506  23.429  0.00  0.00    -0.045 A 
ATOM     12  C   UNL     1       9.582  -1.369  22.065  0.00  0.00    +0.007 A 
ATOM     13  C   UNL     1       9.611  -0.114  21.451  0.00  0.00    +0.045 A 
ATOM     14  C   UNL     1       9.941   1.012  22.192  0.00  0.00    +0.117 A 
ATOM     15  C   UNL     1      10.259   0.902  23.539  0.00  0.00    +0.045 A 
ATOM     16  C   UNL     1      10.245  -0.355  24.148  0.00  0.00    +0.007 A 
BRANCH  14  17
ATOM     17  O   UNL     1       9.948   2.219  21.560  0.00  0.00    -0.507 OA
ATOM     18  H   UNL     1      10.674   2.752  21.923  0.00  0.00    +0.292 HD
ENDBRANCH  14  17
ENDBRANCH  10  11
ENDBRANCH   2  10
TORSDOF 6
ENDMDL
MODEL 3
REMARK VINA RESULT:      -5.1      1.971      5.622
REMARK  Name = 
REMARK  7 active torsions:
REMARK  status: ('A' for Active; 'I' for Inactive)
REMARK    1  A    between atoms: C_1  and  C_2
REMARK    2  A    between atoms: C_2  and  N_3
REMARK    3  A    between atoms: C_2  and  C_4
REMARK    4  A    between atoms: C_2  and  C_12
REMARK    5  A    between atoms: C_4  and  C_5
REMARK    6  A    between atoms: C_8  and  O_9
REMARK    7  A    between atoms: C_12  and  O_13
REMARK                            x       y       z     vdW  Elec       q    Type
REMARK                         _______ _______ _______ _____ _____    ______ ____
ROOT
ATOM      1  C   UNL     1       7.241  -0.298  23.022  0.00  0.00    +0.040 C 
ATOM      2  C   UNL     1       8.343  -1.344  22.818  0.00  0.00    +0.116 C 
ENDROOT
BRANCH   2   3
ATOM      3  N   UNL     1       7.715  -2.588  22.312  0.00  0.00    -0.316 NA
ATOM      4  H   UNL     1       7.065  -3.037  22.951  0.00  0.00    +0.119 HD
ATOM      5  H   UNL     1       7.446  -2.567  21.334  0.00  0.00    +0.119 HD
ENDBRANCH   2   3
BRANCH   2   6
ATOM      6  C   UNL     1       9.334  -0.778  21.766  0.00  0.00    +0.325 C 
ATOM      7  O   UNL     1       9.225   0.315  21.226  0.00  0.00    -0.249 OA
BRANCH   6   8
ATOM      8  O   UNL     1      10.361  -1.614  21.477  0.00  0.00    -0.479 OA
ATOM      9  H   UNL     1      10.428  -2.296  22.168  0.00  0.00    +0.295 HD
ENDBRANCH   6   8
ENDBRANCH   2   6
BRANCH   2  10
ATOM     10  C   UNL     1       9.170  -1.585  24.116  0.00  0.00    +0.068 C 
BRANCH  10  11
ATOM     11  C   UNL     1       8.811  -2.775  24.985  0.00  0.00    -0.045 A 
ATOM     12  C   UNL     1       7.797  -2.666  25.951  0.00  0.00    +0.007 A 
ATOM     13  C   UNL     1       7.492  -3.743  26.789  0.00  0.00    +0.045 A 
ATOM     14  C   UNL     1       8.191  -4.936  26.665  0.00  0.00    +0.117 A 
ATOM     15  C   UNL     1       9.206  -5.066  25.726  0.00  0.00    +0.045 A 
ATOM     16  C   UNL     1       9.520  -3.983  24.901  0.00  0.00    +0.007 A 
BRANCH  14  17
ATOM     17  O   UNL     1       7.856  -5.966  27.491  0.00  0.00    -0.507 OA
ATOM     18  H   UNL     1       6.893  -5.959  27.618  0.00  0.00    +0.292 HD
ENDBRANCH  14  17
ENDBRANCH  10  11
ENDBRANCH   2  10
TORSDOF 6
ENDMDL
MODEL 4
REMARK VINA RESULT:      -5.0      2.166      2.901
REMARK  Name = 
REMARK  7 active torsions:
REMARK  status: ('A' for Active; 'I' for Inactive)
REMARK    1  A    between atoms: C_1  and  C_2
REMARK    2  A    between atoms: C_2  and  N_3
REMARK    3  A    between atoms: C_2  and  C_4
REMARK    4  A    between atoms: C_2  and  C_12
REMARK    5  A    between atoms: C_4  and  C_5
REMARK    6  A    between atoms: C_8  and  O_9
REMARK    7  A    between atoms: C_12  and  O_13
REMARK                            x       y       z     vdW  Elec       q    Type
REMARK                         _______ _______ _______ _____ _____    ______ ____
ROOT
ATOM      1  C   UNL     1       8.577  -1.731  24.981  0.00  0.00    +0.040 C 
ATOM      2  C   UNL     1       9.073  -2.623  23.836  0.00  0.00    +0.116 C 
ENDROOT
BRANCH   2   3
ATOM      3  N   UNL     1       9.515  -3.916  24.413  0.00  0.00    -0.316 NA
ATOM      4  H   UNL     1      10.453  -4.209  24.154  0.00  0.00    +0.119 HD
ATOM      5  H   UNL     1       9.244  -4.071  25.378  0.00  0.00    +0.119 HD
ENDBRANCH   2   3
BRANCH   2   6
ATOM      6  C   UNL     1       7.879  -2.848  22.870  0.00  0.00    +0.325 C 
ATOM      7  O   UNL     1       7.686  -3.874  22.231  0.00  0.00    -0.249 OA
BRANCH   6   8
ATOM      8  O   UNL     1       7.041  -1.787  22.781  0.00  0.00    -0.479 OA
ATOM      9  H   UNL     1       6.245  -1.957  23.315  0.00  0.00    +0.295 HD
ENDBRANCH   6   8
ENDBRANCH   2   6
BRANCH   2  10
ATOM     10  C   UNL     1      10.193  -1.935  23.000  0.00  0.00    +0.068 C 
BRANCH  10  11
ATOM     11  C   UNL     1      10.236  -0.420  22.969  0.00  0.00    -0.045 A 
ATOM     12  C   UNL     1      10.741   0.296  24.067  0.00  0.00    +0.007 A 
ATOM     13  C   UNL     1      10.742   1.694  24.068  0.00  0.00    +0.045 A 
ATOM     14  C   UNL     1      10.244   2.386  22.972  0.00  0.00    +0.117 A 
ATOM     15  C   UNL     1       9.728   1.703  21.879  0.00  0.00    +0.045 A 
ATOM     16  C   UNL     1       9.714   0.306  21.888  0.00  0.00    +0.007 A 
BRANCH  14  17
ATOM     17  O   UNL     1      10.273   3.748  23.005  0.00  0.00    -0.507 OA
ATOM     18  H   UNL     1      10.456   4.030  23.917  0.00  0.00    +0.292 HD
ENDBRANCH  14  17
ENDBRANCH  10  11
ENDBRANCH   2  10
TORSDOF 6
ENDMDL
MODEL 5
REMARK VINA RESULT:      -5.0      2.113      5.523
REMARK  Name = 
REMARK  7 active torsions:
REMARK  status: ('A' for Active; 'I' for Inactive)
REMARK    1  A    between atoms: C_1  and  C_2
REMARK    2  A    between atoms: C_2  and  N_3
REMARK    3  A    between atoms: C_2  and  C_4
REMARK    4  A    between atoms: C_2  and  C_12
REMARK    5  A    between atoms: C_4  and  C_5
REMARK    6  A    between atoms: C_8  and  O_9
REMARK    7  A    between atoms: C_12  and  O_13
REMARK                            x       y       z     vdW  Elec       q    Type
REMARK                         _______ _______ _______ _____ _____    ______ ____
ROOT
ATOM      1  C   UNL     1       7.911   0.679  23.159  0.00  0.00    +0.040 C 
ATOM      2  C   UNL     1       9.105   0.780  22.202  0.00  0.00    +0.116 C 
ENDROOT
BRANCH   2   3
ATOM      3  N   UNL     1       8.665   1.502  20.984  0.00  0.00    -0.316 NA
ATOM      4  H   UNL     1       9.259   1.382  20.169  0.00  0.00    +0.119 HD
ATOM      5  H   UNL     1       7.664   1.495  20.818  0.00  0.00    +0.119 HD
ENDBRANCH   2   3
BRANCH   2   6
ATOM      6  C   UNL     1      10.217   1.583  22.928  0.00  0.00    +0.325 C 
ATOM      7  O   UNL     1      10.767   1.229  23.963  0.00  0.00    -0.249 OA
BRANCH   6   8
ATOM      8  O   UNL     1      10.542   2.747  22.313  0.00  0.00    -0.479 OA
ATOM      9  H   UNL     1      10.703   2.579  21.368  0.00  0.00    +0.295 HD
ENDBRANCH   6   8
ENDBRANCH   2   6
BRANCH   2  10
ATOM     10  C   UNL     1       9.713  -0.616  21.874  0.00  0.00    +0.068 C 
BRANCH  10  11
ATOM     11  C   UNL     1       9.202  -1.819  22.643  0.00  0.00    -0.045 A 
ATOM     12  C   UNL     1       9.897  -2.284  23.772  0.00  0.00    +0.007 A 
ATOM     13  C   UNL     1       9.461  -3.421  24.459  0.00  0.00    +0.045 A 
ATOM     14  C   UNL     1       8.328  -4.097  24.029  0.00  0.00    +0.117 A 
ATOM     15  C   UNL     1       7.631  -3.666  22.909  0.00  0.00    +0.045 A 
ATOM     16  C   UNL     1       8.077  -2.539  22.214  0.00  0.00    +0.007 A 
BRANCH  14  17
ATOM     17  O   UNL     1       7.928  -5.194  24.732  0.00  0.00    -0.507 OA
ATOM     18  H   UNL     1       7.009  -5.396  24.491  0.00  0.00    +0.292 HD
ENDBRANCH  14  17
ENDBRANCH  10  11
ENDBRANCH   2  10
TORSDOF 6
ENDMDL
MODEL 6
REMARK VINA RESULT:      -5.0      1.771      5.469
REMARK  Name = 
REMARK  7 active torsions:
REMARK  status: ('A' for Active; 'I' for Inactive)
REMARK    1  A    between atoms: C_1  and  C_2
REMARK    2  A    between atoms: C_2  and  N_3
REMARK    3  A    between atoms: C_2  and  C_4
REMARK    4  A    between atoms: C_2  and  C_12
REMARK    5  A    between atoms: C_4  and  C_5
REMARK    6  A    between atoms: C_8  and  O_9
REMARK    7  A    between atoms: C_12  and  O_13
REMARK                            x       y       z     vdW  Elec       q    Type
REMARK                         _______ _______ _______ _____ _____    ______ ____
ROOT
ATOM      1  C   UNL     1      10.750   1.492  24.063  0.00  0.00    +0.040 C 
ATOM      2  C   UNL     1       9.701   0.717  23.255  0.00  0.00    +0.116 C 
ENDROOT
BRANCH   2   3
ATOM      3  N   UNL     1       8.497   0.544  24.101  0.00  0.00    -0.316 NA
ATOM      4  H   UNL     1       8.657   0.609  25.102  0.00  0.00    +0.119 HD
ATOM      5  H   UNL     1       7.655   0.987  23.748  0.00  0.00    +0.119 HD
ENDBRANCH   2   3
BRANCH   2   6
ATOM      6  C   UNL     1       9.358   1.567  22.001  0.00  0.00    +0.325 C 
ATOM      7  O   UNL     1       8.285   1.535  21.413  0.00  0.00    -0.249 OA
BRANCH   6   8
ATOM      8  O   UNL     1      10.370   2.371  21.592  0.00  0.00    -0.479 OA
ATOM      9  H   UNL     1      10.028   3.024  20.956  0.00  0.00    +0.295 HD
ENDBRANCH   6   8
ENDBRANCH   2   6
BRANCH   2  10
ATOM     10  C   UNL     1      10.254  -0.640  22.728  0.00  0.00    +0.068 C 
BRANCH  10  11
ATOM     11  C   UNL     1       9.449  -1.896  22.999  0.00  0.00    -0.045 A 
ATOM     12  C   UNL     1       8.339  -2.213  22.198  0.00  0.00    +0.007 A 
ATOM     13  C   UNL     1       7.563  -3.343  22.470  0.00  0.00    +0.045 A 
ATOM     14  C   UNL     1       7.890  -4.167  23.538  0.00  0.00    +0.117 A 
ATOM     15  C   UNL     1       8.975  -3.870  24.352  0.00  0.00    +0.045 A 
ATOM     16  C   UNL     1       9.740  -2.731  24.089  0.00  0.00    +0.007 A 
BRANCH  14  17
ATOM     17  O   UNL     1       7.116  -5.265  23.763  0.00  0.00    -0.507 OA
ATOM     18  H   UNL     1       7.685  -6.053  23.743  0.00  0.00    +0.292 HD
ENDBRANCH  14  17
ENDBRANCH  10  11
ENDBRANCH   2  10
TORSDOF 6
ENDMDL
MODEL 7
REMARK VINA RESULT:      -4.9      2.614      5.955
REMARK  Name = 
REMARK  7 active torsions:
REMARK  status: ('A' for Active; 'I' for Inactive)
REMARK    1  A    between atoms: C_1  and  C_2
REMARK    2  A    between atoms: C_2  and  N_3
REMARK    3  A    between atoms: C_2  and  C_4
REMARK    4  A    between atoms: C_2  and  C_12
REMARK    5  A    between atoms: C_4  and  C_5
REMARK    6  A    between atoms: C_8  and  O_9
REMARK    7  A    between atoms: C_12  and  O_13
REMARK                            x       y       z     vdW  Elec       q    Type
REMARK                         _______ _______ _______ _____ _____    ______ ____
ROOT
ATOM      1  C   UNL     1       8.157   2.124  23.191  0.00  0.00    +0.040 C 
ATOM      2  C   UNL     1       9.654   2.459  23.176  0.00  0.00    +0.116 C 
ENDROOT
BRANCH   2   3
ATOM      3  N   UNL     1      10.130   2.396  21.773  0.00  0.00    -0.316 NA
ATOM      4  H   UNL     1      10.376   1.469  21.439  0.00  0.00    +0.119 HD
ATOM      5  H   UNL     1       9.630   2.993  21.122  0.00  0.00    +0.119 HD
ENDBRANCH   2   3
BRANCH   2   6
ATOM      6  C   UNL     1       9.813   3.900  23.732  0.00  0.00    +0.325 C 
ATOM      7  O   UNL     1       9.039   4.432  24.516  0.00  0.00    -0.249 OA
BRANCH   6   8
ATOM      8  O   UNL     1      10.909   4.548  23.265  0.00  0.00    -0.479 OA
ATOM      9  H   UNL     1      10.941   5.444  23.643  0.00  0.00    +0.295 HD
ENDBRANCH   6   8
ENDBRANCH   2   6
BRANCH   2  10
ATOM     10  C   UNL     1      10.472   1.530  24.120  0.00  0.00    +0.068 C 
BRANCH  10  11
ATOM     11  C   UNL     1      10.124   0.054  24.153  0.00  0.00    -0.045 A 
ATOM     12  C   UNL     1      10.461  -0.777  23.071  0.00  0.00    +0.007 A 
ATOM     13  C   UNL     1      10.102  -2.127  23.072  0.00  0.00    +0.045 A 
ATOM     14  C   UNL     1       9.411  -2.660  24.152  0.00  0.00    +0.117 A 
ATOM     15  C   UNL     1       9.056  -1.857  25.227  0.00  0.00    +0.045 A 
ATOM     16  C   UNL     1       9.401  -0.504  25.218  0.00  0.00    +0.007 A 
BRANCH  14  17
ATOM     17  O   UNL     1       9.090  -3.983  24.119  0.00  0.00    -0.507 OA
ATOM     18  H   UNL     1       8.279  -4.090  23.595  0.00  0.00    +0.292 HD
ENDBRANCH  14  17
ENDBRANCH  10  11
ENDBRANCH   2  10
TORSDOF 6
ENDMDL
MODEL 8
REMARK VINA RESULT:      -4.9      2.369      3.297
REMARK  Name = 
REMARK  7 active torsions:
REMARK  status: ('A' for Active; 'I' for Inactive)
REMARK    1  A    between atoms: C_1  and  C_2
REMARK    2  A    between atoms: C_2  and  N_3
REMARK    3  A    between atoms: C_2  and  C_4
REMARK    4  A    between atoms: C_2  and  C_12
REMARK    5  A    between atoms: C_4  and  C_5
REMARK    6  A    between atoms: C_8  and  O_9
REMARK    7  A    between atoms: C_12  and  O_13
REMARK                            x       y       z     vdW  Elec       q    Type
REMARK                         _______ _______ _______ _____ _____    ______ ____
ROOT
ATOM      1  C   UNL     1       8.223  -0.570  22.962  0.00  0.00    +0.040 C 
ATOM      2  C   UNL     1       8.931  -1.202  24.168  0.00  0.00    +0.116 C 
ENDROOT
BRANCH   2   3
ATOM      3  N   UNL     1       7.906  -1.852  25.019  0.00  0.00    -0.316 NA
ATOM      4  H   UNL     1       6.954  -1.805  24.666  0.00  0.00    +0.119 HD
ATOM      5  H   UNL     1       8.190  -2.732  25.437  0.00  0.00    +0.119 HD
ENDBRANCH   2   3
BRANCH   2   6
ATOM      6  C   UNL     1       9.925  -2.262  23.621  0.00  0.00    +0.325 C 
ATOM      7  O   UNL     1      10.103  -3.367  24.115  0.00  0.00    -0.249 OA
BRANCH   6   8
ATOM      8  O   UNL     1      10.605  -1.857  22.521  0.00  0.00    -0.479 OA
ATOM      9  H   UNL     1      10.798  -2.627  21.957  0.00  0.00    +0.295 HD
ENDBRANCH   6   8
ENDBRANCH   2   6
BRANCH   2  10
ATOM     10  C   UNL     1       9.783  -0.165  24.957  0.00  0.00    +0.068 C 
BRANCH  10  11
ATOM     11  C   UNL     1       9.738   1.285  24.515  0.00  0.00    -0.045 A 
ATOM     12  C   UNL     1      10.786   1.825  23.751  0.00  0.00    +0.007 A 
ATOM     13  C   UNL     1      10.777   3.173  23.380  0.00  0.00    +0.045 A 
ATOM     14  C   UNL     1       9.721   3.989  23.763  0.00  0.00    +0.117 A 
ATOM     15  C   UNL     1       8.680   3.483  24.529  0.00  0.00    +0.045 A 
ATOM     16  C   UNL     1       8.699   2.140  24.913  0.00  0.00    +0.007 A 
BRANCH  14  17
ATOM     17  O   UNL     1       9.743   5.294  23.372  0.00  0.00    -0.507 OA
ATOM     18  H   UNL     1      10.098   5.828  24.102  0.00  0.00    +0.292 HD
ENDBRANCH  14  17
ENDBRANCH  10  11
ENDBRANCH   2  10
TORSDOF 6
ENDMDL
MODEL 9
REMARK VINA RESULT:      -4.9      1.860      5.688
REMARK  Name = 
REMARK  7 active torsions:
REMARK  status: ('A' for Active; 'I' for Inactive)
REMARK    1  A    between atoms: C_1  and  C_2
REMARK    2  A    between atoms: C_2  and  N_3
REMARK    3  A    between atoms: C_2  and  C_4
REMARK    4  A    between atoms: C_2  and  C_12
REMARK    5  A    between atoms: C_4  and  C_5
REMARK    6  A    between atoms: C_8  and  O_9
REMARK    7  A    between atoms: C_12  and  O_13
REMARK                            x       y       z     vdW  Elec       q    Type
REMARK                         _______ _______ _______ _____ _____    ______ ____
ROOT
ATOM      1  C   UNL     1       7.980   0.279  22.839  0.00  0.00    +0.040 C 
ATOM      2  C   UNL     1       9.505   0.208  22.692  0.00  0.00    +0.116 C 
ENDROOT
BRANCH   2   3
ATOM      3  N   UNL     1       9.818  -0.531  21.446  0.00  0.00    -0.316 NA
ATOM      4  H   UNL     1       9.017  -0.769  20.869  0.00  0.00    +0.119 HD
ATOM      5  H   UNL     1      10.649  -0.216  20.956  0.00  0.00    +0.119 HD
ENDBRANCH   2   3
BRANCH   2   6
ATOM      6  C   UNL     1      10.033   1.665  22.598  0.00  0.00    +0.325 C 
ATOM      7  O   UNL     1      10.565   2.272  23.518  0.00  0.00    -0.249 OA
BRANCH   6   8
ATOM      8  O   UNL     1       9.850   2.235  21.382  0.00  0.00    -0.479 OA
ATOM      9  H   UNL     1      10.710   2.522  21.026  0.00  0.00    +0.295 HD
ENDBRANCH   6   8
ENDBRANCH   2   6
BRANCH   2  10
ATOM     10  C   UNL     1      10.185  -0.427  23.942  0.00  0.00    +0.068 C 
BRANCH  10  11
ATOM     11  C   UNL     1       9.508  -1.613  24.601  0.00  0.00    -0.045 A 
ATOM     12  C   UNL     1       8.761  -1.438  25.777  0.00  0.00    +0.007 A 
ATOM     13  C   UNL     1       8.174  -2.532  26.419  0.00  0.00    +0.045 A 
ATOM     14  C   UNL     1       8.323  -3.806  25.889  0.00  0.00    +0.117 A 
ATOM     15  C   UNL     1       9.068  -4.008  24.735  0.00  0.00    +0.045 A 
ATOM     16  C   UNL     1       9.667  -2.916  24.104  0.00  0.00    +0.007 A 
BRANCH  14  17
ATOM     17  O   UNL     1       7.726  -4.846  26.537  0.00  0.00    -0.507 OA
ATOM     18  H   UNL     1       6.895  -4.529  26.927  0.00  0.00    +0.292 HD
ENDBRANCH  14  17
ENDBRANCH  10  11
ENDBRANCH   2  10
TORSDOF 6
ENDMDL
