MODEL 1
REMARK VINA RESULT:      -5.7      0.000      0.000
REMARK  Name = 
REMARK  21 active torsions:
REMARK  status: ('A' for Active; 'I' for Inactive)
REMARK    1  A    between atoms: C_1  and  C_2
REMARK    2  A    between atoms: C_2  and  C_3
REMARK    3  A    between atoms: C_3  and  C_4
REMARK    4  A    between atoms: C_4  and  C_5
REMARK    5  A    between atoms: C_5  and  C_6
REMARK    6  A    between atoms: C_6  and  C_7
REMARK    7  A    between atoms: C_7  and  C_8
REMARK    8  A    between atoms: C_8  and  C_9
REMARK    9  A    between atoms: C_9  and  C_10
REMARK   10  A    between atoms: C_10  and  C_11
REMARK   11  A    between atoms: C_11  and  C_12
REMARK   12  A    between atoms: C_12  and  C_13
REMARK   13  A    between atoms: C_13  and  C_14
REMARK   14  A    between atoms: C_14  and  O_16
REMARK   15  A    between atoms: O_16  and  C_17
REMARK   16  A    between atoms: C_19  and  C_21
REMARK   17  A    between atoms: C_21  and  C_22
REMARK   18  A    between atoms: N_24  and  O_25
REMARK   19  A    between atoms: C_28  and  C_30
REMARK   20  A    between atoms: C_30  and  O_31
REMARK   21  A    between atoms: C_32  and  O_34
REMARK                            x       y       z     vdW  Elec       q    Type
REMARK                         _______ _______ _______ _____ _____    ______ ____
ROOT
ATOM      1  C   UNL     1       5.324  -5.236  23.923  0.00  0.00    +0.213 C 
ATOM      2  C   UNL     1       4.095  -6.136  23.680  0.00  0.00    +0.186 C 
ATOM      3  C   UNL     1       3.013  -5.947  24.759  0.00  0.00    +0.175 C 
ATOM      4  O   UNL     1       3.557  -6.068  26.090  0.00  0.00    -0.371 OA
ATOM      5  C   UNL     1       4.669  -5.216  26.359  0.00  0.00    +0.168 C 
ATOM      6  C   UNL     1       5.820  -5.447  25.374  0.00  0.00    +0.067 C 
ENDROOT
BRANCH   2   7
ATOM      7  O   UNL     1       4.554  -7.500  23.701  0.00  0.00    -0.385 OA
ATOM      8  H   UNL     1       4.844  -7.704  24.607  0.00  0.00    +0.210 HD
ENDBRANCH   2   7
BRANCH   6   9
ATOM      9  C   UNL     1       7.005  -4.549  25.755  0.00  0.00    +0.107 C 
BRANCH   9  10
ATOM     10  C   UNL     1       8.317  -5.008  25.163  0.00  0.00    +0.236 C 
ATOM     11  N   UNL     1       9.340  -5.156  26.061  0.00  0.00    -0.197 N 
ATOM     12  H   UNL     1       9.311  -4.906  27.044  0.00  0.00    +0.182 HD
ATOM     13  O   UNL     1       8.464  -5.212  23.960  0.00  0.00    -0.274 OA
BRANCH  11  14
ATOM     14  O   UNL     1      10.595  -5.525  25.530  0.00  0.00    -0.295 OA
ATOM     15  H   UNL     1      10.614  -6.495  25.688  0.00  0.00    +0.241 HD
ENDBRANCH  11  14
ENDBRANCH   9  10
ENDBRANCH   6   9
BRANCH   3  16
ATOM     16  C   UNL     1       2.214  -4.646  24.635  0.00  0.00    +0.190 C 
BRANCH  16  17
ATOM     17  O   UNL     1       1.164  -4.805  23.681  0.00  0.00    -0.392 OA
ATOM     18  H   UNL     1       0.947  -5.757  23.673  0.00  0.00    +0.210 HD
ENDBRANCH  16  17
ENDBRANCH   3  16
BRANCH   1  19
ATOM     19  O   UNL     1       5.030  -3.834  23.735  0.00  0.00    -0.458 OA
BRANCH  19  20
ATOM     20  C   UNL     1       5.634  -3.202  22.687  0.00  0.00    +0.307 C 
ATOM     21  O   UNL     1       5.540  -3.543  21.518  0.00  0.00    -0.251 OA
BRANCH  20  22
ATOM     22  C   UNL     1       6.424  -2.004  23.163  0.00  0.00    +0.120 C 
BRANCH  22  23
ATOM     23  C   UNL     1       7.783  -1.942  22.476  0.00  0.00    +0.011 C 
BRANCH  23  24
ATOM     24  C   UNL     1       8.953  -1.807  23.440  0.00  0.00    +0.001 C 
BRANCH  24  25
ATOM     25  C   UNL     1       8.444  -1.289  24.787  0.00  0.00    +0.000 C 
BRANCH  25  26
ATOM     26  C   UNL     1       9.343  -0.191  25.338  0.00  0.00    +0.000 C 
BRANCH  26  27
ATOM     27  C   UNL     1      10.352   0.260  24.286  0.00  0.00    +0.000 C 
BRANCH  27  28
ATOM     28  C   UNL     1      10.468   1.780  24.271  0.00  0.00    -0.000 C 
BRANCH  28  29
ATOM     29  C   UNL     1      10.288   2.331  22.860  0.00  0.00    -0.000 C 
BRANCH  29  30
ATOM     30  C   UNL     1       9.993   1.205  21.875  0.00  0.00    -0.000 C 
BRANCH  30  31
ATOM     31  C   UNL     1       8.625   1.386  21.222  0.00  0.00    -0.000 C 
BRANCH  31  32
ATOM     32  C   UNL     1       7.773   2.376  22.013  0.00  0.00    -0.000 C 
BRANCH  32  34
ATOM     33  C   UNL     1       6.541   1.896  24.150  0.00  0.00    +0.004 C 
ATOM     34  C   UNL     1       6.568   1.684  22.646  0.00  0.00    -0.003 C 
ENDBRANCH  32  34
ENDBRANCH  31  32
ENDBRANCH  30  31
ENDBRANCH  29  30
ENDBRANCH  28  29
ENDBRANCH  27  28
ENDBRANCH  26  27
ENDBRANCH  25  26
ENDBRANCH  24  25
ENDBRANCH  23  24
ENDBRANCH  22  23
ENDBRANCH  20  22
ENDBRANCH  19  20
ENDBRANCH   1  19
TORSDOF 20
ENDMDL
MODEL 2
REMARK VINA RESULT:      -5.5      2.122      4.435
REMARK  Name = 
REMARK  21 active torsions:
REMARK  status: ('A' for Active; 'I' for Inactive)
REMARK    1  A    between atoms: C_1  and  C_2
REMARK    2  A    between atoms: C_2  and  C_3
REMARK    3  A    between atoms: C_3  and  C_4
REMARK    4  A    between atoms: C_4  and  C_5
REMARK    5  A    between atoms: C_5  and  C_6
REMARK    6  A    between atoms: C_6  and  C_7
REMARK    7  A    between atoms: C_7  and  C_8
REMARK    8  A    between atoms: C_8  and  C_9
REMARK    9  A    between atoms: C_9  and  C_10
REMARK   10  A    between atoms: C_10  and  C_11
REMARK   11  A    between atoms: C_11  and  C_12
REMARK   12  A    between atoms: C_12  and  C_13
REMARK   13  A    between atoms: C_13  and  C_14
REMARK   14  A    between atoms: C_14  and  O_16
REMARK   15  A    between atoms: O_16  and  C_17
REMARK   16  A    between atoms: C_19  and  C_21
REMARK   17  A    between atoms: C_21  and  C_22
REMARK   18  A    between atoms: N_24  and  O_25
REMARK   19  A    between atoms: C_28  and  C_30
REMARK   20  A    between atoms: C_30  and  O_31
REMARK   21  A    between atoms: C_32  and  O_34
REMARK                            x       y       z     vdW  Elec       q    Type
REMARK                         _______ _______ _______ _____ _____    ______ ____
ROOT
ATOM      1  C   UNL     1       7.533  -2.929  24.692  0.00  0.00    +0.213 C 
ATOM      2  C   UNL     1       8.288  -3.420  25.946  0.00  0.00    +0.186 C 
ATOM      3  C   UNL     1       8.260  -4.953  26.080  0.00  0.00    +0.175 C 
ATOM      4  O   UNL     1       6.918  -5.474  25.980  0.00  0.00    -0.371 OA
ATOM      5  C   UNL     1       6.207  -5.073  24.809  0.00  0.00    +0.168 C 
ATOM      6  C   UNL     1       6.114  -3.547  24.690  0.00  0.00    +0.067 C 
ENDROOT
BRANCH   2   7
ATOM      7  O   UNL     1       7.645  -2.829  27.090  0.00  0.00    -0.385 OA
ATOM      8  H   UNL     1       6.924  -3.422  27.365  0.00  0.00    +0.210 HD
ENDBRANCH   2   7
BRANCH   6   9
ATOM      9  C   UNL     1       5.287  -3.184  23.449  0.00  0.00    +0.107 C 
BRANCH   9  10
ATOM     10  C   UNL     1       5.143  -4.327  22.472  0.00  0.00    +0.236 C 
ATOM     11  N   UNL     1       6.152  -4.437  21.553  0.00  0.00    -0.197 N 
ATOM     12  H   UNL     1       6.916  -3.783  21.426  0.00  0.00    +0.182 HD
ATOM     13  O   UNL     1       4.178  -5.090  22.484  0.00  0.00    -0.274 OA
BRANCH  11  14
ATOM     14  O   UNL     1       6.015  -5.459  20.588  0.00  0.00    -0.295 OA
ATOM     15  H   UNL     1       6.108  -6.275  21.129  0.00  0.00    +0.241 HD
ENDBRANCH  11  14
ENDBRANCH   9  10
ENDBRANCH   6   9
BRANCH   3  16
ATOM     16  C   UNL     1       9.183  -5.693  25.107  0.00  0.00    +0.190 C 
BRANCH  16  17
ATOM     17  O   UNL     1      10.401  -4.966  24.939  0.00  0.00    -0.392 OA
ATOM     18  H   UNL     1      10.686  -5.127  24.019  0.00  0.00    +0.210 HD
ENDBRANCH  16  17
ENDBRANCH   3  16
BRANCH   1  19
ATOM     19  O   UNL     1       8.199  -3.297  23.465  0.00  0.00    -0.458 OA
BRANCH  19  20
ATOM     20  C   UNL     1       9.121  -2.424  22.966  0.00  0.00    +0.307 C 
ATOM     21  O   UNL     1      10.332  -2.548  23.074  0.00  0.00    -0.251 OA
BRANCH  20  22
ATOM     22  C   UNL     1       8.446  -1.284  22.238  0.00  0.00    +0.120 C 
BRANCH  22  23
ATOM     23  C   UNL     1       9.467  -0.434  21.493  0.00  0.00    +0.011 C 
BRANCH  23  24
ATOM     24  C   UNL     1       9.149   1.055  21.500  0.00  0.00    +0.001 C 
BRANCH  24  25
ATOM     25  C   UNL     1      10.302   1.818  22.157  0.00  0.00    +0.000 C 
BRANCH  25  26
ATOM     26  C   UNL     1       9.848   2.532  23.422  0.00  0.00    +0.000 C 
BRANCH  26  27
ATOM     27  C   UNL     1       9.597   1.532  24.547  0.00  0.00    +0.000 C 
BRANCH  27  28
ATOM     28  C   UNL     1       8.304   1.865  25.282  0.00  0.00    -0.000 C 
BRANCH  28  29
ATOM     29  C   UNL     1       7.087   1.364  24.510  0.00  0.00    -0.000 C 
BRANCH  29  30
ATOM     30  C   UNL     1       6.157   2.522  24.162  0.00  0.00    -0.000 C 
BRANCH  30  31
ATOM     31  C   UNL     1       5.896   2.587  22.659  0.00  0.00    -0.000 C 
BRANCH  31  32
ATOM     32  C   UNL     1       6.708   3.709  22.014  0.00  0.00    -0.000 C 
BRANCH  32  34
ATOM     33  C   UNL     1       7.543   6.059  22.314  0.00  0.00    +0.004 C 
ATOM     34  C   UNL     1       6.991   4.829  23.013  0.00  0.00    -0.003 C 
ENDBRANCH  32  34
ENDBRANCH  31  32
ENDBRANCH  30  31
ENDBRANCH  29  30
ENDBRANCH  28  29
ENDBRANCH  27  28
ENDBRANCH  26  27
ENDBRANCH  25  26
ENDBRANCH  24  25
ENDBRANCH  23  24
ENDBRANCH  22  23
ENDBRANCH  20  22
ENDBRANCH  19  20
ENDBRANCH   1  19
TORSDOF 20
ENDMDL
MODEL 3
REMARK VINA RESULT:      -5.5      2.044      3.931
REMARK  Name = 
REMARK  21 active torsions:
REMARK  status: ('A' for Active; 'I' for Inactive)
REMARK    1  A    between atoms: C_1  and  C_2
REMARK    2  A    between atoms: C_2  and  C_3
REMARK    3  A    between atoms: C_3  and  C_4
REMARK    4  A    between atoms: C_4  and  C_5
REMARK    5  A    between atoms: C_5  and  C_6
REMARK    6  A    between atoms: C_6  and  C_7
REMARK    7  A    between atoms: C_7  and  C_8
REMARK    8  A    between atoms: C_8  and  C_9
REMARK    9  A    between atoms: C_9  and  C_10
REMARK   10  A    between atoms: C_10  and  C_11
REMARK   11  A    between atoms: C_11  and  C_12
REMARK   12  A    between atoms: C_12  and  C_13
REMARK   13  A    between atoms: C_13  and  C_14
REMARK   14  A    between atoms: C_14  and  O_16
REMARK   15  A    between atoms: O_16  and  C_17
REMARK   16  A    between atoms: C_19  and  C_21
REMARK   17  A    between atoms: C_21  and  C_22
REMARK   18  A    between atoms: N_24  and  O_25
REMARK   19  A    between atoms: C_28  and  C_30
REMARK   20  A    between atoms: C_30  and  O_31
REMARK   21  A    between atoms: C_32  and  O_34
REMARK                            x       y       z     vdW  Elec       q    Type
REMARK                         _______ _______ _______ _____ _____    ______ ____
ROOT
ATOM      1  C   UNL     1       5.478  -5.088  25.845  0.00  0.00    +0.213 C 
ATOM      2  C   UNL     1       4.905  -4.474  27.139  0.00  0.00    +0.186 C 
ATOM      3  C   UNL     1       4.276  -5.536  28.059  0.00  0.00    +0.175 C 
ATOM      4  O   UNL     1       3.329  -6.363  27.352  0.00  0.00    -0.371 OA
ATOM      5  C   UNL     1       3.842  -6.981  26.171  0.00  0.00    +0.168 C 
ATOM      6  C   UNL     1       4.381  -5.950  25.173  0.00  0.00    +0.067 C 
ENDROOT
BRANCH   2   7
ATOM      7  O   UNL     1       3.897  -3.522  26.752  0.00  0.00    -0.385 OA
ATOM      8  H   UNL     1       3.732  -3.635  25.799  0.00  0.00    +0.210 HD
ENDBRANCH   2   7
BRANCH   6   9
ATOM      9  C   UNL     1       4.857  -6.671  23.905  0.00  0.00    +0.107 C 
BRANCH   9  10
ATOM     10  C   UNL     1       4.938  -5.764  22.698  0.00  0.00    +0.236 C 
ATOM     11  N   UNL     1       5.805  -6.174  21.720  0.00  0.00    -0.197 N 
ATOM     12  H   UNL     1       6.439  -6.963  21.779  0.00  0.00    +0.182 HD
ATOM     13  O   UNL     1       4.292  -4.722  22.610  0.00  0.00    -0.274 OA
BRANCH  11  14
ATOM     14  O   UNL     1       5.948  -5.317  20.608  0.00  0.00    -0.295 OA
ATOM     15  H   UNL     1       5.014  -5.103  20.384  0.00  0.00    +0.241 HD
ENDBRANCH  11  14
ENDBRANCH   9  10
ENDBRANCH   6   9
BRANCH   3  16
ATOM     16  C   UNL     1       5.289  -6.414  28.801  0.00  0.00    +0.190 C 
BRANCH  16  17
ATOM     17  O   UNL     1       6.400  -5.626  29.230  0.00  0.00    -0.392 OA
ATOM     18  H   UNL     1       6.964  -6.220  29.760  0.00  0.00    +0.210 HD
ENDBRANCH  16  17
ENDBRANCH   3  16
BRANCH   1  19
ATOM     19  O   UNL     1       6.633  -5.918  26.090  0.00  0.00    -0.458 OA
BRANCH  19  20
ATOM     20  C   UNL     1       7.851  -5.304  26.123  0.00  0.00    +0.307 C 
ATOM     21  O   UNL     1       8.422  -4.938  27.139  0.00  0.00    -0.251 OA
BRANCH  20  22
ATOM     22  C   UNL     1       8.417  -5.152  24.729  0.00  0.00    +0.120 C 
BRANCH  22  23
ATOM     23  C   UNL     1       8.520  -3.682  24.342  0.00  0.00    +0.011 C 
BRANCH  23  24
ATOM     24  C   UNL     1       7.626  -3.290  23.174  0.00  0.00    +0.001 C 
BRANCH  24  25
ATOM     25  C   UNL     1       8.333  -2.231  22.326  0.00  0.00    +0.000 C 
BRANCH  25  26
ATOM     26  C   UNL     1       9.706  -1.893  22.889  0.00  0.00    +0.000 C 
BRANCH  26  27
ATOM     27  C   UNL     1      10.335  -0.734  22.121  0.00  0.00    +0.000 C 
BRANCH  27  28
ATOM     28  C   UNL     1       9.289  -0.024  21.269  0.00  0.00    -0.000 C 
BRANCH  28  29
ATOM     29  C   UNL     1       8.950   1.348  21.842  0.00  0.00    -0.000 C 
BRANCH  29  30
ATOM     30  C   UNL     1      10.180   1.979  22.488  0.00  0.00    -0.000 C 
BRANCH  30  31
ATOM     31  C   UNL     1       9.926   2.304  23.958  0.00  0.00    -0.000 C 
BRANCH  31  32
ATOM     32  C   UNL     1       8.594   1.716  24.422  0.00  0.00    -0.000 C 
BRANCH  32  34
ATOM     33  C   UNL     1       7.526  -0.248  25.567  0.00  0.00    +0.004 C 
ATOM     34  C   UNL     1       8.811   0.537  25.366  0.00  0.00    -0.003 C 
ENDBRANCH  32  34
ENDBRANCH  31  32
ENDBRANCH  30  31
ENDBRANCH  29  30
ENDBRANCH  28  29
ENDBRANCH  27  28
ENDBRANCH  26  27
ENDBRANCH  25  26
ENDBRANCH  24  25
ENDBRANCH  23  24
ENDBRANCH  22  23
ENDBRANCH  20  22
ENDBRANCH  19  20
ENDBRANCH   1  19
TORSDOF 20
ENDMDL
MODEL 4
REMARK VINA RESULT:      -5.4      2.317      4.432
REMARK  Name = 
REMARK  21 active torsions:
REMARK  status: ('A' for Active; 'I' for Inactive)
REMARK    1  A    between atoms: C_1  and  C_2
REMARK    2  A    between atoms: C_2  and  C_3
REMARK    3  A    between atoms: C_3  and  C_4
REMARK    4  A    between atoms: C_4  and  C_5
REMARK    5  A    between atoms: C_5  and  C_6
REMARK    6  A    between atoms: C_6  and  C_7
REMARK    7  A    between atoms: C_7  and  C_8
REMARK    8  A    between atoms: C_8  and  C_9
REMARK    9  A    between atoms: C_9  and  C_10
REMARK   10  A    between atoms: C_10  and  C_11
REMARK   11  A    between atoms: C_11  and  C_12
REMARK   12  A    between atoms: C_12  and  C_13
REMARK   13  A    between atoms: C_13  and  C_14
REMARK   14  A    between atoms: C_14  and  O_16
REMARK   15  A    between atoms: O_16  and  C_17
REMARK   16  A    between atoms: C_19  and  C_21
REMARK   17  A    between atoms: C_21  and  C_22
REMARK   18  A    between atoms: N_24  and  O_25
REMARK   19  A    between atoms: C_28  and  C_30
REMARK   20  A    between atoms: C_30  and  O_31
REMARK   21  A    between atoms: C_32  and  O_34
REMARK                            x       y       z     vdW  Elec       q    Type
REMARK                         _______ _______ _______ _____ _____    ______ ____
ROOT
ATOM      1  C   UNL     1       8.284  -3.737  25.888  0.00  0.00    +0.213 C 
ATOM      2  C   UNL     1       9.003  -4.133  24.581  0.00  0.00    +0.186 C 
ATOM      3  C   UNL     1       8.020  -4.342  23.415  0.00  0.00    +0.175 C 
ATOM      4  O   UNL     1       6.949  -5.241  23.773  0.00  0.00    -0.371 OA
ATOM      5  C   UNL     1       6.236  -4.878  24.955  0.00  0.00    +0.168 C 
ATOM      6  C   UNL     1       7.162  -4.765  26.172  0.00  0.00    +0.067 C 
ENDROOT
BRANCH   2   7
ATOM      7  O   UNL     1       9.708  -5.362  24.837  0.00  0.00    -0.385 OA
ATOM      8  H   UNL     1      10.336  -5.200  25.563  0.00  0.00    +0.210 HD
ENDBRANCH   2   7
BRANCH   6   9
ATOM      9  C   UNL     1       6.328  -4.436  27.417  0.00  0.00    +0.107 C 
BRANCH   9  10
ATOM     10  C   UNL     1       6.130  -5.622  28.333  0.00  0.00    +0.236 C 
ATOM     11  N   UNL     1       5.869  -6.808  27.700  0.00  0.00    -0.197 N 
ATOM     12  H   UNL     1       5.717  -6.932  26.705  0.00  0.00    +0.182 HD
ATOM     13  O   UNL     1       6.175  -5.526  29.558  0.00  0.00    -0.274 OA
BRANCH  11  14
ATOM     14  O   UNL     1       5.620  -7.922  28.531  0.00  0.00    -0.295 OA
ATOM     15  H   UNL     1       5.134  -7.519  29.285  0.00  0.00    +0.241 HD
ENDBRANCH  11  14
ENDBRANCH   9  10
ENDBRANCH   6   9
BRANCH   3  16
ATOM     16  C   UNL     1       7.446  -3.048  22.829  0.00  0.00    +0.190 C 
BRANCH  16  17
ATOM     17  O   UNL     1       6.513  -3.352  21.792  0.00  0.00    -0.392 OA
ATOM     18  H   UNL     1       6.878  -2.957  20.977  0.00  0.00    +0.210 HD
ENDBRANCH  16  17
ENDBRANCH   3  16
BRANCH   1  19
ATOM     19  O   UNL     1       7.697  -2.419  25.820  0.00  0.00    -0.458 OA
BRANCH  19  20
ATOM     20  C   UNL     1       8.485  -1.363  26.175  0.00  0.00    +0.307 C 
ATOM     21  O   UNL     1       8.971  -1.197  27.284  0.00  0.00    -0.251 OA
BRANCH  20  22
ATOM     22  C   UNL     1       8.695  -0.429  25.006  0.00  0.00    +0.120 C 
BRANCH  22  23
ATOM     23  C   UNL     1      10.089   0.185  25.045  0.00  0.00    +0.011 C 
BRANCH  23  24
ATOM     24  C   UNL     1      10.609   0.618  23.681  0.00  0.00    +0.001 C 
BRANCH  24  25
ATOM     25  C   UNL     1      10.104  -0.356  22.613  0.00  0.00    +0.000 C 
BRANCH  25  26
ATOM     26  C   UNL     1       9.465   0.382  21.445  0.00  0.00    +0.000 C 
BRANCH  26  27
ATOM     27  C   UNL     1       9.209   1.843  21.803  0.00  0.00    +0.000 C 
BRANCH  27  28
ATOM     28  C   UNL     1       7.736   2.190  21.618  0.00  0.00    -0.000 C 
BRANCH  28  29
ATOM     29  C   UNL     1       6.950   1.958  22.904  0.00  0.00    -0.000 C 
BRANCH  29  30
ATOM     30  C   UNL     1       6.852   3.246  23.715  0.00  0.00    -0.000 C 
BRANCH  30  31
ATOM     31  C   UNL     1       7.789   3.212  24.920  0.00  0.00    -0.000 C 
BRANCH  31  32
ATOM     32  C   UNL     1       9.015   4.089  24.680  0.00  0.00    -0.000 C 
BRANCH  32  34
ATOM     33  C   UNL     1       9.884   6.181  23.593  0.00  0.00    +0.004 C 
ATOM     34  C   UNL     1       8.671   5.291  23.804  0.00  0.00    -0.003 C 
ENDBRANCH  32  34
ENDBRANCH  31  32
ENDBRANCH  30  31
ENDBRANCH  29  30
ENDBRANCH  28  29
ENDBRANCH  27  28
ENDBRANCH  26  27
ENDBRANCH  25  26
ENDBRANCH  24  25
ENDBRANCH  23  24
ENDBRANCH  22  23
ENDBRANCH  20  22
ENDBRANCH  19  20
ENDBRANCH   1  19
TORSDOF 20
ENDMDL
MODEL 5
REMARK VINA RESULT:      -5.4      1.844      3.911
REMARK  Name = 
REMARK  21 active torsions:
REMARK  status: ('A' for Active; 'I' for Inactive)
REMARK    1  A    between atoms: C_1  and  C_2
REMARK    2  A    between atoms: C_2  and  C_3
REMARK    3  A    between atoms: C_3  and  C_4
REMARK    4  A    between atoms: C_4  and  C_5
REMARK    5  A    between atoms: C_5  and  C_6
REMARK    6  A    between atoms: C_6  and  C_7
REMARK    7  A    between atoms: C_7  and  C_8
REMARK    8  A    between atoms: C_8  and  C_9
REMARK    9  A    between atoms: C_9  and  C_10
REMARK   10  A    between atoms: C_10  and  C_11
REMARK   11  A    between atoms: C_11  and  C_12
REMARK   12  A    between atoms: C_12  and  C_13
REMARK   13  A    between atoms: C_13  and  C_14
REMARK   14  A    between atoms: C_14  and  O_16
REMARK   15  A    between atoms: O_16  and  C_17
REMARK   16  A    between atoms: C_19  and  C_21
REMARK   17  A    between atoms: C_21  and  C_22
REMARK   18  A    between atoms: N_24  and  O_25
REMARK   19  A    between atoms: C_28  and  C_30
REMARK   20  A    between atoms: C_30  and  O_31
REMARK   21  A    between atoms: C_32  and  O_34
REMARK                            x       y       z     vdW  Elec       q    Type
REMARK                         _______ _______ _______ _____ _____    ______ ____
ROOT
ATOM      1  C   UNL     1       6.563  -3.675  24.809  0.00  0.00    +0.213 C 
ATOM      2  C   UNL     1       7.621  -3.509  25.920  0.00  0.00    +0.186 C 
ATOM      3  C   UNL     1       8.209  -4.859  26.370  0.00  0.00    +0.175 C 
ATOM      4  O   UNL     1       7.175  -5.809  26.703  0.00  0.00    -0.371 OA
ATOM      5  C   UNL     1       6.204  -6.017  25.678  0.00  0.00    +0.168 C 
ATOM      6  C   UNL     1       5.510  -4.711  25.273  0.00  0.00    +0.067 C 
ENDROOT
BRANCH   2   7
ATOM      7  O   UNL     1       6.972  -2.876  27.037  0.00  0.00    -0.385 OA
ATOM      8  H   UNL     1       6.475  -2.110  26.699  0.00  0.00    +0.210 HD
ENDBRANCH   2   7
BRANCH   6   9
ATOM      9  C   UNL     1       4.437  -5.012  24.217  0.00  0.00    +0.107 C 
BRANCH   9  10
ATOM     10  C   UNL     1       3.614  -6.238  24.535  0.00  0.00    +0.236 C 
ATOM     11  N   UNL     1       3.520  -7.154  23.521  0.00  0.00    -0.197 N 
ATOM     12  H   UNL     1       3.874  -7.037  22.578  0.00  0.00    +0.182 HD
ATOM     13  O   UNL     1       3.049  -6.394  25.616  0.00  0.00    -0.274 OA
BRANCH  11  14
ATOM     14  O   UNL     1       2.708  -8.283  23.766  0.00  0.00    -0.295 OA
ATOM     15  H   UNL     1       3.365  -9.013  23.799  0.00  0.00    +0.241 HD
ENDBRANCH  11  14
ENDBRANCH   9  10
ENDBRANCH   6   9
BRANCH   3  16
ATOM     16  C   UNL     1       9.196  -5.484  25.379  0.00  0.00    +0.190 C 
BRANCH  16  17
ATOM     17  O   UNL     1       9.924  -4.460  24.701  0.00  0.00    -0.392 OA
ATOM     18  H   UNL     1       9.277  -3.757  24.500  0.00  0.00    +0.210 HD
ENDBRANCH  16  17
ENDBRANCH   3  16
BRANCH   1  19
ATOM     19  O   UNL     1       7.135  -4.125  23.561  0.00  0.00    -0.458 OA
BRANCH  19  20
ATOM     20  C   UNL     1       6.956  -3.329  22.468  0.00  0.00    +0.307 C 
ATOM     21  O   UNL     1       6.323  -3.644  21.471  0.00  0.00    -0.251 OA
BRANCH  20  22
ATOM     22  C   UNL     1       7.630  -1.989  22.658  0.00  0.00    +0.120 C 
BRANCH  22  23
ATOM     23  C   UNL     1       9.081  -2.041  22.198  0.00  0.00    +0.011 C 
BRANCH  23  24
ATOM     24  C   UNL     1      10.058  -1.394  23.170  0.00  0.00    +0.001 C 
BRANCH  24  25
ATOM     25  C   UNL     1       9.316  -1.004  24.451  0.00  0.00    +0.000 C 
BRANCH  25  26
ATOM     26  C   UNL     1       9.996   0.162  25.154  0.00  0.00    +0.000 C 
BRANCH  26  27
ATOM     27  C   UNL     1      10.941   0.891  24.203  0.00  0.00    +0.000 C 
BRANCH  27  28
ATOM     28  C   UNL     1      10.265   2.126  23.618  0.00  0.00    -0.000 C 
BRANCH  28  29
ATOM     29  C   UNL     1      10.187   2.041  22.097  0.00  0.00    -0.000 C 
BRANCH  29  30
ATOM     30  C   UNL     1       8.765   1.720  21.648  0.00  0.00    -0.000 C 
BRANCH  30  31
ATOM     31  C   UNL     1       7.737   2.465  22.496  0.00  0.00    -0.000 C 
BRANCH  31  32
ATOM     32  C   UNL     1       6.619   1.526  22.944  0.00  0.00    -0.000 C 
BRANCH  32  34
ATOM     33  C   UNL     1       5.828   0.199  24.925  0.00  0.00    +0.004 C 
ATOM     34  C   UNL     1       6.523   1.470  24.466  0.00  0.00    -0.003 C 
ENDBRANCH  32  34
ENDBRANCH  31  32
ENDBRANCH  30  31
ENDBRANCH  29  30
ENDBRANCH  28  29
ENDBRANCH  27  28
ENDBRANCH  26  27
ENDBRANCH  25  26
ENDBRANCH  24  25
ENDBRANCH  23  24
ENDBRANCH  22  23
ENDBRANCH  20  22
ENDBRANCH  19  20
ENDBRANCH   1  19
TORSDOF 20
ENDMDL
MODEL 6
REMARK VINA RESULT:      -5.4      1.968      4.025
REMARK  Name = 
REMARK  21 active torsions:
REMARK  status: ('A' for Active; 'I' for Inactive)
REMARK    1  A    between atoms: C_1  and  C_2
REMARK    2  A    between atoms: C_2  and  C_3
REMARK    3  A    between atoms: C_3  and  C_4
REMARK    4  A    between atoms: C_4  and  C_5
REMARK    5  A    between atoms: C_5  and  C_6
REMARK    6  A    between atoms: C_6  and  C_7
REMARK    7  A    between atoms: C_7  and  C_8
REMARK    8  A    between atoms: C_8  and  C_9
REMARK    9  A    between atoms: C_9  and  C_10
REMARK   10  A    between atoms: C_10  and  C_11
REMARK   11  A    between atoms: C_11  and  C_12
REMARK   12  A    between atoms: C_12  and  C_13
REMARK   13  A    between atoms: C_13  and  C_14
REMARK   14  A    between atoms: C_14  and  O_16
REMARK   15  A    between atoms: O_16  and  C_17
REMARK   16  A    between atoms: C_19  and  C_21
REMARK   17  A    between atoms: C_21  and  C_22
REMARK   18  A    between atoms: N_24  and  O_25
REMARK   19  A    between atoms: C_28  and  C_30
REMARK   20  A    between atoms: C_30  and  O_31
REMARK   21  A    between atoms: C_32  and  O_34
REMARK                            x       y       z     vdW  Elec       q    Type
REMARK                         _______ _______ _______ _____ _____    ______ ____
ROOT
ATOM      1  C   UNL     1       6.827  -5.423  23.635  0.00  0.00    +0.213 C 
ATOM      2  C   UNL     1       7.014  -4.943  22.181  0.00  0.00    +0.186 C 
ATOM      3  C   UNL     1       6.079  -3.772  21.829  0.00  0.00    +0.175 C 
ATOM      4  O   UNL     1       4.705  -4.066  22.163  0.00  0.00    -0.371 OA
ATOM      5  C   UNL     1       4.494  -4.472  23.515  0.00  0.00    +0.168 C 
ATOM      6  C   UNL     1       5.325  -5.707  23.879  0.00  0.00    +0.067 C 
ENDROOT
BRANCH   2   7
ATOM      7  O   UNL     1       6.723  -6.060  21.322  0.00  0.00    -0.385 OA
ATOM      8  H   UNL     1       7.046  -5.842  20.430  0.00  0.00    +0.210 HD
ENDBRANCH   2   7
BRANCH   6   9
ATOM      9  C   UNL     1       5.005  -6.129  25.320  0.00  0.00    +0.107 C 
BRANCH   9  10
ATOM     10  C   UNL     1       3.890  -7.144  25.410  0.00  0.00    +0.236 C 
ATOM     11  N   UNL     1       3.223  -7.170  26.606  0.00  0.00    -0.197 N 
ATOM     12  H   UNL     1       3.468  -6.641  27.436  0.00  0.00    +0.182 HD
ATOM     13  O   UNL     1       3.615  -7.909  24.488  0.00  0.00    -0.274 OA
BRANCH  11  14
ATOM     14  O   UNL     1       2.215  -8.149  26.743  0.00  0.00    -0.295 OA
ATOM     15  H   UNL     1       2.366  -8.482  27.656  0.00  0.00    +0.241 HD
ENDBRANCH  11  14
ENDBRANCH   9  10
ENDBRANCH   6   9
BRANCH   3  16
ATOM     16  C   UNL     1       6.489  -2.427  22.436  0.00  0.00    +0.190 C 
BRANCH  16  17
ATOM     17  O   UNL     1       7.910  -2.292  22.413  0.00  0.00    -0.392 OA
ATOM     18  H   UNL     1       8.231  -2.670  23.255  0.00  0.00    +0.210 HD
ENDBRANCH  16  17
ENDBRANCH   3  16
BRANCH   1  19
ATOM     19  O   UNL     1       7.276  -4.449  24.602  0.00  0.00    -0.458 OA
BRANCH  19  20
ATOM     20  C   UNL     1       8.545  -4.584  25.087  0.00  0.00    +0.307 C 
ATOM     21  O   UNL     1       9.351  -5.420  24.708  0.00  0.00    -0.251 OA
BRANCH  20  22
ATOM     22  C   UNL     1       8.832  -3.545  26.147  0.00  0.00    +0.120 C 
BRANCH  22  23
ATOM     23  C   UNL     1       7.916  -2.339  25.987  0.00  0.00    +0.011 C 
BRANCH  23  24
ATOM     24  C   UNL     1       8.546  -1.025  26.430  0.00  0.00    +0.001 C 
BRANCH  24  25
ATOM     25  C   UNL     1       8.939  -0.210  25.196  0.00  0.00    +0.000 C 
BRANCH  25  26
ATOM     26  C   UNL     1      10.386   0.256  25.275  0.00  0.00    +0.000 C 
BRANCH  26  27
ATOM     27  C   UNL     1      10.766   1.051  24.030  0.00  0.00    +0.000 C 
BRANCH  27  28
ATOM     28  C   UNL     1      10.128   0.439  22.787  0.00  0.00    -0.000 C 
BRANCH  28  29
ATOM     29  C   UNL     1       9.711   1.520  21.795  0.00  0.00    -0.000 C 
BRANCH  29  30
ATOM     30  C   UNL     1       8.209   1.777  21.879  0.00  0.00    -0.000 C 
BRANCH  30  31
ATOM     31  C   UNL     1       7.916   3.132  22.518  0.00  0.00    -0.000 C 
BRANCH  31  32
ATOM     32  C   UNL     1       7.461   2.963  23.966  0.00  0.00    -0.000 C 
BRANCH  32  34
ATOM     33  C   UNL     1       9.442   4.496  24.168  0.00  0.00    +0.004 C 
ATOM     34  C   UNL     1       8.386   3.709  24.925  0.00  0.00    -0.003 C 
ENDBRANCH  32  34
ENDBRANCH  31  32
ENDBRANCH  30  31
ENDBRANCH  29  30
ENDBRANCH  28  29
ENDBRANCH  27  28
ENDBRANCH  26  27
ENDBRANCH  25  26
ENDBRANCH  24  25
ENDBRANCH  23  24
ENDBRANCH  22  23
ENDBRANCH  20  22
ENDBRANCH  19  20
ENDBRANCH   1  19
TORSDOF 20
ENDMDL
MODEL 7
REMARK VINA RESULT:      -5.3      1.765      3.329
REMARK  Name = 
REMARK  21 active torsions:
REMARK  status: ('A' for Active; 'I' for Inactive)
REMARK    1  A    between atoms: C_1  and  C_2
REMARK    2  A    between atoms: C_2  and  C_3
REMARK    3  A    between atoms: C_3  and  C_4
REMARK    4  A    between atoms: C_4  and  C_5
REMARK    5  A    between atoms: C_5  and  C_6
REMARK    6  A    between atoms: C_6  and  C_7
REMARK    7  A    between atoms: C_7  and  C_8
REMARK    8  A    between atoms: C_8  and  C_9
REMARK    9  A    between atoms: C_9  and  C_10
REMARK   10  A    between atoms: C_10  and  C_11
REMARK   11  A    between atoms: C_11  and  C_12
REMARK   12  A    between atoms: C_12  and  C_13
REMARK   13  A    between atoms: C_13  and  C_14
REMARK   14  A    between atoms: C_14  and  O_16
REMARK   15  A    between atoms: O_16  and  C_17
REMARK   16  A    between atoms: C_19  and  C_21
REMARK   17  A    between atoms: C_21  and  C_22
REMARK   18  A    between atoms: N_24  and  O_25
REMARK   19  A    between atoms: C_28  and  C_30
REMARK   20  A    between atoms: C_30  and  O_31
REMARK   21  A    between atoms: C_32  and  O_34
REMARK                            x       y       z     vdW  Elec       q    Type
REMARK                         _______ _______ _______ _____ _____    ______ ____
ROOT
ATOM      1  C   UNL     1       6.321  -3.238  23.015  0.00  0.00    +0.213 C 
ATOM      2  C   UNL     1       5.309  -4.034  22.164  0.00  0.00    +0.186 C 
ATOM      3  C   UNL     1       5.330  -5.538  22.490  0.00  0.00    +0.175 C 
ATOM      4  O   UNL     1       6.667  -6.078  22.442  0.00  0.00    -0.371 OA
ATOM      5  C   UNL     1       7.618  -5.389  23.253  0.00  0.00    +0.168 C 
ATOM      6  C   UNL     1       7.713  -3.903  22.888  0.00  0.00    +0.067 C 
ENDROOT
BRANCH   2   7
ATOM      7  O   UNL     1       5.666  -3.840  20.783  0.00  0.00    -0.385 OA
ATOM      8  H   UNL     1       6.227  -3.047  20.729  0.00  0.00    +0.210 HD
ENDBRANCH   2   7
BRANCH   6   9
ATOM      9  C   UNL     1       8.794  -3.235  23.749  0.00  0.00    +0.107 C 
BRANCH   9  10
ATOM     10  C   UNL     1       9.285  -4.113  24.876  0.00  0.00    +0.236 C 
ATOM     11  N   UNL     1       8.520  -4.085  26.012  0.00  0.00    -0.197 N 
ATOM     12  H   UNL     1       7.727  -3.475  26.180  0.00  0.00    +0.182 HD
ATOM     13  O   UNL     1      10.310  -4.787  24.791  0.00  0.00    -0.274 OA
BRANCH  11  14
ATOM     14  O   UNL     1       8.987  -4.848  27.104  0.00  0.00    -0.295 OA
ATOM     15  H   UNL     1       9.855  -4.429  27.299  0.00  0.00    +0.241 HD
ENDBRANCH  11  14
ENDBRANCH   9  10
ENDBRANCH   6   9
BRANCH   3  16
ATOM     16  C   UNL     1       4.662  -5.909  23.819  0.00  0.00    +0.190 C 
BRANCH  16  17
ATOM     17  O   UNL     1       4.604  -7.329  23.958  0.00  0.00    -0.392 OA
ATOM     18  H   UNL     1       5.094  -7.695  23.197  0.00  0.00    +0.210 HD
ENDBRANCH  16  17
ENDBRANCH   3  16
BRANCH   1  19
ATOM     19  O   UNL     1       5.956  -3.193  24.412  0.00  0.00    -0.458 OA
BRANCH  19  20
ATOM     20  C   UNL     1       5.319  -2.072  24.858  0.00  0.00    +0.307 C 
ATOM     21  O   UNL     1       4.273  -2.068  25.489  0.00  0.00    -0.251 OA
BRANCH  20  22
ATOM     22  C   UNL     1       6.091  -0.827  24.483  0.00  0.00    +0.120 C 
BRANCH  22  23
ATOM     23  C   UNL     1       7.073  -0.446  25.583  0.00  0.00    +0.011 C 
BRANCH  23  24
ATOM     24  C   UNL     1       7.488   1.019  25.557  0.00  0.00    +0.001 C 
BRANCH  24  25
ATOM     25  C   UNL     1       6.237   1.900  25.538  0.00  0.00    +0.000 C 
BRANCH  25  26
ATOM     26  C   UNL     1       6.456   3.160  24.713  0.00  0.00    +0.000 C 
BRANCH  26  27
ATOM     27  C   UNL     1       7.942   3.494  24.621  0.00  0.00    +0.000 C 
BRANCH  27  28
ATOM     28  C   UNL     1       8.328   3.833  23.185  0.00  0.00    -0.000 C 
BRANCH  28  29
ATOM     29  C   UNL     1       7.389   3.160  22.190  0.00  0.00    -0.000 C 
BRANCH  29  30
ATOM     30  C   UNL     1       7.878   1.754  21.855  0.00  0.00    -0.000 C 
BRANCH  30  31
ATOM     31  C   UNL     1       9.397   1.655  21.972  0.00  0.00    -0.000 C 
BRANCH  31  32
ATOM     32  C   UNL     1       9.838   0.199  22.096  0.00  0.00    -0.000 C 
BRANCH  32  34
ATOM     33  C   UNL     1      10.813   1.250  24.159  0.00  0.00    +0.004 C 
ATOM     34  C   UNL     1      10.544  -0.053  23.426  0.00  0.00    -0.003 C 
ENDBRANCH  32  34
ENDBRANCH  31  32
ENDBRANCH  30  31
ENDBRANCH  29  30
ENDBRANCH  28  29
ENDBRANCH  27  28
ENDBRANCH  26  27
ENDBRANCH  25  26
ENDBRANCH  24  25
ENDBRANCH  23  24
ENDBRANCH  22  23
ENDBRANCH  20  22
ENDBRANCH  19  20
ENDBRANCH   1  19
TORSDOF 20
ENDMDL
MODEL 8
REMARK VINA RESULT:      -5.3      5.405      8.895
REMARK  Name = 
REMARK  21 active torsions:
REMARK  status: ('A' for Active; 'I' for Inactive)
REMARK    1  A    between atoms: C_1  and  C_2
REMARK    2  A    between atoms: C_2  and  C_3
REMARK    3  A    between atoms: C_3  and  C_4
REMARK    4  A    between atoms: C_4  and  C_5
REMARK    5  A    between atoms: C_5  and  C_6
REMARK    6  A    between atoms: C_6  and  C_7
REMARK    7  A    between atoms: C_7  and  C_8
REMARK    8  A    between atoms: C_8  and  C_9
REMARK    9  A    between atoms: C_9  and  C_10
REMARK   10  A    between atoms: C_10  and  C_11
REMARK   11  A    between atoms: C_11  and  C_12
REMARK   12  A    between atoms: C_12  and  C_13
REMARK   13  A    between atoms: C_13  and  C_14
REMARK   14  A    between atoms: C_14  and  O_16
REMARK   15  A    between atoms: O_16  and  C_17
REMARK   16  A    between atoms: C_19  and  C_21
REMARK   17  A    between atoms: C_21  and  C_22
REMARK   18  A    between atoms: N_24  and  O_25
REMARK   19  A    between atoms: C_28  and  C_30
REMARK   20  A    between atoms: C_30  and  O_31
REMARK   21  A    between atoms: C_32  and  O_34
REMARK                            x       y       z     vdW  Elec       q    Type
REMARK                         _______ _______ _______ _____ _____    ______ ____
ROOT
ATOM      1  C   UNL     1       8.833   3.549  23.768  0.00  0.00    +0.213 C 
ATOM      2  C   UNL     1       7.589   4.180  24.427  0.00  0.00    +0.186 C 
ATOM      3  C   UNL     1       7.334   5.617  23.934  0.00  0.00    +0.175 C 
ATOM      4  O   UNL     1       8.517   6.437  24.042  0.00  0.00    -0.371 OA
ATOM      5  C   UNL     1       9.676   5.900  23.405  0.00  0.00    +0.168 C 
ATOM      6  C   UNL     1      10.034   4.511  23.944  0.00  0.00    +0.067 C 
ENDROOT
BRANCH   2   7
ATOM      7  O   UNL     1       7.820   4.198  25.847  0.00  0.00    -0.385 OA
ATOM      8  H   UNL     1       7.867   5.128  26.130  0.00  0.00    +0.210 HD
ENDBRANCH   2   7
BRANCH   6   9
ATOM      9  C   UNL     1      11.320   4.018  23.267  0.00  0.00    +0.107 C 
BRANCH   9  10
ATOM     10  C   UNL     1      12.416   5.058  23.241  0.00  0.00    +0.236 C 
ATOM     11  N   UNL     1      12.962   5.296  22.008  0.00  0.00    -0.197 N 
ATOM     12  H   UNL     1      12.756   4.785  21.157  0.00  0.00    +0.182 HD
ATOM     13  O   UNL     1      12.808   5.632  24.255  0.00  0.00    -0.274 OA
BRANCH  11  14
ATOM     14  O   UNL     1      14.030   6.218  21.960  0.00  0.00    -0.295 OA
ATOM     15  H   UNL     1      13.733   6.918  22.583  0.00  0.00    +0.241 HD
ENDBRANCH  11  14
ENDBRANCH   9  10
ENDBRANCH   6   9
BRANCH   3  16
ATOM     16  C   UNL     1       6.759   5.709  22.517  0.00  0.00    +0.190 C 
BRANCH  16  17
ATOM     17  O   UNL     1       5.954   4.564  22.239  0.00  0.00    -0.392 OA
ATOM     18  H   UNL     1       6.063   4.382  21.286  0.00  0.00    +0.210 HD
ENDBRANCH  16  17
ENDBRANCH   3  16
BRANCH   1  19
ATOM     19  O   UNL     1       8.646   3.298  22.358  0.00  0.00    -0.458 OA
BRANCH  19  20
ATOM     20  C   UNL     1       8.270   2.039  21.991  0.00  0.00    +0.307 C 
ATOM     21  O   UNL     1       7.123   1.619  22.011  0.00  0.00    -0.251 OA
BRANCH  20  22
ATOM     22  C   UNL     1       9.463   1.230  21.533  0.00  0.00    +0.120 C 
BRANCH  22  23
ATOM     23  C   UNL     1       9.197  -0.262  21.680  0.00  0.00    +0.011 C 
BRANCH  23  24
ATOM     24  C   UNL     1       9.843  -0.883  22.911  0.00  0.00    +0.001 C 
BRANCH  24  25
ATOM     25  C   UNL     1      10.649   0.184  23.654  0.00  0.00    +0.000 C 
BRANCH  25  26
ATOM     26  C   UNL     1      10.311   0.204  25.138  0.00  0.00    +0.000 C 
BRANCH  26  27
ATOM     27  C   UNL     1       8.801   0.266  25.347  0.00  0.00    +0.000 C 
BRANCH  27  28
ATOM     28  C   UNL     1       8.347  -0.827  26.308  0.00  0.00    -0.000 C 
BRANCH  28  29
ATOM     29  C   UNL     1       7.172  -1.612  25.734  0.00  0.00    -0.000 C 
BRANCH  29  30
ATOM     30  C   UNL     1       7.657  -2.897  25.071  0.00  0.00    -0.000 C 
BRANCH  30  31
ATOM     31  C   UNL     1       8.981  -3.363  25.672  0.00  0.00    -0.000 C 
BRANCH  31  32
ATOM     32  C   UNL     1       8.781  -4.620  26.517  0.00  0.00    -0.000 C 
BRANCH  32  34
ATOM     33  C   UNL     1       6.683  -5.508  27.577  0.00  0.00    +0.004 C 
ATOM     34  C   UNL     1       7.407  -5.238  26.269  0.00  0.00    -0.003 C 
ENDBRANCH  32  34
ENDBRANCH  31  32
ENDBRANCH  30  31
ENDBRANCH  29  30
ENDBRANCH  28  29
ENDBRANCH  27  28
ENDBRANCH  26  27
ENDBRANCH  25  26
ENDBRANCH  24  25
ENDBRANCH  23  24
ENDBRANCH  22  23
ENDBRANCH  20  22
ENDBRANCH  19  20
ENDBRANCH   1  19
TORSDOF 20
ENDMDL
MODEL 9
REMARK VINA RESULT:      -5.2      1.572      2.207
REMARK  Name = 
REMARK  21 active torsions:
REMARK  status: ('A' for Active; 'I' for Inactive)
REMARK    1  A    between atoms: C_1  and  C_2
REMARK    2  A    between atoms: C_2  and  C_3
REMARK    3  A    between atoms: C_3  and  C_4
REMARK    4  A    between atoms: C_4  and  C_5
REMARK    5  A    between atoms: C_5  and  C_6
REMARK    6  A    between atoms: C_6  and  C_7
REMARK    7  A    between atoms: C_7  and  C_8
REMARK    8  A    between atoms: C_8  and  C_9
REMARK    9  A    between atoms: C_9  and  C_10
REMARK   10  A    between atoms: C_10  and  C_11
REMARK   11  A    between atoms: C_11  and  C_12
REMARK   12  A    between atoms: C_12  and  C_13
REMARK   13  A    between atoms: C_13  and  C_14
REMARK   14  A    between atoms: C_14  and  O_16
REMARK   15  A    between atoms: O_16  and  C_17
REMARK   16  A    between atoms: C_19  and  C_21
REMARK   17  A    between atoms: C_21  and  C_22
REMARK   18  A    between atoms: N_24  and  O_25
REMARK   19  A    between atoms: C_28  and  C_30
REMARK   20  A    between atoms: C_30  and  O_31
REMARK   21  A    between atoms: C_32  and  O_34
REMARK                            x       y       z     vdW  Elec       q    Type
REMARK                         _______ _______ _______ _____ _____    ______ ____
ROOT
ATOM      1  C   UNL     1       5.164  -3.975  24.473  0.00  0.00    +0.213 C 
ATOM      2  C   UNL     1       3.950  -4.233  23.556  0.00  0.00    +0.186 C 
ATOM      3  C   UNL     1       3.016  -5.319  24.118  0.00  0.00    +0.175 C 
ATOM      4  O   UNL     1       3.737  -6.521  24.463  0.00  0.00    -0.371 OA
ATOM      5  C   UNL     1       4.841  -6.320  25.345  0.00  0.00    +0.168 C 
ATOM      6  C   UNL     1       5.858  -5.325  24.775  0.00  0.00    +0.067 C 
ENDROOT
BRANCH   2   7
ATOM      7  O   UNL     1       4.462  -4.659  22.280  0.00  0.00    -0.385 OA
ATOM      8  H   UNL     1       3.719  -5.025  21.768  0.00  0.00    +0.210 HD
ENDBRANCH   2   7
BRANCH   6   9
ATOM      9  C   UNL     1       7.047  -5.204  25.738  0.00  0.00    +0.107 C 
BRANCH   9  10
ATOM     10  C   UNL     1       8.385  -5.196  25.037  0.00  0.00    +0.236 C 
ATOM     11  N   UNL     1       9.470  -5.375  25.853  0.00  0.00    -0.197 N 
ATOM     12  H   UNL     1       9.452  -5.422  26.866  0.00  0.00    +0.182 HD
ATOM     13  O   UNL     1       8.496  -5.018  23.826  0.00  0.00    -0.274 OA
BRANCH  11  14
ATOM     14  O   UNL     1      10.738  -5.312  25.236  0.00  0.00    -0.295 OA
ATOM     15  H   UNL     1      11.349  -5.468  25.991  0.00  0.00    +0.241 HD
ENDBRANCH  11  14
ENDBRANCH   9  10
ENDBRANCH   6   9
BRANCH   3  16
ATOM     16  C   UNL     1       2.156  -4.866  25.303  0.00  0.00    +0.190 C 
BRANCH  16  17
ATOM     17  O   UNL     1       1.732  -3.516  25.112  0.00  0.00    -0.392 OA
ATOM     18  H   UNL     1       2.017  -3.029  25.908  0.00  0.00    +0.210 HD
ENDBRANCH  16  17
ENDBRANCH   3  16
BRANCH   1  19
ATOM     19  O   UNL     1       4.792  -3.357  25.724  0.00  0.00    -0.458 OA
BRANCH  19  20
ATOM     20  C   UNL     1       4.728  -1.995  25.756  0.00  0.00    +0.307 C 
ATOM     21  O   UNL     1       3.733  -1.349  26.050  0.00  0.00    -0.251 OA
BRANCH  20  22
ATOM     22  C   UNL     1       6.063  -1.383  25.397  0.00  0.00    +0.120 C 
BRANCH  22  23
ATOM     23  C   UNL     1       7.085  -1.623  26.501  0.00  0.00    +0.011 C 
BRANCH  23  24
ATOM     24  C   UNL     1       8.530  -1.549  26.027  0.00  0.00    +0.001 C 
BRANCH  24  25
ATOM     25  C   UNL     1       8.558  -1.349  24.510  0.00  0.00    +0.000 C 
BRANCH  25  26
ATOM     26  C   UNL     1       9.983  -1.335  23.977  0.00  0.00    +0.000 C 
BRANCH  26  27
ATOM     27  C   UNL     1       9.998  -1.558  22.467  0.00  0.00    +0.000 C 
BRANCH  27  28
ATOM     28  C   UNL     1       9.183  -0.482  21.758  0.00  0.00    -0.000 C 
BRANCH  28  29
ATOM     29  C   UNL     1       9.896   0.866  21.801  0.00  0.00    -0.000 C 
BRANCH  29  30
ATOM     30  C   UNL     1       8.938   1.968  22.241  0.00  0.00    -0.000 C 
BRANCH  30  31
ATOM     31  C   UNL     1       7.496   1.466  22.271  0.00  0.00    -0.000 C 
BRANCH  31  32
ATOM     32  C   UNL     1       6.823   1.830  23.592  0.00  0.00    -0.000 C 
BRANCH  32  34
ATOM     33  C   UNL     1       7.415   2.073  26.022  0.00  0.00    +0.004 C 
ATOM     34  C   UNL     1       7.834   2.381  24.594  0.00  0.00    -0.003 C 
ENDBRANCH  32  34
ENDBRANCH  31  32
ENDBRANCH  30  31
ENDBRANCH  29  30
ENDBRANCH  28  29
ENDBRANCH  27  28
ENDBRANCH  26  27
ENDBRANCH  25  26
ENDBRANCH  24  25
ENDBRANCH  23  24
ENDBRANCH  22  23
ENDBRANCH  20  22
ENDBRANCH  19  20
ENDBRANCH   1  19
TORSDOF 20
ENDMDL
