MODEL 1
REMARK VINA RESULT:      -5.3      0.000      0.000
REMARK  Name = 
REMARK  17 active torsions:
REMARK  status: ('A' for Active; 'I' for Inactive)
REMARK    1  A    between atoms: C_1  and  O_2
REMARK    2  A    between atoms: O_2  and  C_3
REMARK    3  A    between atoms: C_8  and  C_9
REMARK    4  A    between atoms: C_12  and  C_13
REMARK    5  A    between atoms: C_14  and  O_15
REMARK    6  A    between atoms: C_17  and  O_18
REMARK    7  A    between atoms: C_23  and  C_24
REMARK    8  A    between atoms: C_28  and  C_30
REMARK    9  A    between atoms: C_31  and  O_33
REMARK   10  A    between atoms: C_34  and  C_36
REMARK   11  A    between atoms: C_37  and  O_39
REMARK   12  A    between atoms: C_40  and  C_42
REMARK   13  A    between atoms: C_43  and  O_45
REMARK   14  A    between atoms: O_45  and  C_46
REMARK   15  A    between atoms: C_46  and  C_47
REMARK   16  A    between atoms: C_49  and  C_51
REMARK   17  A    between atoms: C_57  and  C_58
REMARK                            x       y       z     vdW  Elec       q    Type
REMARK                         _______ _______ _______ _____ _____    ______ ____
ROOT
ATOM      1  C   UNL     1       8.844   2.494  25.404  0.00  0.00    +0.150 C 
ATOM      2  C   UNL     1       7.739   0.511  26.090  0.00  0.00    +0.060 C 
ATOM      3  C   UNL     1       6.959   2.372  25.955  0.00  0.00    +0.014 C 
ATOM      4  C   UNL     1       6.812  -1.633  26.531  0.00  0.00    +0.187 C 
ATOM      5  C   UNL     1       5.508  -3.434  27.194  0.00  0.00    +0.056 C 
ATOM      6  C   UNL     1       4.636  -4.926  26.293  0.00  0.00    +0.014 C 
ATOM      7  C   UNL     1       4.712  -5.087  28.407  0.00  0.00    +0.126 C 
ATOM      8  C   UNL     1       3.291  -6.767  28.641  0.00  0.00    +0.044 C 
ATOM      9  C   UNL     1       1.569  -7.774  28.824  0.00  0.00    +0.013 C 
ATOM     10  C   UNL     1       2.119  -6.042  28.256  0.00  0.00    +0.126 C 
ATOM     11  C   UNL     1       1.334  -5.012  28.938  0.00  0.00    +0.037 C 
ATOM     12  C   UNL     1       1.831  -5.082  30.485  0.00  0.00    +0.014 C 
ATOM     13  C   UNL     1       1.747  -4.105  27.814  0.00  0.00    -0.021 C 
ATOM     14  C   UNL     1       1.996  -2.840  27.858  0.00  0.00    -0.003 C 
ATOM     15  C   UNL     1       2.750  -2.418  26.736  0.00  0.00    +0.008 C 
ATOM     16  C   UNL     1       3.601  -1.451  26.954  0.00  0.00    +0.012 C 
ATOM     17  C   UNL     1       3.056  -0.336  27.580  0.00  0.00    +0.049 C 
ATOM     18  C   UNL     1       4.301  -0.784  25.863  0.00  0.00    +0.244 C 
ATOM     19  O   UNL     1       4.597  -1.529  24.933  0.00  0.00    -0.270 OA
ATOM     20  N   UNL     1       4.254   0.776  26.144  0.00  0.00    -0.277 N 
ATOM     21  H   UNL     1       3.670   1.258  26.829  0.00  0.00    +0.155 HD
ATOM     22  C   UNL     1       4.492   1.764  25.285  0.00  0.00    +0.103 A 
ATOM     23  C   UNL     1       4.062   3.109  25.543  0.00  0.00    +0.099 A 
ATOM     24  N   UNL     1       3.222   3.879  26.360  0.00  0.00    -0.298 N 
ATOM     25  C   UNL     1       3.351   5.212  25.932  0.00  0.00    +0.139 A 
ATOM     26  C   UNL     1       2.488   6.203  26.501  0.00  0.00    +0.050 A 
ATOM     27  C   UNL     1       1.463   5.830  27.295  0.00  0.00    -0.046 A 
ATOM     28  C   UNL     1       1.303   4.428  27.672  0.00  0.00    +0.021 A 
ATOM     29  C   UNL     1       0.443   6.808  27.798  0.00  0.00    +0.044 C 
ATOM     30  N   UNL     1       4.105   5.281  24.857  0.00  0.00    -0.227 NA
ATOM     31  C   UNL     1       2.192   3.511  27.241  0.00  0.00    +0.093 A 
ATOM     32  C   UNL     1       4.495   3.980  24.575  0.00  0.00    +0.101 A 
ATOM     33  C   UNL     1       5.331   3.350  23.576  0.00  0.00    +0.031 A 
ATOM     34  C   UNL     1       6.181   4.175  23.048  0.00  0.00    +0.077 A 
ATOM     35  C   UNL     1       6.709   5.332  23.712  0.00  0.00    +0.250 C 
ATOM     36  O   UNL     1       6.627   5.748  24.855  0.00  0.00    -0.284 OA
ATOM     37  C   UNL     1       7.400   5.888  22.511  0.00  0.00    +0.314 C 
ATOM     38  O   UNL     1       7.459   4.914  21.469  0.00  0.00    -0.444 OA
ATOM     39  C   UNL     1       6.525   7.108  22.490  0.00  0.00    +0.114 C 
ATOM     40  O   UNL     1       8.679   6.223  22.339  0.00  0.00    -0.453 OA
ATOM     41  C   UNL     1       9.398   5.356  23.239  0.00  0.00    +0.190 C 
ATOM     42  C   UNL     1       7.195   3.780  22.155  0.00  0.00    +0.143 A 
ATOM     43  C   UNL     1       7.870   2.546  22.143  0.00  0.00    +0.034 A 
ATOM     44  C   UNL     1       7.082   1.601  22.712  0.00  0.00    +0.135 A 
ATOM     45  C   UNL     1       9.375   2.280  21.912  0.00  0.00    +0.051 C 
ATOM     46  C   UNL     1       5.797   2.025  23.334  0.00  0.00    +0.070 A 
ATOM     47  C   UNL     1       5.277   1.250  24.256  0.00  0.00    +0.151 A 
ATOM     48  C   UNL     1       9.170   3.949  23.969  0.00  0.00    +0.042 C 
ENDROOT
BRANCH   1  50
ATOM     49  C   UNL     1       8.374   5.886  27.031  0.00  0.00    +0.194 C 
ATOM     50  O   UNL     1       9.087   4.386  26.034  0.00  0.00    -0.375 OA
ENDBRANCH   1  50
BRANCH   7  51
ATOM     51  O   UNL     1       5.290  -6.146  29.639  0.00  0.00    -0.391 OA
ATOM     52  H   UNL     1       5.012  -5.789  30.577  0.00  0.00    +0.210 HD
ENDBRANCH   7  51
BRANCH  10  53
ATOM     53  O   UNL     1       1.777  -6.437  26.922  0.00  0.00    -0.391 OA
ATOM     54  H   UNL     1       2.536  -6.850  26.466  0.00  0.00    +0.210 HD
ENDBRANCH  10  53
BRANCH  44  55
ATOM     55  O   UNL     1       7.650   0.352  22.977  0.00  0.00    -0.506 OA
ATOM     56  H   UNL     1       7.713  -0.235  22.194  0.00  0.00    +0.292 HD
ENDBRANCH  44  55
BRANCH  47  57
ATOM     57  O   UNL     1       5.863   0.068  24.515  0.00  0.00    -0.504 OA
ATOM     58  H   UNL     1       5.370  -0.645  24.933  0.00  0.00    +0.292 HD
ENDBRANCH  47  57
BRANCH   4  59
ATOM     59  O   UNL     1       7.410  -3.584  26.860  0.00  0.00    -0.461 OA
BRANCH  59  60
ATOM     60  C   UNL     1       8.436  -5.023  26.388  0.00  0.00    +0.304 C 
ATOM     61  O   UNL     1       8.240  -6.075  27.062  0.00  0.00    -0.251 OA
ATOM     62  C   UNL     1       9.992  -5.648  25.269  0.00  0.00    +0.136 C 
ENDBRANCH  59  60
ENDBRANCH   4  59
TORSDOF 7
ENDMDL
