MODEL 1
REMARK VINA RESULT:      -4.4      0.000      0.000
REMARK  Name = 
REMARK  3 active torsions:
REMARK  status: ('A' for Active; 'I' for Inactive)
REMARK    1  A    between atoms: C_1  and  C_2
REMARK    2  A    between atoms: C_5  and  O_6
REMARK    3  A    between atoms: C_8  and  C_9
REMARK                            x       y       z     vdW  Elec       q    Type
REMARK                         _______ _______ _______ _____ _____    ______ ____
ROOT
ATOM      1  C   UNL     1       9.466  -2.852  24.152  0.00  0.00    +0.044 C 
ATOM      2  C   UNL     1       9.536  -1.524  23.449  0.00  0.00    -0.047 A 
ATOM      3  C   UNL     1       9.593  -0.313  24.171  0.00  0.00    -0.044 A 
ATOM      4  C   UNL     1       9.582  -0.292  25.674  0.00  0.00    +0.044 C 
ATOM      5  C   UNL     1       9.677   0.900  23.469  0.00  0.00    +0.049 A 
ATOM      6  C   UNL     1       9.704   0.909  22.079  0.00  0.00    +0.117 A 
ATOM      7  C   UNL     1       9.642  -0.276  21.359  0.00  0.00    +0.045 A 
ATOM      8  C   UNL     1       9.558  -1.489  22.045  0.00  0.00    +0.007 A 
ENDROOT
BRANCH   6   9
ATOM      9  O   UNL     1       9.801   2.116  21.454  0.00  0.00    -0.507 OA
ATOM     10  H   UNL     1      10.151   1.972  20.560  0.00  0.00    +0.292 HD
ENDBRANCH   6   9
TORSDOF 1
ENDMDL
MODEL 2
REMARK VINA RESULT:      -4.3      0.960      2.249
REMARK  Name = 
REMARK  3 active torsions:
REMARK  status: ('A' for Active; 'I' for Inactive)
REMARK    1  A    between atoms: C_1  and  C_2
REMARK    2  A    between atoms: C_5  and  O_6
REMARK    3  A    between atoms: C_8  and  C_9
REMARK                            x       y       z     vdW  Elec       q    Type
REMARK                         _______ _______ _______ _____ _____    ______ ____
ROOT
ATOM      1  C   UNL     1       9.071  -1.930  25.115  0.00  0.00    +0.044 C 
ATOM      2  C   UNL     1       9.419  -0.812  24.169  0.00  0.00    -0.047 A 
ATOM      3  C   UNL     1       9.104  -0.888  22.797  0.00  0.00    -0.044 A 
ATOM      4  C   UNL     1       8.410  -2.088  22.214  0.00  0.00    +0.044 C 
ATOM      5  C   UNL     1       9.431   0.189  21.958  0.00  0.00    +0.049 A 
ATOM      6  C   UNL     1      10.059   1.317  22.474  0.00  0.00    +0.117 A 
ATOM      7  C   UNL     1      10.380   1.399  23.821  0.00  0.00    +0.045 A 
ATOM      8  C   UNL     1      10.060   0.335  24.666  0.00  0.00    +0.007 A 
ENDROOT
BRANCH   6   9
ATOM      9  O   UNL     1      10.340   2.337  21.613  0.00  0.00    -0.507 OA
ATOM     10  H   UNL     1      10.086   3.174  22.035  0.00  0.00    +0.292 HD
ENDBRANCH   6   9
TORSDOF 1
ENDMDL
MODEL 3
REMARK VINA RESULT:      -4.2      1.954      3.619
REMARK  Name = 
REMARK  3 active torsions:
REMARK  status: ('A' for Active; 'I' for Inactive)
REMARK    1  A    between atoms: C_1  and  C_2
REMARK    2  A    between atoms: C_5  and  O_6
REMARK    3  A    between atoms: C_8  and  C_9
REMARK                            x       y       z     vdW  Elec       q    Type
REMARK                         _______ _______ _______ _____ _____    ______ ____
ROOT
ATOM      1  C   UNL     1       9.059   3.154  24.460  0.00  0.00    +0.044 C 
ATOM      2  C   UNL     1       9.342   1.916  23.653  0.00  0.00    -0.047 A 
ATOM      3  C   UNL     1       8.726   1.699  22.403  0.00  0.00    -0.044 A 
ATOM      4  C   UNL     1       7.756   2.689  21.820  0.00  0.00    +0.044 C 
ATOM      5  C   UNL     1       9.038   0.537  21.677  0.00  0.00    +0.049 A 
ATOM      6  C   UNL     1       9.943  -0.388  22.185  0.00  0.00    +0.117 A 
ATOM      7  C   UNL     1      10.549  -0.187  23.418  0.00  0.00    +0.045 A 
ATOM      8  C   UNL     1      10.248   0.963  24.148  0.00  0.00    +0.007 A 
ENDROOT
BRANCH   6   9
ATOM      9  O   UNL     1      10.216  -1.490  21.430  0.00  0.00    -0.507 OA
ATOM     10  H   UNL     1       9.601  -2.197  21.686  0.00  0.00    +0.292 HD
ENDBRANCH   6   9
TORSDOF 1
ENDMDL
MODEL 4
REMARK VINA RESULT:      -4.1      2.061      3.167
REMARK  Name = 
REMARK  3 active torsions:
REMARK  status: ('A' for Active; 'I' for Inactive)
REMARK    1  A    between atoms: C_1  and  C_2
REMARK    2  A    between atoms: C_5  and  O_6
REMARK    3  A    between atoms: C_8  and  C_9
REMARK                            x       y       z     vdW  Elec       q    Type
REMARK                         _______ _______ _______ _____ _____    ______ ____
ROOT
ATOM      1  C   UNL     1       8.819   2.143  21.898  0.00  0.00    +0.044 C 
ATOM      2  C   UNL     1       9.219   0.793  22.429  0.00  0.00    -0.047 A 
ATOM      3  C   UNL     1       9.337   0.555  23.814  0.00  0.00    -0.044 A 
ATOM      4  C   UNL     1       9.075   1.638  24.824  0.00  0.00    +0.044 C 
ATOM      5  C   UNL     1       9.694  -0.728  24.261  0.00  0.00    +0.049 A 
ATOM      6  C   UNL     1       9.927  -1.751  23.350  0.00  0.00    +0.117 A 
ATOM      7  C   UNL     1       9.820  -1.525  21.985  0.00  0.00    +0.045 A 
ATOM      8  C   UNL     1       9.466  -0.256  21.528  0.00  0.00    +0.007 A 
ENDROOT
BRANCH   6   9
ATOM      9  O   UNL     1      10.257  -2.978  23.844  0.00  0.00    -0.507 OA
ATOM     10  H   UNL     1      11.200  -3.134  23.674  0.00  0.00    +0.292 HD
ENDBRANCH   6   9
TORSDOF 1
ENDMDL
MODEL 5
REMARK VINA RESULT:      -4.1      2.215      3.662
REMARK  Name = 
REMARK  3 active torsions:
REMARK  status: ('A' for Active; 'I' for Inactive)
REMARK    1  A    between atoms: C_1  and  C_2
REMARK    2  A    between atoms: C_5  and  O_6
REMARK    3  A    between atoms: C_8  and  C_9
REMARK                            x       y       z     vdW  Elec       q    Type
REMARK                         _______ _______ _______ _____ _____    ______ ____
ROOT
ATOM      1  C   UNL     1      10.916   0.871  24.176  0.00  0.00    +0.044 C 
ATOM      2  C   UNL     1       9.823   1.661  23.507  0.00  0.00    -0.047 A 
ATOM      3  C   UNL     1       9.239   1.226  22.299  0.00  0.00    -0.044 A 
ATOM      4  C   UNL     1       9.682  -0.041  21.621  0.00  0.00    +0.044 C 
ATOM      5  C   UNL     1       8.209   1.988  21.724  0.00  0.00    +0.049 A 
ATOM      6  C   UNL     1       7.770   3.155  22.337  0.00  0.00    +0.117 A 
ATOM      7  C   UNL     1       8.343   3.595  23.522  0.00  0.00    +0.045 A 
ATOM      8  C   UNL     1       9.367   2.847  24.104  0.00  0.00    +0.007 A 
ENDROOT
BRANCH   6   9
ATOM      9  O   UNL     1       6.757   3.845  21.738  0.00  0.00    -0.507 OA
ATOM     10  H   UNL     1       7.092   4.720  21.481  0.00  0.00    +0.292 HD
ENDBRANCH   6   9
TORSDOF 1
ENDMDL
MODEL 6
REMARK VINA RESULT:      -4.0      1.210      1.552
REMARK  Name = 
REMARK  3 active torsions:
REMARK  status: ('A' for Active; 'I' for Inactive)
REMARK    1  A    between atoms: C_1  and  C_2
REMARK    2  A    between atoms: C_5  and  O_6
REMARK    3  A    between atoms: C_8  and  C_9
REMARK                            x       y       z     vdW  Elec       q    Type
REMARK                         _______ _______ _______ _____ _____    ______ ____
ROOT
ATOM      1  C   UNL     1       8.828  -1.791  23.093  0.00  0.00    +0.044 C 
ATOM      2  C   UNL     1       9.312  -0.366  23.103  0.00  0.00    -0.047 A 
ATOM      3  C   UNL     1       9.579   0.309  24.312  0.00  0.00    -0.044 A 
ATOM      4  C   UNL     1       9.390  -0.359  25.646  0.00  0.00    +0.044 C 
ATOM      5  C   UNL     1      10.049   1.632  24.268  0.00  0.00    +0.049 A 
ATOM      6  C   UNL     1      10.246   2.269  23.049  0.00  0.00    +0.117 A 
ATOM      7  C   UNL     1       9.979   1.616  21.854  0.00  0.00    +0.045 A 
ATOM      8  C   UNL     1       9.513   0.301  21.883  0.00  0.00    +0.007 A 
ENDROOT
BRANCH   6   9
ATOM      9  O   UNL     1      10.716   3.549  23.070  0.00  0.00    -0.507 OA
ATOM     10  H   UNL     1      10.240   4.039  23.760  0.00  0.00    +0.292 HD
ENDBRANCH   6   9
TORSDOF 1
ENDMDL
MODEL 7
REMARK VINA RESULT:      -3.9      2.170      3.457
REMARK  Name = 
REMARK  3 active torsions:
REMARK  status: ('A' for Active; 'I' for Inactive)
REMARK    1  A    between atoms: C_1  and  C_2
REMARK    2  A    between atoms: C_5  and  O_6
REMARK    3  A    between atoms: C_8  and  C_9
REMARK                            x       y       z     vdW  Elec       q    Type
REMARK                         _______ _______ _______ _____ _____    ______ ____
ROOT
ATOM      1  C   UNL     1      10.957   0.741  24.562  0.00  0.00    +0.044 C 
ATOM      2  C   UNL     1      10.084  -0.292  23.902  0.00  0.00    -0.047 A 
ATOM      3  C   UNL     1       9.572  -0.097  22.602  0.00  0.00    -0.044 A 
ATOM      4  C   UNL     1       9.869   1.150  21.818  0.00  0.00    +0.044 C 
ATOM      5  C   UNL     1       8.778  -1.100  22.021  0.00  0.00    +0.049 A 
ATOM      6  C   UNL     1       8.500  -2.270  22.719  0.00  0.00    +0.117 A 
ATOM      7  C   UNL     1       8.994  -2.468  24.001  0.00  0.00    +0.045 A 
ATOM      8  C   UNL     1       9.784  -1.480  24.589  0.00  0.00    +0.007 A 
ENDROOT
BRANCH   6   9
ATOM      9  O   UNL     1       7.736  -3.213  22.098  0.00  0.00    -0.507 OA
ATOM     10  H   UNL     1       7.274  -2.792  21.354  0.00  0.00    +0.292 HD
ENDBRANCH   6   9
TORSDOF 1
ENDMDL
MODEL 8
REMARK VINA RESULT:      -3.9      1.639      2.118
REMARK  Name = 
REMARK  3 active torsions:
REMARK  status: ('A' for Active; 'I' for Inactive)
REMARK    1  A    between atoms: C_1  and  C_2
REMARK    2  A    between atoms: C_5  and  O_6
REMARK    3  A    between atoms: C_8  and  C_9
REMARK                            x       y       z     vdW  Elec       q    Type
REMARK                         _______ _______ _______ _____ _____    ______ ____
ROOT
ATOM      1  C   UNL     1       6.782  -1.386  23.700  0.00  0.00    +0.044 C 
ATOM      2  C   UNL     1       7.759  -0.387  23.140  0.00  0.00    -0.047 A 
ATOM      3  C   UNL     1       9.150  -0.611  23.198  0.00  0.00    -0.044 A 
ATOM      4  C   UNL     1       9.723  -1.853  23.824  0.00  0.00    +0.044 C 
ATOM      5  C   UNL     1      10.021   0.341  22.643  0.00  0.00    +0.049 A 
ATOM      6  C   UNL     1       9.518   1.490  22.045  0.00  0.00    +0.117 A 
ATOM      7  C   UNL     1       8.151   1.723  21.989  0.00  0.00    +0.045 A 
ATOM      8  C   UNL     1       7.275   0.785  22.536  0.00  0.00    +0.007 A 
ENDROOT
BRANCH   6   9
ATOM      9  O   UNL     1      10.412   2.372  21.512  0.00  0.00    -0.507 OA
ATOM     10  H   UNL     1      11.282   1.943  21.476  0.00  0.00    +0.292 HD
ENDBRANCH   6   9
TORSDOF 1
ENDMDL
MODEL 9
REMARK VINA RESULT:      -3.9      5.489      6.443
REMARK  Name = 
REMARK  3 active torsions:
REMARK  status: ('A' for Active; 'I' for Inactive)
REMARK    1  A    between atoms: C_1  and  C_2
REMARK    2  A    between atoms: C_5  and  O_6
REMARK    3  A    between atoms: C_8  and  C_9
REMARK                            x       y       z     vdW  Elec       q    Type
REMARK                         _______ _______ _______ _____ _____    ______ ____
ROOT
ATOM      1  C   UNL     1       4.820  -4.677  24.382  0.00  0.00    +0.044 C 
ATOM      2  C   UNL     1       6.255  -4.906  24.770  0.00  0.00    -0.047 A 
ATOM      3  C   UNL     1       7.280  -4.944  23.802  0.00  0.00    -0.044 A 
ATOM      4  C   UNL     1       6.987  -4.763  22.338  0.00  0.00    +0.044 C 
ATOM      5  C   UNL     1       8.608  -5.140  24.217  0.00  0.00    +0.049 A 
ATOM      6  C   UNL     1       8.908  -5.295  25.565  0.00  0.00    +0.117 A 
ATOM      7  C   UNL     1       7.906  -5.266  26.525  0.00  0.00    +0.045 A 
ATOM      8  C   UNL     1       6.583  -5.071  26.126  0.00  0.00    +0.007 A 
ENDROOT
BRANCH   6   9
ATOM      9  O   UNL     1      10.216  -5.468  25.908  0.00  0.00    -0.507 OA
ATOM     10  H   UNL     1      10.411  -4.902  26.673  0.00  0.00    +0.292 HD
ENDBRANCH   6   9
TORSDOF 1
ENDMDL
