MODEL 1
REMARK VINA RESULT:      -6.4      0.000      0.000
REMARK  Name = 
REMARK  5 active torsions:
REMARK  status: ('A' for Active; 'I' for Inactive)
REMARK    1  A    between atoms: C_1  and  C_2
REMARK    2  A    between atoms: C_2  and  C_3
REMARK    3  A    between atoms: C_3  and  C_4
REMARK    4  A    between atoms: C_5  and  S_16
REMARK    5  A    between atoms: S_16  and  C_18
REMARK                            x       y       z     vdW  Elec       q    Type
REMARK                         _______ _______ _______ _____ _____    ______ ____
ROOT
ATOM      1  C   UNL     1       8.170  -3.971  24.997  0.00  0.00    +0.033 A 
ATOM      2  C   UNL     1       9.653  -3.904  24.674  0.00  0.00    +0.253 A 
ATOM      3  O   UNL     1      10.417  -4.853  24.857  0.00  0.00    -0.268 OA
ATOM      4  N   UNL     1      10.162  -2.743  24.191  0.00  0.00    -0.322 N 
ATOM      5  H   UNL     1      11.154  -2.764  23.999  0.00  0.00    +0.169 HD
ATOM      6  C   UNL     1       9.383  -1.689  23.747  0.00  0.00    +0.050 A 
ATOM      7  C   UNL     1       7.996  -1.747  23.914  0.00  0.00    +0.016 A 
ATOM      8  C   UNL     1       7.258  -0.689  23.342  0.00  0.00    +0.031 A 
ATOM      9  C   UNL     1       7.885   0.361  22.661  0.00  0.00    +0.042 A 
ATOM     10  C   UNL     1       9.267   0.398  22.531  0.00  0.00    +0.022 A 
ATOM     11 CL   UNL     1       6.931   1.610  21.961  0.00  0.00    -0.084 Cl
ATOM     12  C   UNL     1      10.020  -0.632  23.080  0.00  0.00    +0.028 A 
ATOM     13  C   UNL     1       7.371  -2.928  24.619  0.00  0.00    +0.057 A 
ENDROOT
BRANCH  13  14
ATOM     14  S   UNL     1       5.588  -2.924  24.530  0.00  0.00    +0.058 S 
ATOM     15  O   UNL     1       5.078  -1.613  25.033  0.00  0.00    -0.252 OA
BRANCH  14  16
ATOM     16  C   UNL     1       4.776  -3.404  22.997  0.00  0.00    +0.083 C 
ATOM     17  C   UNL     1       4.063  -4.763  23.262  0.00  0.00    +0.017 C 
ATOM     18  C   UNL     1       5.042  -5.931  23.475  0.00  0.00    +0.001 C 
ATOM     19  C   UNL     1       6.070  -6.061  22.356  0.00  0.00    +0.000 C 
ATOM     20  C   UNL     1       6.697  -4.730  21.953  0.00  0.00    +0.001 C 
ATOM     21  C   UNL     1       5.677  -3.614  21.782  0.00  0.00    +0.017 C 
ENDBRANCH  14  16
ENDBRANCH  13  14
BRANCH   1  22
ATOM     22  C   UNL     1       7.816  -5.336  25.562  0.00  0.00    +0.041 C 
BRANCH  22  24
ATOM     23  C   UNL     1       5.856  -5.762  27.151  0.00  0.00    +0.004 C 
ATOM     24  C   UNL     1       7.297  -5.318  27.021  0.00  0.00    +0.001 C 
ENDBRANCH  22  24
ENDBRANCH   1  22
TORSDOF 4
ENDMDL
MODEL 2
REMARK VINA RESULT:      -6.3      3.010      5.700
REMARK  Name = 
REMARK  5 active torsions:
REMARK  status: ('A' for Active; 'I' for Inactive)
REMARK    1  A    between atoms: C_1  and  C_2
REMARK    2  A    between atoms: C_2  and  C_3
REMARK    3  A    between atoms: C_3  and  C_4
REMARK    4  A    between atoms: C_5  and  S_16
REMARK    5  A    between atoms: S_16  and  C_18
REMARK                            x       y       z     vdW  Elec       q    Type
REMARK                         _______ _______ _______ _____ _____    ______ ____
ROOT
ATOM      1  C   UNL     1       9.321  -0.752  23.975  0.00  0.00    +0.033 A 
ATOM      2  C   UNL     1       9.599  -1.624  22.762  0.00  0.00    +0.253 A 
ATOM      3  O   UNL     1      10.710  -1.695  22.235  0.00  0.00    -0.268 OA
ATOM      4  N   UNL     1       8.576  -2.332  22.222  0.00  0.00    -0.322 N 
ATOM      5  H   UNL     1       8.827  -2.889  21.417  0.00  0.00    +0.169 HD
ATOM      6  C   UNL     1       7.349  -2.501  22.839  0.00  0.00    +0.050 A 
ATOM      7  C   UNL     1       7.079  -1.811  24.024  0.00  0.00    +0.016 A 
ATOM      8  C   UNL     1       5.853  -2.114  24.653  0.00  0.00    +0.031 A 
ATOM      9  C   UNL     1       4.958  -3.043  24.110  0.00  0.00    +0.042 A 
ATOM     10  C   UNL     1       5.248  -3.696  22.920  0.00  0.00    +0.022 A 
ATOM     11 CL   UNL     1       3.490  -3.392  24.936  0.00  0.00    -0.084 Cl
ATOM     12  C   UNL     1       6.450  -3.421  22.280  0.00  0.00    +0.028 A 
ATOM     13  C   UNL     1       8.103  -0.853  24.587  0.00  0.00    +0.057 A 
ENDROOT
BRANCH  13  14
ATOM     14  S   UNL     1       7.668  -0.249  26.210  0.00  0.00    +0.058 S 
ATOM     15  O   UNL     1       8.662  -0.758  27.203  0.00  0.00    -0.252 OA
BRANCH  14  16
ATOM     16  C   UNL     1       7.338   1.505  26.445  0.00  0.00    +0.083 C 
ATOM     17  C   UNL     1       5.890   1.628  27.008  0.00  0.00    +0.017 C 
ATOM     18  C   UNL     1       4.806   1.240  25.986  0.00  0.00    +0.001 C 
ATOM     19  C   UNL     1       4.943   1.981  24.660  0.00  0.00    +0.000 C 
ATOM     20  C   UNL     1       6.374   2.018  24.133  0.00  0.00    +0.001 C 
ATOM     21  C   UNL     1       7.397   2.384  25.198  0.00  0.00    +0.017 C 
ENDBRANCH  14  16
ENDBRANCH  13  14
BRANCH   1  22
ATOM     22  C   UNL     1      10.583  -0.017  24.395  0.00  0.00    +0.041 C 
BRANCH  22  24
ATOM     23  C   UNL     1      10.193   1.845  22.685  0.00  0.00    +0.004 C 
ATOM     24  C   UNL     1      10.571   1.505  24.110  0.00  0.00    +0.001 C 
ENDBRANCH  22  24
ENDBRANCH   1  22
TORSDOF 4
ENDMDL
MODEL 3
REMARK VINA RESULT:      -6.3      2.989      4.652
REMARK  Name = 
REMARK  5 active torsions:
REMARK  status: ('A' for Active; 'I' for Inactive)
REMARK    1  A    between atoms: C_1  and  C_2
REMARK    2  A    between atoms: C_2  and  C_3
REMARK    3  A    between atoms: C_3  and  C_4
REMARK    4  A    between atoms: C_5  and  S_16
REMARK    5  A    between atoms: S_16  and  C_18
REMARK                            x       y       z     vdW  Elec       q    Type
REMARK                         _______ _______ _______ _____ _____    ______ ____
ROOT
ATOM      1  C   UNL     1       9.229  -1.414  24.422  0.00  0.00    +0.033 A 
ATOM      2  C   UNL     1       9.761  -0.161  25.098  0.00  0.00    +0.253 A 
ATOM      3  O   UNL     1      10.791   0.406  24.731  0.00  0.00    -0.268 OA
ATOM      4  N   UNL     1       9.090   0.336  26.167  0.00  0.00    -0.322 N 
ATOM      5  H   UNL     1       9.497   1.168  26.571  0.00  0.00    +0.169 HD
ATOM      6  C   UNL     1       7.824  -0.079  26.539  0.00  0.00    +0.050 A 
ATOM      7  C   UNL     1       7.234  -1.158  25.872  0.00  0.00    +0.016 A 
ATOM      8  C   UNL     1       5.903  -1.456  26.231  0.00  0.00    +0.031 A 
ATOM      9  C   UNL     1       5.222  -0.720  27.207  0.00  0.00    +0.042 A 
ATOM     10  C   UNL     1       5.844   0.332  27.865  0.00  0.00    +0.022 A 
ATOM     11 CL   UNL     1       3.590  -1.113  27.584  0.00  0.00    -0.084 Cl
ATOM     12  C   UNL     1       7.153   0.652  27.531  0.00  0.00    +0.028 A 
ATOM     13  C   UNL     1       8.002  -1.887  24.794  0.00  0.00    +0.057 A 
ENDROOT
BRANCH  13  14
ATOM     14  S   UNL     1       7.002  -3.076  23.915  0.00  0.00    +0.058 S 
ATOM     15  O   UNL     1       6.818  -2.613  22.507  0.00  0.00    -0.252 OA
BRANCH  14  16
ATOM     16  C   UNL     1       7.433  -4.822  23.986  0.00  0.00    +0.083 C 
ATOM     17  C   UNL     1       6.283  -5.548  24.746  0.00  0.00    +0.017 C 
ATOM     18  C   UNL     1       6.217  -5.182  26.240  0.00  0.00    +0.001 C 
ATOM     19  C   UNL     1       7.550  -5.364  26.959  0.00  0.00    +0.000 C 
ATOM     20  C   UNL     1       8.737  -4.799  26.185  0.00  0.00    +0.001 C 
ATOM     21  C   UNL     1       8.728  -5.178  24.711  0.00  0.00    +0.017 C 
ENDBRANCH  14  16
ENDBRANCH  13  14
BRANCH   1  22
ATOM     22  C   UNL     1      10.146  -1.825  23.282  0.00  0.00    +0.041 C 
BRANCH  22  24
ATOM     23  C   UNL     1       9.581   0.034  21.617  0.00  0.00    +0.004 C 
ATOM     24  C   UNL     1       9.628  -1.458  21.870  0.00  0.00    +0.001 C 
ENDBRANCH  22  24
ENDBRANCH   1  22
TORSDOF 4
ENDMDL
MODEL 4
REMARK VINA RESULT:      -6.0      3.301      6.035
REMARK  Name = 
REMARK  5 active torsions:
REMARK  status: ('A' for Active; 'I' for Inactive)
REMARK    1  A    between atoms: C_1  and  C_2
REMARK    2  A    between atoms: C_2  and  C_3
REMARK    3  A    between atoms: C_3  and  C_4
REMARK    4  A    between atoms: C_5  and  S_16
REMARK    5  A    between atoms: S_16  and  C_18
REMARK                            x       y       z     vdW  Elec       q    Type
REMARK                         _______ _______ _______ _____ _____    ______ ____
ROOT
ATOM      1  C   UNL     1       5.789   0.463  25.445  0.00  0.00    +0.033 A 
ATOM      2  C   UNL     1       4.806  -0.272  26.342  0.00  0.00    +0.253 A 
ATOM      3  O   UNL     1       4.196   0.285  27.256  0.00  0.00    -0.268 OA
ATOM      4  N   UNL     1       4.614  -1.601  26.146  0.00  0.00    -0.322 N 
ATOM      5  H   UNL     1       3.951  -2.029  26.776  0.00  0.00    +0.169 HD
ATOM      6  C   UNL     1       5.072  -2.286  25.035  0.00  0.00    +0.050 A 
ATOM      7  C   UNL     1       5.888  -1.626  24.111  0.00  0.00    +0.016 A 
ATOM      8  C   UNL     1       6.227  -2.353  22.951  0.00  0.00    +0.031 A 
ATOM      9  C   UNL     1       5.780  -3.664  22.748  0.00  0.00    +0.042 A 
ATOM     10  C   UNL     1       4.987  -4.298  23.695  0.00  0.00    +0.022 A 
ATOM     11 CL   UNL     1       6.203  -4.492  21.301  0.00  0.00    -0.084 Cl
ATOM     12  C   UNL     1       4.633  -3.606  24.846  0.00  0.00    +0.028 A 
ATOM     13  C   UNL     1       6.302  -0.194  24.362  0.00  0.00    +0.057 A 
ENDROOT
BRANCH  13  14
ATOM     14  S   UNL     1       7.148   0.536  22.970  0.00  0.00    +0.058 S 
ATOM     15  O   UNL     1       6.359   1.706  22.478  0.00  0.00    -0.252 OA
BRANCH  14  16
ATOM     16  C   UNL     1       8.899   0.929  23.102  0.00  0.00    +0.083 C 
ATOM     17  C   UNL     1       9.590   0.384  21.816  0.00  0.00    +0.017 C 
ATOM     18  C   UNL     1       9.619  -1.153  21.747  0.00  0.00    +0.001 C 
ATOM     19  C   UNL     1      10.208  -1.796  22.999  0.00  0.00    +0.000 C 
ATOM     20  C   UNL     1       9.672  -1.197  24.296  0.00  0.00    +0.001 C 
ATOM     21  C   UNL     1       9.648   0.325  24.288  0.00  0.00    +0.017 C 
ENDBRANCH  14  16
ENDBRANCH  13  14
BRANCH   1  22
ATOM     22  C   UNL     1       5.887   1.922  25.857  0.00  0.00    +0.041 C 
BRANCH  22  24
ATOM     23  C   UNL     1       7.851   3.531  25.547  0.00  0.00    +0.004 C 
ATOM     24  C   UNL     1       7.291   2.367  26.334  0.00  0.00    +0.001 C 
ENDBRANCH  22  24
ENDBRANCH   1  22
TORSDOF 4
ENDMDL
MODEL 5
REMARK VINA RESULT:      -6.0      2.773      5.185
REMARK  Name = 
REMARK  5 active torsions:
REMARK  status: ('A' for Active; 'I' for Inactive)
REMARK    1  A    between atoms: C_1  and  C_2
REMARK    2  A    between atoms: C_2  and  C_3
REMARK    3  A    between atoms: C_3  and  C_4
REMARK    4  A    between atoms: C_5  and  S_16
REMARK    5  A    between atoms: S_16  and  C_18
REMARK                            x       y       z     vdW  Elec       q    Type
REMARK                         _______ _______ _______ _____ _____    ______ ____
ROOT
ATOM      1  C   UNL     1       6.856  -4.555  24.112  0.00  0.00    +0.033 A 
ATOM      2  C   UNL     1       5.506  -4.973  24.671  0.00  0.00    +0.253 A 
ATOM      3  O   UNL     1       4.991  -6.063  24.420  0.00  0.00    -0.268 OA
ATOM      4  N   UNL     1       4.830  -4.098  25.458  0.00  0.00    -0.322 N 
ATOM      5  H   UNL     1       3.939  -4.436  25.795  0.00  0.00    +0.169 HD
ATOM      6  C   UNL     1       5.387  -2.945  25.980  0.00  0.00    +0.050 A 
ATOM      7  C   UNL     1       6.676  -2.570  25.588  0.00  0.00    +0.016 A 
ATOM      8  C   UNL     1       7.221  -1.445  26.241  0.00  0.00    +0.031 A 
ATOM      9  C   UNL     1       6.502  -0.740  27.214  0.00  0.00    +0.042 A 
ATOM     10  C   UNL     1       5.216  -1.127  27.565  0.00  0.00    +0.022 A 
ATOM     11 CL   UNL     1       7.228   0.609  27.996  0.00  0.00    -0.084 Cl
ATOM     12  C   UNL     1       4.655  -2.234  26.942  0.00  0.00    +0.028 A 
ATOM     13  C   UNL     1       7.421  -3.396  24.565  0.00  0.00    +0.057 A 
ENDROOT
BRANCH  13  14
ATOM     14  S   UNL     1       9.122  -2.887  24.370  0.00  0.00    +0.058 S 
ATOM     15  O   UNL     1      10.012  -4.067  24.588  0.00  0.00    -0.252 OA
BRANCH  14  16
ATOM     16  C   UNL     1       9.606  -1.954  22.909  0.00  0.00    +0.083 C 
ATOM     17  C   UNL     1      10.481  -0.760  23.397  0.00  0.00    +0.017 C 
ATOM     18  C   UNL     1       9.684   0.292  24.189  0.00  0.00    +0.001 C 
ATOM     19  C   UNL     1       8.446   0.786  23.448  0.00  0.00    +0.000 C 
ATOM     20  C   UNL     1       7.627  -0.338  22.822  0.00  0.00    +0.001 C 
ATOM     21  C   UNL     1       8.477  -1.355  22.075  0.00  0.00    +0.017 C 
ENDBRANCH  14  16
ENDBRANCH  13  14
BRANCH   1  22
ATOM     22  C   UNL     1       7.422  -5.654  23.229  0.00  0.00    +0.041 C 
BRANCH  22  24
ATOM     23  C   UNL     1       6.094  -5.833  21.050  0.00  0.00    +0.004 C 
ATOM     24  C   UNL     1       7.369  -5.357  21.710  0.00  0.00    +0.001 C 
ENDBRANCH  22  24
ENDBRANCH   1  22
TORSDOF 4
ENDMDL
MODEL 6
REMARK VINA RESULT:      -6.0      3.607      5.520
REMARK  Name = 
REMARK  5 active torsions:
REMARK  status: ('A' for Active; 'I' for Inactive)
REMARK    1  A    between atoms: C_1  and  C_2
REMARK    2  A    between atoms: C_2  and  C_3
REMARK    3  A    between atoms: C_3  and  C_4
REMARK    4  A    between atoms: C_5  and  S_16
REMARK    5  A    between atoms: S_16  and  C_18
REMARK                            x       y       z     vdW  Elec       q    Type
REMARK                         _______ _______ _______ _____ _____    ______ ____
ROOT
ATOM      1  C   UNL     1       6.967  -5.061  24.916  0.00  0.00    +0.033 A 
ATOM      2  C   UNL     1       8.084  -5.451  25.869  0.00  0.00    +0.253 A 
ATOM      3  O   UNL     1       9.270  -5.459  25.537  0.00  0.00    -0.268 OA
ATOM      4  N   UNL     1       7.759  -5.833  27.130  0.00  0.00    -0.322 N 
ATOM      5  H   UNL     1       8.547  -6.081  27.712  0.00  0.00    +0.169 HD
ATOM      6  C   UNL     1       6.502  -5.665  27.683  0.00  0.00    +0.050 A 
ATOM      7  C   UNL     1       5.457  -5.197  26.879  0.00  0.00    +0.016 A 
ATOM      8  C   UNL     1       4.233  -4.949  27.534  0.00  0.00    +0.031 A 
ATOM      9  C   UNL     1       4.075  -5.173  28.906  0.00  0.00    +0.042 A 
ATOM     10  C   UNL     1       5.127  -5.657  29.673  0.00  0.00    +0.022 A 
ATOM     11 CL   UNL     1       2.566  -4.826  29.656  0.00  0.00    -0.084 Cl
ATOM     12  C   UNL     1       6.346  -5.908  29.056  0.00  0.00    +0.028 A 
ATOM     13  C   UNL     1       5.700  -4.931  25.411  0.00  0.00    +0.057 A 
ENDROOT
BRANCH  13  14
ATOM     14  S   UNL     1       4.316  -4.131  24.616  0.00  0.00    +0.058 S 
ATOM     15  O   UNL     1       4.778  -2.845  24.011  0.00  0.00    -0.252 OA
BRANCH  14  16
ATOM     16  C   UNL     1       3.287  -5.067  23.473  0.00  0.00    +0.083 C 
ATOM     17  C   UNL     1       1.808  -4.875  23.925  0.00  0.00    +0.017 C 
ATOM     18  C   UNL     1       1.489  -5.560  25.265  0.00  0.00    +0.001 C 
ATOM     19  C   UNL     1       1.883  -7.034  25.291  0.00  0.00    +0.000 C 
ATOM     20  C   UNL     1       3.273  -7.298  24.721  0.00  0.00    +0.001 C 
ATOM     21  C   UNL     1       3.532  -6.572  23.409  0.00  0.00    +0.017 C 
ENDBRANCH  14  16
ENDBRANCH  13  14
BRANCH   1  22
ATOM     22  C   UNL     1       7.538  -4.710  23.552  0.00  0.00    +0.041 C 
BRANCH  22  24
ATOM     23  C   UNL     1       6.389  -5.356  21.359  0.00  0.00    +0.004 C 
ATOM     24  C   UNL     1       7.328  -5.791  22.464  0.00  0.00    +0.001 C 
ENDBRANCH  22  24
ENDBRANCH   1  22
TORSDOF 4
ENDMDL
MODEL 7
REMARK VINA RESULT:      -6.0      2.329      3.863
REMARK  Name = 
REMARK  5 active torsions:
REMARK  status: ('A' for Active; 'I' for Inactive)
REMARK    1  A    between atoms: C_1  and  C_2
REMARK    2  A    between atoms: C_2  and  C_3
REMARK    3  A    between atoms: C_3  and  C_4
REMARK    4  A    between atoms: C_5  and  S_16
REMARK    5  A    between atoms: S_16  and  C_18
REMARK                            x       y       z     vdW  Elec       q    Type
REMARK                         _______ _______ _______ _____ _____    ______ ____
ROOT
ATOM      1  C   UNL     1       8.039  -3.002  25.189  0.00  0.00    +0.033 A 
ATOM      2  C   UNL     1       9.315  -3.464  24.505  0.00  0.00    +0.253 A 
ATOM      3  O   UNL     1       9.795  -4.584  24.680  0.00  0.00    -0.268 OA
ATOM      4  N   UNL     1       9.966  -2.596  23.690  0.00  0.00    -0.322 N 
ATOM      5  H   UNL     1      10.808  -2.964  23.268  0.00  0.00    +0.169 HD
ATOM      6  C   UNL     1       9.424  -1.401  23.251  0.00  0.00    +0.050 A 
ATOM      7  C   UNL     1       8.192  -0.980  23.761  0.00  0.00    +0.016 A 
ATOM      8  C   UNL     1       7.651   0.190  23.190  0.00  0.00    +0.031 A 
ATOM      9  C   UNL     1       8.319   0.892  22.180  0.00  0.00    +0.042 A 
ATOM     10  C   UNL     1       9.551   0.458  21.710  0.00  0.00    +0.022 A 
ATOM     11 CL   UNL     1       7.598   2.299  21.502  0.00  0.00    -0.084 Cl
ATOM     12  C   UNL     1      10.108  -0.694  22.251  0.00  0.00    +0.028 A 
ATOM     13  C   UNL     1       7.495  -1.804  24.820  0.00  0.00    +0.057 A 
ENDROOT
BRANCH  13  14
ATOM     14  S   UNL     1       5.844  -1.223  25.172  0.00  0.00    +0.058 S 
ATOM     15  O   UNL     1       4.859  -2.261  24.743  0.00  0.00    -0.252 OA
BRANCH  14  16
ATOM     16  C   UNL     1       5.460  -0.586  26.811  0.00  0.00    +0.083 C 
ATOM     17  C   UNL     1       4.338   0.481  26.637  0.00  0.00    +0.017 C 
ATOM     18  C   UNL     1       4.816   1.752  25.912  0.00  0.00    +0.001 C 
ATOM     19  C   UNL     1       6.062   2.365  26.542  0.00  0.00    +0.000 C 
ATOM     20  C   UNL     1       7.142   1.339  26.870  0.00  0.00    +0.001 C 
ATOM     21  C   UNL     1       6.599   0.098  27.563  0.00  0.00    +0.017 C 
ENDBRANCH  14  16
ENDBRANCH  13  14
BRANCH   1  22
ATOM     22  C   UNL     1       7.495  -4.103  26.085  0.00  0.00    +0.041 C 
BRANCH  22  24
ATOM     23  C   UNL     1       5.711  -5.925  26.292  0.00  0.00    +0.004 C 
ATOM     24  C   UNL     1       6.621  -5.155  25.360  0.00  0.00    +0.001 C 
ENDBRANCH  22  24
ENDBRANCH   1  22
TORSDOF 4
ENDMDL
MODEL 8
REMARK VINA RESULT:      -5.8      2.608      4.846
REMARK  Name = 
REMARK  5 active torsions:
REMARK  status: ('A' for Active; 'I' for Inactive)
REMARK    1  A    between atoms: C_1  and  C_2
REMARK    2  A    between atoms: C_2  and  C_3
REMARK    3  A    between atoms: C_3  and  C_4
REMARK    4  A    between atoms: C_5  and  S_16
REMARK    5  A    between atoms: S_16  and  C_18
REMARK                            x       y       z     vdW  Elec       q    Type
REMARK                         _______ _______ _______ _____ _____    ______ ____
ROOT
ATOM      1  C   UNL     1       8.097  -4.249  25.100  0.00  0.00    +0.033 A 
ATOM      2  C   UNL     1       8.871  -4.974  26.188  0.00  0.00    +0.253 A 
ATOM      3  O   UNL     1      10.101  -5.012  26.216  0.00  0.00    -0.268 OA
ATOM      4  N   UNL     1       8.177  -5.630  27.152  0.00  0.00    -0.322 N 
ATOM      5  H   UNL     1       8.750  -6.093  27.844  0.00  0.00    +0.169 HD
ATOM      6  C   UNL     1       6.815  -5.488  27.349  0.00  0.00    +0.050 A 
ATOM      7  C   UNL     1       6.067  -4.733  26.440  0.00  0.00    +0.016 A 
ATOM      8  C   UNL     1       4.708  -4.542  26.763  0.00  0.00    +0.031 A 
ATOM      9  C   UNL     1       4.143  -5.090  27.920  0.00  0.00    +0.042 A 
ATOM     10  C   UNL     1       4.909  -5.853  28.792  0.00  0.00    +0.022 A 
ATOM     11 CL   UNL     1       2.484  -4.801  28.276  0.00  0.00    -0.084 Cl
ATOM     12  C   UNL     1       6.252  -6.055  28.503  0.00  0.00    +0.028 A 
ATOM     13  C   UNL     1       6.742  -4.128  25.231  0.00  0.00    +0.057 A 
ENDROOT
BRANCH  13  14
ATOM     14  S   UNL     1       5.673  -3.022  24.324  0.00  0.00    +0.058 S 
ATOM     15  O   UNL     1       6.339  -1.690  24.204  0.00  0.00    -0.252 OA
BRANCH  14  16
ATOM     16  C   UNL     1       4.973  -3.555  22.754  0.00  0.00    +0.083 C 
ATOM     17  C   UNL     1       4.288  -4.932  23.002  0.00  0.00    +0.017 C 
ATOM     18  C   UNL     1       5.289  -6.064  23.297  0.00  0.00    +0.001 C 
ATOM     19  C   UNL     1       6.387  -6.179  22.245  0.00  0.00    +0.000 C 
ATOM     20  C   UNL     1       6.995  -4.835  21.855  0.00  0.00    +0.001 C 
ATOM     21  C   UNL     1       5.953  -3.756  21.601  0.00  0.00    +0.017 C 
ENDBRANCH  14  16
ENDBRANCH  13  14
BRANCH   1  22
ATOM     22  C   UNL     1       9.056  -3.621  24.102  0.00  0.00    +0.041 C 
BRANCH  22  24
ATOM     23  C   UNL     1       9.955  -1.379  23.258  0.00  0.00    +0.004 C 
ATOM     24  C   UNL     1       9.514  -2.186  24.460  0.00  0.00    +0.001 C 
ENDBRANCH  22  24
ENDBRANCH   1  22
TORSDOF 4
ENDMDL
MODEL 9
REMARK VINA RESULT:      -5.8      5.337      7.918
REMARK  Name = 
REMARK  5 active torsions:
REMARK  status: ('A' for Active; 'I' for Inactive)
REMARK    1  A    between atoms: C_1  and  C_2
REMARK    2  A    between atoms: C_2  and  C_3
REMARK    3  A    between atoms: C_3  and  C_4
REMARK    4  A    between atoms: C_5  and  S_16
REMARK    5  A    between atoms: S_16  and  C_18
REMARK                            x       y       z     vdW  Elec       q    Type
REMARK                         _______ _______ _______ _____ _____    ______ ____
ROOT
ATOM      1  C   UNL     1       9.818   4.372  23.960  0.00  0.00    +0.033 A 
ATOM      2  C   UNL     1      11.087   3.695  23.467  0.00  0.00    +0.253 A 
ATOM      3  O   UNL     1      12.060   4.328  23.055  0.00  0.00    -0.268 OA
ATOM      4  N   UNL     1      11.138   2.339  23.454  0.00  0.00    -0.322 N 
ATOM      5  H   UNL     1      12.008   1.953  23.113  0.00  0.00    +0.169 HD
ATOM      6  C   UNL     1      10.207   1.530  24.079  0.00  0.00    +0.050 A 
ATOM      7  C   UNL     1       9.072   2.111  24.655  0.00  0.00    +0.016 A 
ATOM      8  C   UNL     1       8.223   1.239  25.368  0.00  0.00    +0.031 A 
ATOM      9  C   UNL     1       8.498  -0.129  25.477  0.00  0.00    +0.042 A 
ATOM     10  C   UNL     1       9.623  -0.677  24.877  0.00  0.00    +0.022 A 
ATOM     11 CL   UNL     1       7.439  -1.139  26.382  0.00  0.00    -0.084 Cl
ATOM     12  C   UNL     1      10.481   0.157  24.172  0.00  0.00    +0.028 A 
ATOM     13  C   UNL     1       8.851   3.602  24.541  0.00  0.00    +0.057 A 
ENDROOT
BRANCH  13  14
ATOM     14  S   UNL     1       7.476   4.173  25.527  0.00  0.00    +0.058 S 
ATOM     15  O   UNL     1       7.999   4.974  26.675  0.00  0.00    -0.252 OA
BRANCH  14  16
ATOM     16  C   UNL     1       6.091   4.996  24.724  0.00  0.00    +0.083 C 
ATOM     17  C   UNL     1       4.861   4.048  24.848  0.00  0.00    +0.017 C 
ATOM     18  C   UNL     1       4.994   2.767  24.005  0.00  0.00    +0.001 C 
ATOM     19  C   UNL     1       5.326   3.046  22.543  0.00  0.00    +0.000 C 
ATOM     20  C   UNL     1       6.430   4.083  22.360  0.00  0.00    +0.001 C 
ATOM     21  C   UNL     1       6.251   5.312  23.239  0.00  0.00    +0.017 C 
ENDBRANCH  14  16
ENDBRANCH  13  14
BRANCH   1  22
ATOM     22  C   UNL     1       9.952   5.881  23.853  0.00  0.00    +0.041 C 
BRANCH  22  24
ATOM     23  C   UNL     1      10.337   7.108  26.065  0.00  0.00    +0.004 C 
ATOM     24  C   UNL     1      10.975   6.512  24.829  0.00  0.00    +0.001 C 
ENDBRANCH  22  24
ENDBRANCH   1  22
TORSDOF 4
ENDMDL
