MODEL 1
REMARK VINA RESULT:      -6.1      0.000      0.000
REMARK  Name = 
REMARK  7 active torsions:
REMARK  status: ('A' for Active; 'I' for Inactive)
REMARK    1  A    between atoms: O_1  and  C_2
REMARK    2  A    between atoms: C_2  and  C_3
REMARK    3  A    between atoms: C_3  and  O_4
REMARK    4  A    between atoms: O_4  and  C_5
REMARK    5  A    between atoms: C_5  and  N_6
REMARK    6  A    between atoms: C_8  and  S_9
REMARK    7  A    between atoms: S_9  and  C_10
REMARK                            x       y       z     vdW  Elec       q    Type
REMARK                         _______ _______ _______ _____ _____    ______ ____
ROOT
ATOM      1  N   UNL     1       6.622  -4.499  26.318  0.00  0.00    -0.276 N 
ATOM      2  C   UNL     1       7.629  -5.182  26.975  0.00  0.00    +0.331 A 
ATOM      3  O   UNL     1       7.466  -5.878  27.974  0.00  0.00    -0.246 OA
ATOM      4  N   UNL     1       8.878  -5.057  26.421  0.00  0.00    -0.274 N 
ATOM      5  H   UNL     1       9.613  -5.590  26.858  0.00  0.00    +0.173 HD
ATOM      6  C   UNL     1       9.154  -4.539  25.182  0.00  0.00    +0.268 A 
ATOM      7  O   UNL     1      10.258  -4.701  24.671  0.00  0.00    -0.267 OA
ATOM      8  C   UNL     1       8.035  -3.797  24.529  0.00  0.00    +0.093 A 
ATOM      9  C   UNL     1       6.858  -3.775  25.164  0.00  0.00    +0.113 A 
ENDROOT
BRANCH   1  10
ATOM     10  C   UNL     1       5.246  -4.702  26.742  0.00  0.00    +0.289 C 
BRANCH  10  11
ATOM     11  O   UNL     1       4.645  -5.552  25.769  0.00  0.00    -0.357 OA
BRANCH  11  12
ATOM     12  C   UNL     1       4.408  -6.861  26.273  0.00  0.00    +0.190 C 
BRANCH  12  13
ATOM     13  C   UNL     1       4.261  -6.775  27.787  0.00  0.00    +0.184 C 
BRANCH  13  14
ATOM     14  O   UNL     1       5.213  -7.616  28.420  0.00  0.00    -0.393 OA
ATOM     15  H   UNL     1       4.934  -7.709  29.348  0.00  0.00    +0.209 HD
ENDBRANCH  13  14
ENDBRANCH  12  13
ENDBRANCH  11  12
ENDBRANCH  10  11
ENDBRANCH   1  10
BRANCH   8  16
ATOM     16  S   UNL     1       8.362  -2.971  23.056  0.00  0.00    -0.083 S 
BRANCH  16  17
ATOM     17  C   UNL     1       9.139  -1.422  23.508  0.00  0.00    +0.013 A 
ATOM     18  C   UNL     1       9.473  -0.576  22.437  0.00  0.00    +0.015 A 
ATOM     19  C   UNL     1      10.152   0.629  22.644  0.00  0.00    +0.001 A 
ATOM     20  C   UNL     1      10.512   1.010  23.932  0.00  0.00    +0.000 A 
ATOM     21  C   UNL     1      10.165   0.201  25.010  0.00  0.00    +0.001 A 
ATOM     22  C   UNL     1       9.471  -0.999  24.802  0.00  0.00    +0.015 A 
ENDBRANCH  16  17
ENDBRANCH   8  16
TORSDOF 7
ENDMDL
MODEL 2
REMARK VINA RESULT:      -5.7      3.852      6.969
REMARK  Name = 
REMARK  7 active torsions:
REMARK  status: ('A' for Active; 'I' for Inactive)
REMARK    1  A    between atoms: O_1  and  C_2
REMARK    2  A    between atoms: C_2  and  C_3
REMARK    3  A    between atoms: C_3  and  O_4
REMARK    4  A    between atoms: O_4  and  C_5
REMARK    5  A    between atoms: C_5  and  N_6
REMARK    6  A    between atoms: C_8  and  S_9
REMARK    7  A    between atoms: S_9  and  C_10
REMARK                            x       y       z     vdW  Elec       q    Type
REMARK                         _______ _______ _______ _____ _____    ______ ____
ROOT
ATOM      1  N   UNL     1       8.692   0.177  24.567  0.00  0.00    -0.276 N 
ATOM      2  C   UNL     1       9.980  -0.075  24.132  0.00  0.00    +0.331 A 
ATOM      3  O   UNL     1      10.846   0.782  23.976  0.00  0.00    -0.246 OA
ATOM      4  N   UNL     1      10.267  -1.394  23.888  0.00  0.00    -0.274 N 
ATOM      5  H   UNL     1      11.216  -1.600  23.618  0.00  0.00    +0.173 HD
ATOM      6  C   UNL     1       9.495  -2.463  24.264  0.00  0.00    +0.268 A 
ATOM      7  O   UNL     1       9.950  -3.603  24.232  0.00  0.00    -0.267 OA
ATOM      8  C   UNL     1       8.109  -2.132  24.708  0.00  0.00    +0.093 A 
ATOM      9  C   UNL     1       7.776  -0.839  24.777  0.00  0.00    +0.113 A 
ENDROOT
BRANCH   1  10
ATOM     10  C   UNL     1       8.349   1.522  24.999  0.00  0.00    +0.289 C 
BRANCH  10  11
ATOM     11  O   UNL     1       7.434   2.035  24.033  0.00  0.00    -0.357 OA
BRANCH  11  12
ATOM     12  C   UNL     1       8.059   2.938  23.129  0.00  0.00    +0.190 C 
BRANCH  12  13
ATOM     13  C   UNL     1       8.212   2.243  21.782  0.00  0.00    +0.184 C 
BRANCH  13  14
ATOM     14  O   UNL     1       9.587   2.116  21.449  0.00  0.00    -0.393 OA
ATOM     15  H   UNL     1       9.875   2.981  21.108  0.00  0.00    +0.209 HD
ENDBRANCH  13  14
ENDBRANCH  12  13
ENDBRANCH  11  12
ENDBRANCH  10  11
ENDBRANCH   1  10
BRANCH   8  16
ATOM     16  S   UNL     1       7.028  -3.433  25.026  0.00  0.00    -0.083 S 
BRANCH  16  17
ATOM     17  C   UNL     1       6.631  -4.158  23.437  0.00  0.00    +0.013 A 
ATOM     18  C   UNL     1       6.916  -5.527  23.307  0.00  0.00    +0.015 A 
ATOM     19  C   UNL     1       6.725  -6.200  22.096  0.00  0.00    +0.001 A 
ATOM     20  C   UNL     1       6.245  -5.511  20.988  0.00  0.00    +0.000 A 
ATOM     21  C   UNL     1       5.928  -4.161  21.103  0.00  0.00    +0.001 A 
ATOM     22  C   UNL     1       6.105  -3.492  22.322  0.00  0.00    +0.015 A 
ENDBRANCH  16  17
ENDBRANCH   8  16
TORSDOF 7
ENDMDL
MODEL 3
REMARK VINA RESULT:      -5.7      3.287      7.134
REMARK  Name = 
REMARK  7 active torsions:
REMARK  status: ('A' for Active; 'I' for Inactive)
REMARK    1  A    between atoms: O_1  and  C_2
REMARK    2  A    between atoms: C_2  and  C_3
REMARK    3  A    between atoms: C_3  and  O_4
REMARK    4  A    between atoms: O_4  and  C_5
REMARK    5  A    between atoms: C_5  and  N_6
REMARK    6  A    between atoms: C_8  and  S_9
REMARK    7  A    between atoms: S_9  and  C_10
REMARK                            x       y       z     vdW  Elec       q    Type
REMARK                         _______ _______ _______ _____ _____    ______ ____
ROOT
ATOM      1  N   UNL     1       8.423  -0.938  23.922  0.00  0.00    -0.276 N 
ATOM      2  C   UNL     1       9.548  -1.355  23.235  0.00  0.00    +0.331 A 
ATOM      3  O   UNL     1      10.196  -0.653  22.462  0.00  0.00    -0.246 OA
ATOM      4  N   UNL     1       9.940  -2.646  23.483  0.00  0.00    -0.274 N 
ATOM      5  H   UNL     1      10.787  -2.949  23.028  0.00  0.00    +0.173 HD
ATOM      6  C   UNL     1       9.476  -3.441  24.499  0.00  0.00    +0.268 A 
ATOM      7  O   UNL     1      10.062  -4.478  24.797  0.00  0.00    -0.267 OA
ATOM      8  C   UNL     1       8.249  -2.949  25.193  0.00  0.00    +0.093 A 
ATOM      9  C   UNL     1       7.767  -1.758  24.822  0.00  0.00    +0.113 A 
ENDROOT
BRANCH   1  10
ATOM     10  C   UNL     1       8.030   0.459  23.841  0.00  0.00    +0.289 C 
BRANCH  10  11
ATOM     11  O   UNL     1       7.223   0.585  22.673  0.00  0.00    -0.357 OA
BRANCH  11  12
ATOM     12  C   UNL     1       7.451   1.813  21.993  0.00  0.00    +0.190 C 
BRANCH  12  13
ATOM     13  C   UNL     1       8.791   2.376  22.449  0.00  0.00    +0.184 C 
BRANCH  13  14
ATOM     14  O   UNL     1       9.783   2.141  21.461  0.00  0.00    -0.393 OA
ATOM     15  H   UNL     1       9.400   1.515  20.821  0.00  0.00    +0.209 HD
ENDBRANCH  13  14
ENDBRANCH  12  13
ENDBRANCH  11  12
ENDBRANCH  10  11
ENDBRANCH   1  10
BRANCH   8  16
ATOM     16  S   UNL     1       7.510  -3.978  26.358  0.00  0.00    -0.083 S 
BRANCH  16  17
ATOM     17  C   UNL     1       6.362  -5.017  25.457  0.00  0.00    +0.013 A 
ATOM     18  C   UNL     1       5.573  -5.871  26.244  0.00  0.00    +0.015 A 
ATOM     19  C   UNL     1       4.690  -6.788  25.664  0.00  0.00    +0.001 A 
ATOM     20  C   UNL     1       4.583  -6.868  24.281  0.00  0.00    +0.000 A 
ATOM     21  C   UNL     1       5.335  -6.010  23.483  0.00  0.00    +0.001 A 
ATOM     22  C   UNL     1       6.207  -5.082  24.066  0.00  0.00    +0.015 A 
ENDBRANCH  16  17
ENDBRANCH   8  16
TORSDOF 7
ENDMDL
MODEL 4
REMARK VINA RESULT:      -5.7      4.037      7.410
REMARK  Name = 
REMARK  7 active torsions:
REMARK  status: ('A' for Active; 'I' for Inactive)
REMARK    1  A    between atoms: O_1  and  C_2
REMARK    2  A    between atoms: C_2  and  C_3
REMARK    3  A    between atoms: C_3  and  O_4
REMARK    4  A    between atoms: O_4  and  C_5
REMARK    5  A    between atoms: C_5  and  N_6
REMARK    6  A    between atoms: C_8  and  S_9
REMARK    7  A    between atoms: S_9  and  C_10
REMARK                            x       y       z     vdW  Elec       q    Type
REMARK                         _______ _______ _______ _____ _____    ______ ____
ROOT
ATOM      1  N   UNL     1       8.044   0.067  22.629  0.00  0.00    -0.276 N 
ATOM      2  C   UNL     1       9.346  -0.036  22.175  0.00  0.00    +0.331 A 
ATOM      3  O   UNL     1       9.933   0.832  21.533  0.00  0.00    -0.246 OA
ATOM      4  N   UNL     1       9.992  -1.199  22.509  0.00  0.00    -0.274 N 
ATOM      5  H   UNL     1      10.958  -1.266  22.228  0.00  0.00    +0.173 HD
ATOM      6  C   UNL     1       9.557  -2.119  23.426  0.00  0.00    +0.268 A 
ATOM      7  O   UNL     1      10.315  -2.990  23.843  0.00  0.00    -0.267 OA
ATOM      8  C   UNL     1       8.138  -1.971  23.867  0.00  0.00    +0.093 A 
ATOM      9  C   UNL     1       7.455  -0.922  23.396  0.00  0.00    +0.113 A 
ENDROOT
BRANCH   1  10
ATOM     10  C   UNL     1       7.339   1.326  22.458  0.00  0.00    +0.289 C 
BRANCH  10  11
ATOM     11  O   UNL     1       7.569   2.082  23.644  0.00  0.00    -0.357 OA
BRANCH  11  12
ATOM     12  C   UNL     1       8.140   3.355  23.368  0.00  0.00    +0.190 C 
BRANCH  12  13
ATOM     13  C   UNL     1       9.550   3.386  23.944  0.00  0.00    +0.184 C 
BRANCH  13  14
ATOM     14  O   UNL     1      10.507   3.358  22.895  0.00  0.00    -0.393 OA
ATOM     15  H   UNL     1      10.578   4.268  22.554  0.00  0.00    +0.209 HD
ENDBRANCH  13  14
ENDBRANCH  12  13
ENDBRANCH  11  12
ENDBRANCH  10  11
ENDBRANCH   1  10
BRANCH   8  16
ATOM     16  S   UNL     1       7.473  -3.191  24.880  0.00  0.00    -0.083 S 
BRANCH  16  17
ATOM     17  C   UNL     1       6.692  -4.380  23.791  0.00  0.00    +0.013 A 
ATOM     18  C   UNL     1       7.565  -5.107  22.964  0.00  0.00    +0.015 A 
ATOM     19  C   UNL     1       7.082  -6.013  22.014  0.00  0.00    +0.001 A 
ATOM     20  C   UNL     1       5.712  -6.207  21.873  0.00  0.00    +0.000 A 
ATOM     21  C   UNL     1       4.832  -5.518  22.703  0.00  0.00    +0.001 A 
ATOM     22  C   UNL     1       5.318  -4.623  23.665  0.00  0.00    +0.015 A 
ENDBRANCH  16  17
ENDBRANCH   8  16
TORSDOF 7
ENDMDL
MODEL 5
REMARK VINA RESULT:      -5.6      3.460      5.268
REMARK  Name = 
REMARK  7 active torsions:
REMARK  status: ('A' for Active; 'I' for Inactive)
REMARK    1  A    between atoms: O_1  and  C_2
REMARK    2  A    between atoms: C_2  and  C_3
REMARK    3  A    between atoms: C_3  and  O_4
REMARK    4  A    between atoms: O_4  and  C_5
REMARK    5  A    between atoms: C_5  and  N_6
REMARK    6  A    between atoms: C_8  and  S_9
REMARK    7  A    between atoms: S_9  and  C_10
REMARK                            x       y       z     vdW  Elec       q    Type
REMARK                         _______ _______ _______ _____ _____    ______ ____
ROOT
ATOM      1  N   UNL     1       9.354  -1.150  24.691  0.00  0.00    -0.276 N 
ATOM      2  C   UNL     1       9.955  -1.724  23.586  0.00  0.00    +0.331 A 
ATOM      3  O   UNL     1      10.396  -2.870  23.547  0.00  0.00    -0.246 OA
ATOM      4  N   UNL     1      10.023  -0.923  22.475  0.00  0.00    -0.274 N 
ATOM      5  H   UNL     1      10.413  -1.345  21.646  0.00  0.00    +0.173 HD
ATOM      6  C   UNL     1       9.349   0.257  22.298  0.00  0.00    +0.268 A 
ATOM      7  O   UNL     1       9.270   0.770  21.186  0.00  0.00    -0.267 OA
ATOM      8  C   UNL     1       8.735   0.840  23.528  0.00  0.00    +0.093 A 
ATOM      9  C   UNL     1       8.826   0.129  24.657  0.00  0.00    +0.113 A 
ENDROOT
BRANCH   1  10
ATOM     10  C   UNL     1       9.098  -1.976  25.859  0.00  0.00    +0.289 C 
BRANCH  10  11
ATOM     11  O   UNL     1       8.134  -2.949  25.462  0.00  0.00    -0.357 OA
BRANCH  11  12
ATOM     12  C   UNL     1       8.296  -4.179  26.157  0.00  0.00    +0.190 C 
BRANCH  12  13
ATOM     13  C   UNL     1       8.746  -5.240  25.160  0.00  0.00    +0.184 C 
BRANCH  13  14
ATOM     14  O   UNL     1      10.164  -5.287  25.101  0.00  0.00    -0.393 OA
ATOM     15  H   UNL     1      10.396  -5.933  24.410  0.00  0.00    +0.209 HD
ENDBRANCH  13  14
ENDBRANCH  12  13
ENDBRANCH  11  12
ENDBRANCH  10  11
ENDBRANCH   1  10
BRANCH   8  16
ATOM     16  S   UNL     1       8.028   2.404  23.418  0.00  0.00    -0.083 S 
BRANCH  16  17
ATOM     17  C   UNL     1       9.376   3.577  23.535  0.00  0.00    +0.013 A 
ATOM     18  C   UNL     1       9.000   4.910  23.771  0.00  0.00    +0.015 A 
ATOM     19  C   UNL     1       9.947   5.938  23.810  0.00  0.00    +0.001 A 
ATOM     20  C   UNL     1      11.293   5.650  23.610  0.00  0.00    +0.000 A 
ATOM     21  C   UNL     1      11.690   4.332  23.404  0.00  0.00    +0.001 A 
ATOM     22  C   UNL     1      10.741   3.301  23.381  0.00  0.00    +0.015 A 
ENDBRANCH  16  17
ENDBRANCH   8  16
TORSDOF 7
ENDMDL
MODEL 6
REMARK VINA RESULT:      -5.5      2.662      6.819
REMARK  Name = 
REMARK  7 active torsions:
REMARK  status: ('A' for Active; 'I' for Inactive)
REMARK    1  A    between atoms: O_1  and  C_2
REMARK    2  A    between atoms: C_2  and  C_3
REMARK    3  A    between atoms: C_3  and  O_4
REMARK    4  A    between atoms: O_4  and  C_5
REMARK    5  A    between atoms: C_5  and  N_6
REMARK    6  A    between atoms: C_8  and  S_9
REMARK    7  A    between atoms: S_9  and  C_10
REMARK                            x       y       z     vdW  Elec       q    Type
REMARK                         _______ _______ _______ _____ _____    ______ ____
ROOT
ATOM      1  N   UNL     1       7.747  -4.789  24.373  0.00  0.00    -0.276 N 
ATOM      2  C   UNL     1       8.843  -5.087  25.161  0.00  0.00    +0.331 A 
ATOM      3  O   UNL     1      10.012  -4.892  24.836  0.00  0.00    -0.246 OA
ATOM      4  N   UNL     1       8.551  -5.617  26.392  0.00  0.00    -0.274 N 
ATOM      5  H   UNL     1       9.338  -5.793  26.998  0.00  0.00    +0.173 HD
ATOM      6  C   UNL     1       7.313  -5.642  26.978  0.00  0.00    +0.268 A 
ATOM      7  O   UNL     1       7.193  -5.901  28.172  0.00  0.00    -0.267 OA
ATOM      8  C   UNL     1       6.165  -5.330  26.075  0.00  0.00    +0.093 A 
ATOM      9  C   UNL     1       6.450  -4.979  24.817  0.00  0.00    +0.113 A 
ENDROOT
BRANCH   1  10
ATOM     10  C   UNL     1       7.955  -4.080  23.121  0.00  0.00    +0.289 C 
BRANCH  10  11
ATOM     11  O   UNL     1       7.199  -2.875  23.209  0.00  0.00    -0.357 OA
BRANCH  11  12
ATOM     12  C   UNL     1       7.866  -1.777  22.599  0.00  0.00    +0.190 C 
BRANCH  12  13
ATOM     13  C   UNL     1       9.368  -1.996  22.723  0.00  0.00    +0.184 C 
BRANCH  13  14
ATOM     14  O   UNL     1      10.026  -1.555  21.544  0.00  0.00    -0.393 OA
ATOM     15  H   UNL     1       9.332  -1.365  20.889  0.00  0.00    +0.209 HD
ENDBRANCH  13  14
ENDBRANCH  12  13
ENDBRANCH  11  12
ENDBRANCH  10  11
ENDBRANCH   1  10
BRANCH   8  16
ATOM     16  S   UNL     1       4.572  -5.514  26.697  0.00  0.00    -0.083 S 
BRANCH  16  17
ATOM     17  C   UNL     1       3.515  -5.837  25.288  0.00  0.00    +0.013 A 
ATOM     18  C   UNL     1       3.389  -7.187  24.922  0.00  0.00    +0.015 A 
ATOM     19  C   UNL     1       2.656  -7.572  23.795  0.00  0.00    +0.001 A 
ATOM     20  C   UNL     1       2.034  -6.608  23.010  0.00  0.00    +0.000 A 
ATOM     21  C   UNL     1       2.120  -5.267  23.372  0.00  0.00    +0.001 A 
ATOM     22  C   UNL     1       2.843  -4.885  24.510  0.00  0.00    +0.015 A 
ENDBRANCH  16  17
ENDBRANCH   8  16
TORSDOF 7
ENDMDL
MODEL 7
REMARK VINA RESULT:      -5.5      2.704      3.328
REMARK  Name = 
REMARK  7 active torsions:
REMARK  status: ('A' for Active; 'I' for Inactive)
REMARK    1  A    between atoms: O_1  and  C_2
REMARK    2  A    between atoms: C_2  and  C_3
REMARK    3  A    between atoms: C_3  and  O_4
REMARK    4  A    between atoms: O_4  and  C_5
REMARK    5  A    between atoms: C_5  and  N_6
REMARK    6  A    between atoms: C_8  and  S_9
REMARK    7  A    between atoms: S_9  and  C_10
REMARK                            x       y       z     vdW  Elec       q    Type
REMARK                         _______ _______ _______ _____ _____    ______ ____
ROOT
ATOM      1  N   UNL     1       6.837  -3.077  23.409  0.00  0.00    -0.276 N 
ATOM      2  C   UNL     1       7.654  -3.781  24.275  0.00  0.00    +0.331 A 
ATOM      3  O   UNL     1       7.279  -4.703  24.996  0.00  0.00    -0.246 OA
ATOM      4  N   UNL     1       8.971  -3.398  24.278  0.00  0.00    -0.274 N 
ATOM      5  H   UNL     1       9.588  -3.935  24.867  0.00  0.00    +0.173 HD
ATOM      6  C   UNL     1       9.568  -2.580  23.354  0.00  0.00    +0.268 A 
ATOM      7  O   UNL     1      10.791  -2.500  23.290  0.00  0.00    -0.267 OA
ATOM      8  C   UNL     1       8.637  -1.832  22.458  0.00  0.00    +0.093 A 
ATOM      9  C   UNL     1       7.329  -2.084  22.580  0.00  0.00    +0.113 A 
ENDROOT
BRANCH   1  10
ATOM     10  C   UNL     1       5.465  -3.519  23.225  0.00  0.00    +0.289 C 
BRANCH  10  11
ATOM     11  O   UNL     1       5.438  -4.254  22.003  0.00  0.00    -0.357 OA
BRANCH  11  12
ATOM     12  C   UNL     1       5.435  -5.659  22.223  0.00  0.00    +0.190 C 
BRANCH  12  13
ATOM     13  C   UNL     1       4.418  -5.975  23.313  0.00  0.00    +0.184 C 
BRANCH  13  14
ATOM     14  O   UNL     1       4.544  -7.329  23.722  0.00  0.00    -0.393 OA
ATOM     15  H   UNL     1       4.452  -7.340  24.691  0.00  0.00    +0.209 HD
ENDBRANCH  13  14
ENDBRANCH  12  13
ENDBRANCH  11  12
ENDBRANCH  10  11
ENDBRANCH   1  10
BRANCH   8  16
ATOM     16  S   UNL     1       9.306  -0.658  21.394  0.00  0.00    -0.083 S 
BRANCH  16  17
ATOM     17  C   UNL     1       9.222   0.910  22.256  0.00  0.00    +0.013 A 
ATOM     18  C   UNL     1       8.175   1.761  21.865  0.00  0.00    +0.015 A 
ATOM     19  C   UNL     1       8.039   3.044  22.404  0.00  0.00    +0.001 A 
ATOM     20  C   UNL     1       8.953   3.501  23.346  0.00  0.00    +0.000 A 
ATOM     21  C   UNL     1       9.980   2.663  23.770  0.00  0.00    +0.001 A 
ATOM     22  C   UNL     1      10.105   1.372  23.240  0.00  0.00    +0.015 A 
ENDBRANCH  16  17
ENDBRANCH   8  16
TORSDOF 7
ENDMDL
MODEL 8
REMARK VINA RESULT:      -5.5      3.463      6.900
REMARK  Name = 
REMARK  7 active torsions:
REMARK  status: ('A' for Active; 'I' for Inactive)
REMARK    1  A    between atoms: O_1  and  C_2
REMARK    2  A    between atoms: C_2  and  C_3
REMARK    3  A    between atoms: C_3  and  O_4
REMARK    4  A    between atoms: O_4  and  C_5
REMARK    5  A    between atoms: C_5  and  N_6
REMARK    6  A    between atoms: C_8  and  S_9
REMARK    7  A    between atoms: S_9  and  C_10
REMARK                            x       y       z     vdW  Elec       q    Type
REMARK                         _______ _______ _______ _____ _____    ______ ____
ROOT
ATOM      1  N   UNL     1       9.302  -1.194  24.813  0.00  0.00    -0.276 N 
ATOM      2  C   UNL     1       8.600  -0.246  25.533  0.00  0.00    +0.331 A 
ATOM      3  O   UNL     1       8.776   0.968  25.449  0.00  0.00    -0.246 OA
ATOM      4  N   UNL     1       7.636  -0.743  26.372  0.00  0.00    -0.274 N 
ATOM      5  H   UNL     1       7.081  -0.062  26.866  0.00  0.00    +0.173 HD
ATOM      6  C   UNL     1       7.162  -2.029  26.370  0.00  0.00    +0.268 A 
ATOM      7  O   UNL     1       6.132  -2.315  26.974  0.00  0.00    -0.267 OA
ATOM      8  C   UNL     1       7.970  -3.014  25.591  0.00  0.00    +0.093 A 
ATOM      9  C   UNL     1       9.021  -2.545  24.910  0.00  0.00    +0.113 A 
ENDROOT
BRANCH   1  10
ATOM     10  C   UNL     1      10.231  -0.750  23.787  0.00  0.00    +0.289 C 
BRANCH  10  11
ATOM     11  O   UNL     1       9.732  -1.249  22.548  0.00  0.00    -0.357 OA
BRANCH  11  12
ATOM     12  C   UNL     1       9.364  -0.204  21.657  0.00  0.00    +0.190 C 
BRANCH  12  13
ATOM     13  C   UNL     1       9.996   1.093  22.148  0.00  0.00    +0.184 C 
BRANCH  13  14
ATOM     14  O   UNL     1       9.567   2.182  21.343  0.00  0.00    -0.393 OA
ATOM     15  H   UNL     1       8.759   2.535  21.754  0.00  0.00    +0.209 HD
ENDBRANCH  13  14
ENDBRANCH  12  13
ENDBRANCH  11  12
ENDBRANCH  10  11
ENDBRANCH   1  10
BRANCH   8  16
ATOM     16  S   UNL     1       7.535  -4.676  25.688  0.00  0.00    -0.083 S 
BRANCH  16  17
ATOM     17  C   UNL     1       6.932  -5.134  24.065  0.00  0.00    +0.013 A 
ATOM     18  C   UNL     1       5.536  -5.240  23.946  0.00  0.00    +0.015 A 
ATOM     19  C   UNL     1       4.936  -5.663  22.755  0.00  0.00    +0.001 A 
ATOM     20  C   UNL     1       5.726  -5.992  21.659  0.00  0.00    +0.000 A 
ATOM     21  C   UNL     1       7.110  -5.865  21.747  0.00  0.00    +0.001 A 
ATOM     22  C   UNL     1       7.708  -5.426  22.936  0.00  0.00    +0.015 A 
ENDBRANCH  16  17
ENDBRANCH   8  16
TORSDOF 7
ENDMDL
MODEL 9
REMARK VINA RESULT:      -5.3      3.513      5.100
REMARK  Name = 
REMARK  7 active torsions:
REMARK  status: ('A' for Active; 'I' for Inactive)
REMARK    1  A    between atoms: O_1  and  C_2
REMARK    2  A    between atoms: C_2  and  C_3
REMARK    3  A    between atoms: C_3  and  O_4
REMARK    4  A    between atoms: O_4  and  C_5
REMARK    5  A    between atoms: C_5  and  N_6
REMARK    6  A    between atoms: C_8  and  S_9
REMARK    7  A    between atoms: S_9  and  C_10
REMARK                            x       y       z     vdW  Elec       q    Type
REMARK                         _______ _______ _______ _____ _____    ______ ____
ROOT
ATOM      1  N   UNL     1       8.651  -1.567  24.338  0.00  0.00    -0.276 N 
ATOM      2  C   UNL     1       9.729  -1.783  23.499  0.00  0.00    +0.331 A 
ATOM      3  O   UNL     1      10.524  -2.714  23.608  0.00  0.00    -0.246 OA
ATOM      4  N   UNL     1       9.866  -0.880  22.477  0.00  0.00    -0.274 N 
ATOM      5  H   UNL     1      10.617  -1.053  21.827  0.00  0.00    +0.173 HD
ATOM      6  C   UNL     1       8.922   0.034  22.086  0.00  0.00    +0.268 A 
ATOM      7  O   UNL     1       9.027   0.620  21.012  0.00  0.00    -0.267 OA
ATOM      8  C   UNL     1       7.790   0.240  23.038  0.00  0.00    +0.093 A 
ATOM      9  C   UNL     1       7.757  -0.531  24.130  0.00  0.00    +0.113 A 
ENDROOT
BRANCH   1  10
ATOM     10  C   UNL     1       8.339  -2.562  25.350  0.00  0.00    +0.289 C 
BRANCH  10  11
ATOM     11  O   UNL     1       7.761  -3.669  24.662  0.00  0.00    -0.357 OA
BRANCH  11  12
ATOM     12  C   UNL     1       7.908  -4.886  25.384  0.00  0.00    +0.190 C 
BRANCH  12  13
ATOM     13  C   UNL     1       9.296  -4.910  26.012  0.00  0.00    +0.184 C 
BRANCH  13  14
ATOM     14  O   UNL     1      10.259  -5.325  25.054  0.00  0.00    -0.393 OA
ATOM     15  H   UNL     1      11.131  -5.248  25.480  0.00  0.00    +0.209 HD
ENDBRANCH  13  14
ENDBRANCH  12  13
ENDBRANCH  11  12
ENDBRANCH  10  11
ENDBRANCH   1  10
BRANCH   8  16
ATOM     16  S   UNL     1       6.663   1.495  22.699  0.00  0.00    -0.083 S 
BRANCH  16  17
ATOM     17  C   UNL     1       7.504   3.036  23.053  0.00  0.00    +0.013 A 
ATOM     18  C   UNL     1       8.363   3.016  24.164  0.00  0.00    +0.015 A 
ATOM     19  C   UNL     1       9.023   4.171  24.595  0.00  0.00    +0.001 A 
ATOM     20  C   UNL     1       8.832   5.372  23.922  0.00  0.00    +0.000 A 
ATOM     21  C   UNL     1       8.008   5.407  22.801  0.00  0.00    +0.001 A 
ATOM     22  C   UNL     1       7.360   4.246  22.360  0.00  0.00    +0.015 A 
ENDBRANCH  16  17
ENDBRANCH   8  16
TORSDOF 7
ENDMDL
