MODEL 1
REMARK VINA RESULT:      -7.7      0.000      0.000
REMARK  Name = 
REMARK  11 active torsions:
REMARK  status: ('A' for Active; 'I' for Inactive)
REMARK    1  A    between atoms: C_2  and  C_3
REMARK    2  A    between atoms: C_2  and  O_27
REMARK    3  A    between atoms: C_2  and  C_30
REMARK    4  A    between atoms: C_3  and  C_4
REMARK    5  A    between atoms: N_10  and  C_11
REMARK    6  A    between atoms: C_11  and  C_12
REMARK    7  A    between atoms: C_13  and  C_14
REMARK    8  A    between atoms: C_16  and  C_18
REMARK    9  A    between atoms: O_27  and  C_28
REMARK   10  A    between atoms: C_28  and  C_29
REMARK   11  A    between atoms: C_30  and  O_31
REMARK                            x       y       z     vdW  Elec       q    Type
REMARK                         _______ _______ _______ _____ _____    ______ ____
ROOT
ATOM      1  C   UNL     1      10.582   2.732  23.176  0.00  0.00    -0.044 A 
ATOM      2  C   UNL     1      11.046   1.989  24.269  0.00  0.00    +0.006 A 
ATOM      3  C   UNL     1      10.873   0.599  24.342  0.00  0.00    +0.026 A 
ATOM      4  C   UNL     1      10.231  -0.037  23.270  0.00  0.00    +0.049 A 
ATOM      5  N   UNL     1       9.730  -1.312  23.103  0.00  0.00    -0.341 N 
ATOM      6  C   UNL     1       9.383  -1.516  21.786  0.00  0.00    +0.087 A 
ATOM      7  C   UNL     1       9.431  -0.298  21.157  0.00  0.00    +0.027 A 
ATOM      8  C   UNL     1       9.897   0.647  22.106  0.00  0.00    +0.000 A 
ATOM      9  C   UNL     1      10.039   2.041  22.084  0.00  0.00    +0.013 A 
ENDROOT
BRANCH   1  10
ATOM     10  C   UNL     1      10.603   4.248  23.252  0.00  0.00    +0.078 C 
BRANCH  10  11
ATOM     11  C   UNL     1      11.829   4.919  23.902  0.00  0.00    +0.230 C 
BRANCH  11  12
ATOM     12  C   UNL     1      12.904   5.112  22.825  0.00  0.00    +0.334 C 
ATOM     13  O   UNL     1      12.680   5.413  21.662  0.00  0.00    -0.248 OA
BRANCH  12  14
ATOM     14  O   UNL     1      14.159   4.911  23.306  0.00  0.00    -0.479 OA
ATOM     15  H   UNL     1      14.458   5.752  23.722  0.00  0.00    +0.295 HD
ENDBRANCH  12  14
ENDBRANCH  11  12
BRANCH  11  16
ATOM     16  O   UNL     1      11.585   6.201  24.522  0.00  0.00    -0.365 OA
BRANCH  16  17
ATOM     17  C   UNL     1      10.226   6.635  24.494  0.00  0.00    +0.157 C 
ATOM     18  C   UNL     1       9.750   6.762  25.930  0.00  0.00    +0.034 C 
ENDBRANCH  16  17
ENDBRANCH  11  16
ENDBRANCH  10  11
ENDBRANCH   1  10
BRANCH   5  19
ATOM     19  C   UNL     1       9.500  -2.273  24.164  0.00  0.00    +0.180 C 
BRANCH  19  20
ATOM     20  C   UNL     1       8.056  -2.600  24.392  0.00  0.00    +0.102 A 
ATOM     21  N   UNL     1       7.752  -3.940  24.595  0.00  0.00    -0.212 NA
ATOM     22  C   UNL     1       6.444  -3.976  24.745  0.00  0.00    +0.229 A 
ATOM     23  O   UNL     1       5.858  -2.749  24.711  0.00  0.00    -0.440 OA
ATOM     24  C   UNL     1       6.880  -1.870  24.466  0.00  0.00    +0.127 A 
ATOM     25  C   UNL     1       6.432  -0.467  24.361  0.00  0.00    +0.088 C 
BRANCH  22  26
ATOM     26  C   UNL     1       5.598  -5.131  25.026  0.00  0.00    +0.055 A 
ATOM     27  C   UNL     1       5.464  -5.508  26.381  0.00  0.00    +0.014 A 
ATOM     28  C   UNL     1       4.696  -6.610  26.757  0.00  0.00    +0.001 A 
ATOM     29  C   UNL     1       4.045  -7.365  25.792  0.00  0.00    +0.001 A 
ATOM     30  C   UNL     1       4.168  -7.016  24.446  0.00  0.00    +0.021 A 
ATOM     31  C   UNL     1       4.939  -5.909  24.063  0.00  0.00    +0.053 A 
ATOM     32 CL   UNL     1       5.063  -5.620  22.358  0.00  0.00    -0.083 Cl
ENDBRANCH  22  26
ENDBRANCH  19  20
ENDBRANCH   5  19
TORSDOF 9
ENDMDL
MODEL 2
REMARK VINA RESULT:      -7.6      1.682      2.338
REMARK  Name = 
REMARK  11 active torsions:
REMARK  status: ('A' for Active; 'I' for Inactive)
REMARK    1  A    between atoms: C_2  and  C_3
REMARK    2  A    between atoms: C_2  and  O_27
REMARK    3  A    between atoms: C_2  and  C_30
REMARK    4  A    between atoms: C_3  and  C_4
REMARK    5  A    between atoms: N_10  and  C_11
REMARK    6  A    between atoms: C_11  and  C_12
REMARK    7  A    between atoms: C_13  and  C_14
REMARK    8  A    between atoms: C_16  and  C_18
REMARK    9  A    between atoms: O_27  and  C_28
REMARK   10  A    between atoms: C_28  and  C_29
REMARK   11  A    between atoms: C_30  and  O_31
REMARK                            x       y       z     vdW  Elec       q    Type
REMARK                         _______ _______ _______ _____ _____    ______ ____
ROOT
ATOM      1  C   UNL     1       9.474   2.894  23.582  0.00  0.00    -0.044 A 
ATOM      2  C   UNL     1      10.315   2.169  24.437  0.00  0.00    +0.006 A 
ATOM      3  C   UNL     1      10.603   0.815  24.213  0.00  0.00    +0.026 A 
ATOM      4  C   UNL     1      10.035   0.203  23.086  0.00  0.00    +0.049 A 
ATOM      5  N   UNL     1       9.941  -1.113  22.684  0.00  0.00    -0.341 N 
ATOM      6  C   UNL     1       9.474  -1.181  21.390  0.00  0.00    +0.087 A 
ATOM      7  C   UNL     1       9.036   0.073  21.047  0.00  0.00    +0.027 A 
ATOM      8  C   UNL     1       9.323   0.931  22.138  0.00  0.00    +0.000 A 
ATOM      9  C   UNL     1       9.013   2.269  22.415  0.00  0.00    +0.013 A 
ENDROOT
BRANCH   1  10
ATOM     10  C   UNL     1       9.028   4.286  23.993  0.00  0.00    +0.078 C 
BRANCH  10  11
ATOM     11  C   UNL     1       9.319   5.450  23.026  0.00  0.00    +0.230 C 
BRANCH  11  12
ATOM     12  C   UNL     1       8.001   6.180  22.735  0.00  0.00    +0.334 C 
ATOM     13  O   UNL     1       7.368   6.827  23.555  0.00  0.00    -0.248 OA
BRANCH  12  14
ATOM     14  O   UNL     1       7.602   6.030  21.445  0.00  0.00    -0.479 OA
ATOM     15  H   UNL     1       7.178   5.144  21.364  0.00  0.00    +0.295 HD
ENDBRANCH  12  14
ENDBRANCH  11  12
BRANCH  11  16
ATOM     16  O   UNL     1      10.275   6.427  23.492  0.00  0.00    -0.365 OA
BRANCH  16  17
ATOM     17  C   UNL     1      11.409   5.885  24.168  0.00  0.00    +0.157 C 
ATOM     18  C   UNL     1      12.410   5.444  23.115  0.00  0.00    +0.034 C 
ENDBRANCH  16  17
ENDBRANCH  11  16
ENDBRANCH  10  11
ENDBRANCH   1  10
BRANCH   5  19
ATOM     19  C   UNL     1      10.196  -2.271  23.519  0.00  0.00    +0.180 C 
BRANCH  19  20
ATOM     20  C   UNL     1       9.029  -2.688  24.361  0.00  0.00    +0.102 A 
ATOM     21  N   UNL     1       8.310  -3.789  23.916  0.00  0.00    -0.212 NA
ATOM     22  C   UNL     1       7.338  -3.942  24.792  0.00  0.00    +0.229 A 
ATOM     23  O   UNL     1       7.389  -3.054  25.821  0.00  0.00    -0.440 OA
ATOM     24  C   UNL     1       8.454  -2.239  25.540  0.00  0.00    +0.127 A 
ATOM     25  C   UNL     1       8.656  -1.173  26.542  0.00  0.00    +0.088 C 
BRANCH  22  26
ATOM     26  C   UNL     1       6.309  -4.974  24.830  0.00  0.00    +0.055 A 
ATOM     27  C   UNL     1       6.051  -5.571  26.085  0.00  0.00    +0.014 A 
ATOM     28  C   UNL     1       5.103  -6.584  26.228  0.00  0.00    +0.001 A 
ATOM     29  C   UNL     1       4.389  -7.028  25.124  0.00  0.00    +0.001 A 
ATOM     30  C   UNL     1       4.631  -6.458  23.873  0.00  0.00    +0.021 A 
ATOM     31  C   UNL     1       5.584  -5.440  23.724  0.00  0.00    +0.053 A 
ATOM     32 CL   UNL     1       5.834  -4.863  22.108  0.00  0.00    -0.083 Cl
ENDBRANCH  22  26
ENDBRANCH  19  20
ENDBRANCH   5  19
TORSDOF 9
ENDMDL
MODEL 3
REMARK VINA RESULT:      -7.5      3.146     10.558
REMARK  Name = 
REMARK  11 active torsions:
REMARK  status: ('A' for Active; 'I' for Inactive)
REMARK    1  A    between atoms: C_2  and  C_3
REMARK    2  A    between atoms: C_2  and  O_27
REMARK    3  A    between atoms: C_2  and  C_30
REMARK    4  A    between atoms: C_3  and  C_4
REMARK    5  A    between atoms: N_10  and  C_11
REMARK    6  A    between atoms: C_11  and  C_12
REMARK    7  A    between atoms: C_13  and  C_14
REMARK    8  A    between atoms: C_16  and  C_18
REMARK    9  A    between atoms: O_27  and  C_28
REMARK   10  A    between atoms: C_28  and  C_29
REMARK   11  A    between atoms: C_30  and  O_31
REMARK                            x       y       z     vdW  Elec       q    Type
REMARK                         _______ _______ _______ _____ _____    ______ ____
ROOT
ATOM      1  C   UNL     1       5.719  -4.880  22.787  0.00  0.00    -0.044 A 
ATOM      2  C   UNL     1       5.427  -3.557  22.432  0.00  0.00    +0.006 A 
ATOM      3  C   UNL     1       6.237  -2.488  22.842  0.00  0.00    +0.026 A 
ATOM      4  C   UNL     1       7.372  -2.785  23.611  0.00  0.00    +0.049 A 
ATOM      5  N   UNL     1       8.246  -1.997  24.331  0.00  0.00    -0.341 N 
ATOM      6  C   UNL     1       9.329  -2.743  24.741  0.00  0.00    +0.087 A 
ATOM      7  C   UNL     1       9.034  -4.060  24.497  0.00  0.00    +0.027 A 
ATOM      8  C   UNL     1       7.772  -4.096  23.851  0.00  0.00    +0.000 A 
ATOM      9  C   UNL     1       6.916  -5.137  23.470  0.00  0.00    +0.013 A 
ENDROOT
BRANCH   1  10
ATOM     10  C   UNL     1       4.695  -5.963  22.501  0.00  0.00    +0.078 C 
BRANCH  10  11
ATOM     11  C   UNL     1       3.641  -6.263  23.585  0.00  0.00    +0.230 C 
BRANCH  11  12
ATOM     12  C   UNL     1       2.276  -6.422  22.903  0.00  0.00    +0.334 C 
ATOM     13  O   UNL     1       1.445  -5.534  22.791  0.00  0.00    -0.248 OA
BRANCH  12  14
ATOM     14  O   UNL     1       2.081  -7.680  22.427  0.00  0.00    -0.479 OA
ATOM     15  H   UNL     1       2.938  -8.162  22.495  0.00  0.00    +0.295 HD
ENDBRANCH  12  14
ENDBRANCH  11  12
BRANCH  11  16
ATOM     16  O   UNL     1       3.881  -7.443  24.382  0.00  0.00    -0.365 OA
BRANCH  16  17
ATOM     17  C   UNL     1       3.786  -7.247  25.793  0.00  0.00    +0.157 C 
ATOM     18  C   UNL     1       5.078  -6.601  26.259  0.00  0.00    +0.034 C 
ENDBRANCH  16  17
ENDBRANCH  11  16
ENDBRANCH  10  11
ENDBRANCH   1  10
BRANCH   5  19
ATOM     19  C   UNL     1       8.027  -0.611  24.698  0.00  0.00    +0.180 C 
BRANCH  19  20
ATOM     20  C   UNL     1       8.783   0.372  23.859  0.00  0.00    +0.102 A 
ATOM     21  N   UNL     1       9.067   1.596  24.448  0.00  0.00    -0.212 NA
ATOM     22  C   UNL     1       9.704   2.284  23.523  0.00  0.00    +0.229 A 
ATOM     23  O   UNL     1       9.913   1.587  22.374  0.00  0.00    -0.440 OA
ATOM     24  C   UNL     1       9.310   0.373  22.576  0.00  0.00    +0.127 A 
ATOM     25  C   UNL     1       9.404  -0.528  21.410  0.00  0.00    +0.088 C 
BRANCH  22  26
ATOM     26  C   UNL     1      10.269   3.625  23.622  0.00  0.00    +0.055 A 
ATOM     27  C   UNL     1      11.649   3.757  23.346  0.00  0.00    +0.014 A 
ATOM     28  C   UNL     1      12.294   4.991  23.432  0.00  0.00    +0.001 A 
ATOM     29  C   UNL     1      11.580   6.123  23.798  0.00  0.00    +0.001 A 
ATOM     30  C   UNL     1      10.217   6.017  24.081  0.00  0.00    +0.021 A 
ATOM     31  C   UNL     1       9.564   4.778  23.996  0.00  0.00    +0.053 A 
ATOM     32 CL   UNL     1       7.887   4.770  24.435  0.00  0.00    -0.083 Cl
ENDBRANCH  22  26
ENDBRANCH  19  20
ENDBRANCH   5  19
TORSDOF 9
ENDMDL
MODEL 4
REMARK VINA RESULT:      -7.4      3.522      9.769
REMARK  Name = 
REMARK  11 active torsions:
REMARK  status: ('A' for Active; 'I' for Inactive)
REMARK    1  A    between atoms: C_2  and  C_3
REMARK    2  A    between atoms: C_2  and  O_27
REMARK    3  A    between atoms: C_2  and  C_30
REMARK    4  A    between atoms: C_3  and  C_4
REMARK    5  A    between atoms: N_10  and  C_11
REMARK    6  A    between atoms: C_11  and  C_12
REMARK    7  A    between atoms: C_13  and  C_14
REMARK    8  A    between atoms: C_16  and  C_18
REMARK    9  A    between atoms: O_27  and  C_28
REMARK   10  A    between atoms: C_28  and  C_29
REMARK   11  A    between atoms: C_30  and  O_31
REMARK                            x       y       z     vdW  Elec       q    Type
REMARK                         _______ _______ _______ _____ _____    ______ ____
ROOT
ATOM      1  C   UNL     1       7.256  -4.004  24.332  0.00  0.00    -0.044 A 
ATOM      2  C   UNL     1       8.523  -3.823  23.761  0.00  0.00    +0.006 A 
ATOM      3  C   UNL     1       9.355  -2.759  24.136  0.00  0.00    +0.026 A 
ATOM      4  C   UNL     1       8.888  -1.880  25.124  0.00  0.00    +0.049 A 
ATOM      5  N   UNL     1       9.336  -0.656  25.575  0.00  0.00    -0.341 N 
ATOM      6  C   UNL     1       8.654  -0.291  26.715  0.00  0.00    +0.087 A 
ATOM      7  C   UNL     1       7.602  -1.161  26.857  0.00  0.00    +0.027 A 
ATOM      8  C   UNL     1       7.705  -2.119  25.818  0.00  0.00    +0.000 A 
ATOM      9  C   UNL     1       6.875  -3.162  25.386  0.00  0.00    +0.013 A 
ENDROOT
BRANCH   1  10
ATOM     10  C   UNL     1       6.319  -5.038  23.734  0.00  0.00    +0.078 C 
BRANCH  10  11
ATOM     11  C   UNL     1       5.613  -4.690  22.410  0.00  0.00    +0.230 C 
BRANCH  11  12
ATOM     12  C   UNL     1       6.000  -5.742  21.362  0.00  0.00    +0.334 C 
ATOM     13  O   UNL     1       5.982  -5.562  20.154  0.00  0.00    -0.248 OA
BRANCH  12  14
ATOM     14  O   UNL     1       6.374  -6.919  21.927  0.00  0.00    -0.479 OA
ATOM     15  H   UNL     1       6.683  -7.513  21.204  0.00  0.00    +0.295 HD
ENDBRANCH  12  14
ENDBRANCH  11  12
BRANCH  11  16
ATOM     16  O   UNL     1       4.171  -4.629  22.466  0.00  0.00    -0.365 OA
BRANCH  16  17
ATOM     17  C   UNL     1       3.565  -5.538  23.384  0.00  0.00    +0.157 C 
ATOM     18  C   UNL     1       2.060  -5.435  23.214  0.00  0.00    +0.034 C 
ENDBRANCH  16  17
ENDBRANCH  11  16
ENDBRANCH  10  11
ENDBRANCH   1  10
BRANCH   5  19
ATOM     19  C   UNL     1      10.309   0.185  24.905  0.00  0.00    +0.180 C 
BRANCH  19  20
ATOM     20  C   UNL     1       9.721   1.111  23.885  0.00  0.00    +0.102 A 
ATOM     21  N   UNL     1       9.370   2.378  24.332  0.00  0.00    -0.212 NA
ATOM     22  C   UNL     1       8.863   2.985  23.278  0.00  0.00    +0.229 A 
ATOM     23  O   UNL     1       8.899   2.232  22.146  0.00  0.00    -0.440 OA
ATOM     24  C   UNL     1       9.427   1.028  22.532  0.00  0.00    +0.127 A 
ATOM     25  C   UNL     1       9.520   0.049  21.431  0.00  0.00    +0.088 C 
BRANCH  22  26
ATOM     26  C   UNL     1       8.371   4.354  23.174  0.00  0.00    +0.055 A 
ATOM     27  C   UNL     1       7.050   4.521  22.699  0.00  0.00    +0.014 A 
ATOM     28  C   UNL     1       6.489   5.788  22.541  0.00  0.00    +0.001 A 
ATOM     29  C   UNL     1       7.231   6.920  22.849  0.00  0.00    +0.001 A 
ATOM     30  C   UNL     1       8.539   6.780  23.313  0.00  0.00    +0.021 A 
ATOM     31  C   UNL     1       9.108   5.508  23.474  0.00  0.00    +0.053 A 
ATOM     32 CL   UNL     1      10.761   5.474  23.996  0.00  0.00    -0.083 Cl
ENDBRANCH  22  26
ENDBRANCH  19  20
ENDBRANCH   5  19
TORSDOF 9
ENDMDL
MODEL 5
REMARK VINA RESULT:      -7.4      2.172      2.659
REMARK  Name = 
REMARK  11 active torsions:
REMARK  status: ('A' for Active; 'I' for Inactive)
REMARK    1  A    between atoms: C_2  and  C_3
REMARK    2  A    between atoms: C_2  and  O_27
REMARK    3  A    between atoms: C_2  and  C_30
REMARK    4  A    between atoms: C_3  and  C_4
REMARK    5  A    between atoms: N_10  and  C_11
REMARK    6  A    between atoms: C_11  and  C_12
REMARK    7  A    between atoms: C_13  and  C_14
REMARK    8  A    between atoms: C_16  and  C_18
REMARK    9  A    between atoms: O_27  and  C_28
REMARK   10  A    between atoms: C_28  and  C_29
REMARK   11  A    between atoms: C_30  and  O_31
REMARK                            x       y       z     vdW  Elec       q    Type
REMARK                         _______ _______ _______ _____ _____    ______ ____
ROOT
ATOM      1  C   UNL     1       9.905   2.729  23.314  0.00  0.00    -0.044 A 
ATOM      2  C   UNL     1      10.721   2.013  24.200  0.00  0.00    +0.006 A 
ATOM      3  C   UNL     1      10.875   0.622  24.100  0.00  0.00    +0.026 A 
ATOM      4  C   UNL     1      10.196  -0.038  23.066  0.00  0.00    +0.049 A 
ATOM      5  N   UNL     1       9.963  -1.372  22.802  0.00  0.00    -0.341 N 
ATOM      6  C   UNL     1       9.425  -1.519  21.542  0.00  0.00    +0.087 A 
ATOM      7  C   UNL     1       9.085  -0.268  21.095  0.00  0.00    +0.027 A 
ATOM      8  C   UNL     1       9.503   0.660  22.081  0.00  0.00    +0.000 A 
ATOM      9  C   UNL     1       9.329   2.042  22.236  0.00  0.00    +0.013 A 
ENDROOT
BRANCH   1  10
ATOM     10  C   UNL     1       9.608   4.190  23.602  0.00  0.00    +0.078 C 
BRANCH  10  11
ATOM     11  C   UNL     1       8.151   4.579  23.919  0.00  0.00    +0.230 C 
BRANCH  11  12
ATOM     12  C   UNL     1       7.411   4.807  22.595  0.00  0.00    +0.334 C 
ATOM     13  O   UNL     1       6.451   4.155  22.212  0.00  0.00    -0.248 OA
BRANCH  12  14
ATOM     14  O   UNL     1       7.942   5.830  21.877  0.00  0.00    -0.479 OA
ATOM     15  H   UNL     1       7.582   5.772  20.961  0.00  0.00    +0.295 HD
ENDBRANCH  12  14
ENDBRANCH  11  12
BRANCH  11  16
ATOM     16  O   UNL     1       7.399   3.614  24.689  0.00  0.00    -0.365 OA
BRANCH  16  17
ATOM     17  C   UNL     1       7.567   3.709  26.102  0.00  0.00    +0.157 C 
ATOM     18  C   UNL     1       7.189   2.368  26.705  0.00  0.00    +0.034 C 
ENDBRANCH  16  17
ENDBRANCH  11  16
ENDBRANCH  10  11
ENDBRANCH   1  10
BRANCH   5  19
ATOM     19  C   UNL     1      10.156  -2.463  23.737  0.00  0.00    +0.180 C 
BRANCH  19  20
ATOM     20  C   UNL     1       8.931  -2.823  24.520  0.00  0.00    +0.102 A 
ATOM     21  N   UNL     1       8.251  -3.962  24.111  0.00  0.00    -0.212 NA
ATOM     22  C   UNL     1       7.217  -4.055  24.922  0.00  0.00    +0.229 A 
ATOM     23  O   UNL     1       7.188  -3.088  25.879  0.00  0.00    -0.440 OA
ATOM     24  C   UNL     1       8.269  -2.288  25.614  0.00  0.00    +0.127 A 
ATOM     25  C   UNL     1       8.392  -1.145  26.541  0.00  0.00    +0.088 C 
BRANCH  22  26
ATOM     26  C   UNL     1       6.191  -5.090  24.965  0.00  0.00    +0.055 A 
ATOM     27  C   UNL     1       5.892  -5.638  26.233  0.00  0.00    +0.014 A 
ATOM     28  C   UNL     1       4.943  -6.650  26.383  0.00  0.00    +0.001 A 
ATOM     29  C   UNL     1       4.271  -7.141  25.273  0.00  0.00    +0.001 A 
ATOM     30  C   UNL     1       4.554  -6.620  24.009  0.00  0.00    +0.021 A 
ATOM     31  C   UNL     1       5.508  -5.604  23.853  0.00  0.00    +0.053 A 
ATOM     32 CL   UNL     1       5.812  -5.089  22.226  0.00  0.00    -0.083 Cl
ENDBRANCH  22  26
ENDBRANCH  19  20
ENDBRANCH   5  19
TORSDOF 9
ENDMDL
MODEL 6
REMARK VINA RESULT:      -7.4      1.975      2.544
REMARK  Name = 
REMARK  11 active torsions:
REMARK  status: ('A' for Active; 'I' for Inactive)
REMARK    1  A    between atoms: C_2  and  C_3
REMARK    2  A    between atoms: C_2  and  O_27
REMARK    3  A    between atoms: C_2  and  C_30
REMARK    4  A    between atoms: C_3  and  C_4
REMARK    5  A    between atoms: N_10  and  C_11
REMARK    6  A    between atoms: C_11  and  C_12
REMARK    7  A    between atoms: C_13  and  C_14
REMARK    8  A    between atoms: C_16  and  C_18
REMARK    9  A    between atoms: O_27  and  C_28
REMARK   10  A    between atoms: C_28  and  C_29
REMARK   11  A    between atoms: C_30  and  O_31
REMARK                            x       y       z     vdW  Elec       q    Type
REMARK                         _______ _______ _______ _____ _____    ______ ____
ROOT
ATOM      1  C   UNL     1      10.127   2.617  23.442  0.00  0.00    -0.044 A 
ATOM      2  C   UNL     1      10.885   1.844  24.331  0.00  0.00    +0.006 A 
ATOM      3  C   UNL     1      10.958   0.448  24.216  0.00  0.00    +0.026 A 
ATOM      4  C   UNL     1      10.259  -0.159  23.163  0.00  0.00    +0.049 A 
ATOM      5  N   UNL     1       9.953  -1.474  22.878  0.00  0.00    -0.341 N 
ATOM      6  C   UNL     1       9.429  -1.574  21.608  0.00  0.00    +0.087 A 
ATOM      7  C   UNL     1       9.170  -0.300  21.171  0.00  0.00    +0.027 A 
ATOM      8  C   UNL     1       9.625   0.591  22.176  0.00  0.00    +0.000 A 
ATOM      9  C   UNL     1       9.530   1.978  22.346  0.00  0.00    +0.013 A 
ENDROOT
BRANCH   1  10
ATOM     10  C   UNL     1       9.911   4.089  23.744  0.00  0.00    +0.078 C 
BRANCH  10  11
ATOM     11  C   UNL     1       8.479   4.554  24.073  0.00  0.00    +0.230 C 
BRANCH  11  12
ATOM     12  C   UNL     1       8.398   4.849  25.576  0.00  0.00    +0.334 C 
ATOM     13  O   UNL     1       8.555   5.951  26.079  0.00  0.00    -0.248 OA
BRANCH  12  14
ATOM     14  O   UNL     1       8.127   3.736  26.307  0.00  0.00    -0.479 OA
ATOM     15  H   UNL     1       8.954   3.477  26.775  0.00  0.00    +0.295 HD
ENDBRANCH  12  14
ENDBRANCH  11  12
BRANCH  11  16
ATOM     16  O   UNL     1       8.024   5.727  23.364  0.00  0.00    -0.365 OA
BRANCH  16  17
ATOM     17  C   UNL     1       7.260   5.462  22.188  0.00  0.00    +0.157 C 
ATOM     18  C   UNL     1       6.513   4.158  22.405  0.00  0.00    +0.034 C 
ENDBRANCH  16  17
ENDBRANCH  11  16
ENDBRANCH  10  11
ENDBRANCH   1  10
BRANCH   5  19
ATOM     19  C   UNL     1      10.067  -2.585  23.802  0.00  0.00    +0.180 C 
BRANCH  19  20
ATOM     20  C   UNL     1       8.805  -2.893  24.548  0.00  0.00    +0.102 A 
ATOM     21  N   UNL     1       8.158  -4.073  24.206  0.00  0.00    -0.212 NA
ATOM     22  C   UNL     1       7.083  -4.109  24.966  0.00  0.00    +0.229 A 
ATOM     23  O   UNL     1       6.993  -3.063  25.830  0.00  0.00    -0.440 OA
ATOM     24  C   UNL     1       8.079  -2.273  25.554  0.00  0.00    +0.127 A 
ATOM     25  C   UNL     1       8.141  -1.052  26.381  0.00  0.00    +0.088 C 
BRANCH  22  26
ATOM     26  C   UNL     1       6.067  -5.152  25.046  0.00  0.00    +0.055 A 
ATOM     27  C   UNL     1       5.815  -5.699  26.324  0.00  0.00    +0.014 A 
ATOM     28  C   UNL     1       4.879  -6.717  26.509  0.00  0.00    +0.001 A 
ATOM     29  C   UNL     1       4.173  -7.215  25.423  0.00  0.00    +0.001 A 
ATOM     30  C   UNL     1       4.408  -6.695  24.150  0.00  0.00    +0.021 A 
ATOM     31  C   UNL     1       5.349  -5.673  23.959  0.00  0.00    +0.053 A 
ATOM     32 CL   UNL     1       5.595  -5.159  22.322  0.00  0.00    -0.083 Cl
ENDBRANCH  22  26
ENDBRANCH  19  20
ENDBRANCH   5  19
TORSDOF 9
ENDMDL
MODEL 7
REMARK VINA RESULT:      -7.3      2.897     10.095
REMARK  Name = 
REMARK  11 active torsions:
REMARK  status: ('A' for Active; 'I' for Inactive)
REMARK    1  A    between atoms: C_2  and  C_3
REMARK    2  A    between atoms: C_2  and  O_27
REMARK    3  A    between atoms: C_2  and  C_30
REMARK    4  A    between atoms: C_3  and  C_4
REMARK    5  A    between atoms: N_10  and  C_11
REMARK    6  A    between atoms: C_11  and  C_12
REMARK    7  A    between atoms: C_13  and  C_14
REMARK    8  A    between atoms: C_16  and  C_18
REMARK    9  A    between atoms: O_27  and  C_28
REMARK   10  A    between atoms: C_28  and  C_29
REMARK   11  A    between atoms: C_30  and  O_31
REMARK                            x       y       z     vdW  Elec       q    Type
REMARK                         _______ _______ _______ _____ _____    ______ ____
ROOT
ATOM      1  C   UNL     1       6.373  -4.684  24.851  0.00  0.00    -0.044 A 
ATOM      2  C   UNL     1       7.705  -4.949  24.506  0.00  0.00    +0.006 A 
ATOM      3  C   UNL     1       8.708  -3.976  24.634  0.00  0.00    +0.026 A 
ATOM      4  C   UNL     1       8.339  -2.721  25.139  0.00  0.00    +0.049 A 
ATOM      5  N   UNL     1       8.997  -1.510  25.205  0.00  0.00    -0.341 N 
ATOM      6  C   UNL     1       8.288  -0.627  25.989  0.00  0.00    +0.087 A 
ATOM      7  C   UNL     1       7.058  -1.188  26.225  0.00  0.00    +0.027 A 
ATOM      8  C   UNL     1       7.061  -2.475  25.632  0.00  0.00    +0.000 A 
ATOM      9  C   UNL     1       6.073  -3.450  25.446  0.00  0.00    +0.013 A 
ENDROOT
BRANCH   1  10
ATOM     10  C   UNL     1       5.302  -5.697  24.489  0.00  0.00    +0.078 C 
BRANCH  10  11
ATOM     11  C   UNL     1       4.762  -5.690  23.046  0.00  0.00    +0.230 C 
BRANCH  11  12
ATOM     12  C   UNL     1       3.271  -6.050  23.084  0.00  0.00    +0.334 C 
ATOM     13  O   UNL     1       2.358  -5.252  22.935  0.00  0.00    -0.248 OA
BRANCH  12  14
ATOM     14  O   UNL     1       3.066  -7.374  23.304  0.00  0.00    -0.479 OA
ATOM     15  H   UNL     1       2.856  -7.489  24.260  0.00  0.00    +0.295 HD
ENDBRANCH  12  14
ENDBRANCH  11  12
BRANCH  11  16
ATOM     16  O   UNL     1       4.901  -4.441  22.332  0.00  0.00    -0.365 OA
BRANCH  16  17
ATOM     17  C   UNL     1       5.936  -4.421  21.350  0.00  0.00    +0.157 C 
ATOM     18  C   UNL     1       6.363  -5.855  21.096  0.00  0.00    +0.034 C 
ENDBRANCH  16  17
ENDBRANCH  11  16
ENDBRANCH  10  11
ENDBRANCH   1  10
BRANCH   5  19
ATOM     19  C   UNL     1      10.205  -1.166  24.481  0.00  0.00    +0.180 C 
BRANCH  19  20
ATOM     20  C   UNL     1      10.109   0.107  23.698  0.00  0.00    +0.102 A 
ATOM     21  N   UNL     1      10.455   1.272  24.368  0.00  0.00    -0.212 NA
ATOM     22  C   UNL     1      10.269   2.240  23.494  0.00  0.00    +0.229 A 
ATOM     23  O   UNL     1       9.874   1.799  22.270  0.00  0.00    -0.440 OA
ATOM     24  C   UNL     1       9.752   0.440  22.400  0.00  0.00    +0.127 A 
ATOM     25  C   UNL     1       9.295  -0.227  21.165  0.00  0.00    +0.088 C 
BRANCH  22  26
ATOM     26  C   UNL     1      10.518   3.668  23.660  0.00  0.00    +0.055 A 
ATOM     27  C   UNL     1      11.827   4.122  23.381  0.00  0.00    +0.014 A 
ATOM     28  C   UNL     1      12.178   5.464  23.528  0.00  0.00    +0.001 A 
ATOM     29  C   UNL     1      11.234   6.386  23.958  0.00  0.00    +0.001 A 
ATOM     30  C   UNL     1       9.936   5.960  24.245  0.00  0.00    +0.021 A 
ATOM     31  C   UNL     1       9.579   4.611  24.100  0.00  0.00    +0.053 A 
ATOM     32 CL   UNL     1       7.956   4.201  24.550  0.00  0.00    -0.083 Cl
ENDBRANCH  22  26
ENDBRANCH  19  20
ENDBRANCH   5  19
TORSDOF 9
ENDMDL
MODEL 8
REMARK VINA RESULT:      -7.3      3.052     10.493
REMARK  Name = 
REMARK  11 active torsions:
REMARK  status: ('A' for Active; 'I' for Inactive)
REMARK    1  A    between atoms: C_2  and  C_3
REMARK    2  A    between atoms: C_2  and  O_27
REMARK    3  A    between atoms: C_2  and  C_30
REMARK    4  A    between atoms: C_3  and  C_4
REMARK    5  A    between atoms: N_10  and  C_11
REMARK    6  A    between atoms: C_11  and  C_12
REMARK    7  A    between atoms: C_13  and  C_14
REMARK    8  A    between atoms: C_16  and  C_18
REMARK    9  A    between atoms: O_27  and  C_28
REMARK   10  A    between atoms: C_28  and  C_29
REMARK   11  A    between atoms: C_30  and  O_31
REMARK                            x       y       z     vdW  Elec       q    Type
REMARK                         _______ _______ _______ _____ _____    ______ ____
ROOT
ATOM      1  C   UNL     1       5.761  -4.758  23.677  0.00  0.00    -0.044 A 
ATOM      2  C   UNL     1       5.662  -4.045  22.475  0.00  0.00    +0.006 A 
ATOM      3  C   UNL     1       6.679  -3.181  22.044  0.00  0.00    +0.026 A 
ATOM      4  C   UNL     1       7.821  -3.062  22.849  0.00  0.00    +0.049 A 
ATOM      5  N   UNL     1       8.886  -2.185  22.838  0.00  0.00    -0.341 N 
ATOM      6  C   UNL     1       9.864  -2.616  23.707  0.00  0.00    +0.087 A 
ATOM      7  C   UNL     1       9.326  -3.632  24.455  0.00  0.00    +0.027 A 
ATOM      8  C   UNL     1       8.017  -3.868  23.966  0.00  0.00    +0.000 A 
ATOM      9  C   UNL     1       6.963  -4.685  24.396  0.00  0.00    +0.013 A 
ENDROOT
BRANCH   1  10
ATOM     10  C   UNL     1       4.545  -5.504  24.195  0.00  0.00    +0.078 C 
BRANCH  10  11
ATOM     11  C   UNL     1       4.784  -6.756  25.061  0.00  0.00    +0.230 C 
BRANCH  11  12
ATOM     12  C   UNL     1       4.562  -6.378  26.531  0.00  0.00    +0.334 C 
ATOM     13  O   UNL     1       4.052  -5.336  26.914  0.00  0.00    -0.248 OA
BRANCH  12  14
ATOM     14  O   UNL     1       5.001  -7.341  27.383  0.00  0.00    -0.479 OA
ATOM     15  H   UNL     1       5.496  -8.007  26.852  0.00  0.00    +0.295 HD
ENDBRANCH  12  14
ENDBRANCH  11  12
BRANCH  11  16
ATOM     16  O   UNL     1       3.944  -7.893  24.763  0.00  0.00    -0.365 OA
BRANCH  16  17
ATOM     17  C   UNL     1       2.661  -7.570  24.227  0.00  0.00    +0.157 C 
ATOM     18  C   UNL     1       1.718  -8.711  24.563  0.00  0.00    +0.034 C 
ENDBRANCH  16  17
ENDBRANCH  11  16
ENDBRANCH  10  11
ENDBRANCH   1  10
BRANCH   5  19
ATOM     19  C   UNL     1       8.942  -0.936  22.104  0.00  0.00    +0.180 C 
BRANCH  19  20
ATOM     20  C   UNL     1       8.897   0.287  22.969  0.00  0.00    +0.102 A 
ATOM     21  N   UNL     1       9.749   1.324  22.616  0.00  0.00    -0.212 NA
ATOM     22  C   UNL     1       9.548   2.258  23.523  0.00  0.00    +0.229 A 
ATOM     23  O   UNL     1       8.581   1.940  24.426  0.00  0.00    -0.440 OA
ATOM     24  C   UNL     1       8.177   0.675  24.089  0.00  0.00    +0.127 A 
ATOM     25  C   UNL     1       7.137   0.134  24.986  0.00  0.00    +0.088 C 
BRANCH  22  26
ATOM     26  C   UNL     1      10.156   3.581  23.609  0.00  0.00    +0.055 A 
ATOM     27  C   UNL     1      11.540   3.664  23.334  0.00  0.00    +0.014 A 
ATOM     28  C   UNL     1      12.224   4.877  23.409  0.00  0.00    +0.001 A 
ATOM     29  C   UNL     1      11.547   6.036  23.762  0.00  0.00    +0.001 A 
ATOM     30  C   UNL     1      10.182   5.978  24.043  0.00  0.00    +0.021 A 
ATOM     31  C   UNL     1       9.489   4.760  23.970  0.00  0.00    +0.053 A 
ATOM     32 CL   UNL     1       7.812   4.811  24.406  0.00  0.00    -0.083 Cl
ENDBRANCH  22  26
ENDBRANCH  19  20
ENDBRANCH   5  19
TORSDOF 9
ENDMDL
MODEL 9
REMARK VINA RESULT:      -7.1      3.345     10.072
REMARK  Name = 
REMARK  11 active torsions:
REMARK  status: ('A' for Active; 'I' for Inactive)
REMARK    1  A    between atoms: C_2  and  C_3
REMARK    2  A    between atoms: C_2  and  O_27
REMARK    3  A    between atoms: C_2  and  C_30
REMARK    4  A    between atoms: C_3  and  C_4
REMARK    5  A    between atoms: N_10  and  C_11
REMARK    6  A    between atoms: C_11  and  C_12
REMARK    7  A    between atoms: C_13  and  C_14
REMARK    8  A    between atoms: C_16  and  C_18
REMARK    9  A    between atoms: O_27  and  C_28
REMARK   10  A    between atoms: C_28  and  C_29
REMARK   11  A    between atoms: C_30  and  O_31
REMARK                            x       y       z     vdW  Elec       q    Type
REMARK                         _______ _______ _______ _____ _____    ______ ____
ROOT
ATOM      1  C   UNL     1       5.984  -5.185  23.423  0.00  0.00    -0.044 A 
ATOM      2  C   UNL     1       5.958  -4.538  22.180  0.00  0.00    +0.006 A 
ATOM      3  C   UNL     1       6.914  -3.573  21.831  0.00  0.00    +0.026 A 
ATOM      4  C   UNL     1       7.921  -3.283  22.764  0.00  0.00    +0.049 A 
ATOM      5  N   UNL     1       8.868  -2.283  22.836  0.00  0.00    -0.341 N 
ATOM      6  C   UNL     1       9.770  -2.557  23.841  0.00  0.00    +0.087 A 
ATOM      7  C   UNL     1       9.263  -3.601  24.572  0.00  0.00    +0.027 A 
ATOM      8  C   UNL     1       8.064  -4.015  23.939  0.00  0.00    +0.000 A 
ATOM      9  C   UNL     1       7.066  -4.937  24.280  0.00  0.00    +0.013 A 
ENDROOT
BRANCH   1  10
ATOM     10  C   UNL     1       4.806  -6.053  23.827  0.00  0.00    +0.078 C 
BRANCH  10  11
ATOM     11  C   UNL     1       3.428  -5.725  23.222  0.00  0.00    +0.230 C 
BRANCH  11  12
ATOM     12  C   UNL     1       2.532  -6.964  23.354  0.00  0.00    +0.334 C 
ATOM     13  O   UNL     1       1.383  -7.039  22.946  0.00  0.00    -0.248 OA
BRANCH  12  14
ATOM     14  O   UNL     1       3.161  -7.990  23.984  0.00  0.00    -0.479 OA
ATOM     15  H   UNL     1       2.507  -8.415  24.588  0.00  0.00    +0.295 HD
ENDBRANCH  12  14
ENDBRANCH  11  12
BRANCH  11  16
ATOM     16  O   UNL     1       2.733  -4.608  23.818  0.00  0.00    -0.365 OA
BRANCH  16  17
ATOM     17  C   UNL     1       2.838  -4.521  25.238  0.00  0.00    +0.157 C 
ATOM     18  C   UNL     1       3.433  -3.165  25.577  0.00  0.00    +0.034 C 
ENDBRANCH  16  17
ENDBRANCH  11  16
ENDBRANCH  10  11
ENDBRANCH   1  10
BRANCH   5  19
ATOM     19  C   UNL     1       8.873  -1.067  22.047  0.00  0.00    +0.180 C 
BRANCH  19  20
ATOM     20  C   UNL     1       8.379   0.142  22.781  0.00  0.00    +0.102 A 
ATOM     21  N   UNL     1       9.001   1.345  22.477  0.00  0.00    -0.212 NA
ATOM     22  C   UNL     1       8.421   2.238  23.252  0.00  0.00    +0.229 A 
ATOM     23  O   UNL     1       7.418   1.726  24.016  0.00  0.00    -0.440 OA
ATOM     24  C   UNL     1       7.401   0.384  23.733  0.00  0.00    +0.127 A 
ATOM     25  C   UNL     1       6.383  -0.362  24.499  0.00  0.00    +0.088 C 
BRANCH  22  26
ATOM     26  C   UNL     1       8.663   3.674  23.315  0.00  0.00    +0.055 A 
ATOM     27  C   UNL     1       9.922   4.088  23.807  0.00  0.00    +0.014 A 
ATOM     28  C   UNL     1      10.248   5.438  23.929  0.00  0.00    +0.001 A 
ATOM     29  C   UNL     1       9.327   6.410  23.565  0.00  0.00    +0.001 A 
ATOM     30  C   UNL     1       8.074   6.027  23.083  0.00  0.00    +0.021 A 
ATOM     31  C   UNL     1       7.742   4.670  22.959  0.00  0.00    +0.053 A 
ATOM     32 CL   UNL     1       6.134   4.328  22.409  0.00  0.00    -0.083 Cl
ENDBRANCH  22  26
ENDBRANCH  19  20
ENDBRANCH   5  19
TORSDOF 9
ENDMDL
