MODEL 1
REMARK VINA RESULT:      -6.2      0.000      0.000
REMARK  Name = 
REMARK  11 active torsions:
REMARK  status: ('A' for Active; 'I' for Inactive)
REMARK    1  A    between atoms: C_1  and  C_2
REMARK    2  A    between atoms: C_2  and  C_4
REMARK    3  A    between atoms: C_2  and  N_11
REMARK    4  A    between atoms: C_4  and  C_5
REMARK    5  A    between atoms: C_12  and  C_14
REMARK    6  A    between atoms: C_14  and  N_16
REMARK    7  A    between atoms: C_14  and  C_17
REMARK    8  A    between atoms: C_17  and  C_18
REMARK    9  A    between atoms: C_18  and  C_19
REMARK   10  A    between atoms: C_19  and  C_20
REMARK   11  A    between atoms: C_20  and  N_21
REMARK                            x       y       z     vdW  Elec       q    Type
REMARK                         _______ _______ _______ _____ _____    ______ ____
ROOT
ATOM      1  N   UNL     1       8.641  -3.279  23.925  0.00  0.00    -0.311 N 
ATOM      2  H   UNL     1       9.329  -2.964  24.607  0.00  0.00    +0.149 HD
ATOM      3  C   UNL     1       8.293  -4.607  24.046  0.00  0.00    +0.230 C 
ATOM      4  O   UNL     1       7.640  -5.221  23.210  0.00  0.00    -0.274 OA
ENDROOT
BRANCH   1   6
ATOM      5  C   UNL     1       7.298  -1.432  23.111  0.00  0.00    +0.028 C 
ATOM      6  C   UNL     1       8.355  -2.472  22.741  0.00  0.00    +0.074 C 
BRANCH   6   7
ATOM      7  C   UNL     1       9.642  -1.825  22.177  0.00  0.00    +0.057 C 
BRANCH   7   8
ATOM      8  C   UNL     1       9.920  -0.414  22.656  0.00  0.00    -0.046 A 
ATOM      9  C   UNL     1       9.732   0.683  21.803  0.00  0.00    +0.004 A 
ATOM     10  C   UNL     1      10.010   1.981  22.243  0.00  0.00    +0.000 A 
ATOM     11  C   UNL     1      10.487   2.196  23.533  0.00  0.00    +0.000 A 
ATOM     12  C   UNL     1      10.689   1.113  24.386  0.00  0.00    +0.000 A 
ATOM     13  C   UNL     1      10.408  -0.184  23.951  0.00  0.00    +0.004 A 
ENDBRANCH   7   8
ENDBRANCH   6   7
ENDBRANCH   1   6
BRANCH   3  14
ATOM     14  C   UNL     1       8.769  -5.244  25.374  0.00  0.00    +0.138 C 
BRANCH  14  15
ATOM     15  N   UNL     1      10.242  -5.456  25.306  0.00  0.00    -0.320 NA
ATOM     16  H   UNL     1      10.678  -4.587  24.996  0.00  0.00    +0.119 HD
ATOM     17  H   UNL     1      10.581  -5.608  26.257  0.00  0.00    +0.119 HD
ENDBRANCH  14  15
BRANCH  14  18
ATOM     18  C   UNL     1       8.458  -4.347  26.581  0.00  0.00    +0.028 C 
BRANCH  18  19
ATOM     19  C   UNL     1       6.955  -4.243  26.868  0.00  0.00    +0.003 C 
BRANCH  19  20
ATOM     20  C   UNL     1       6.303  -5.627  26.948  0.00  0.00    +0.015 C 
BRANCH  20  21
ATOM     21  C   UNL     1       6.224  -6.115  28.394  0.00  0.00    +0.077 C 
BRANCH  21  22
ATOM     22  N   UNL     1       5.530  -7.396  28.461  0.00  0.00    -0.330 NA
ATOM     23  H   UNL     1       4.598  -7.254  28.846  0.00  0.00    +0.118 HD
ATOM     24  H   UNL     1       5.397  -7.766  27.521  0.00  0.00    +0.118 HD
ENDBRANCH  21  22
ENDBRANCH  20  21
ENDBRANCH  19  20
ENDBRANCH  18  19
ENDBRANCH  14  18
ENDBRANCH   3  14
TORSDOF 10
ENDMDL
MODEL 2
REMARK VINA RESULT:      -5.9      1.011      1.579
REMARK  Name = 
REMARK  11 active torsions:
REMARK  status: ('A' for Active; 'I' for Inactive)
REMARK    1  A    between atoms: C_1  and  C_2
REMARK    2  A    between atoms: C_2  and  C_4
REMARK    3  A    between atoms: C_2  and  N_11
REMARK    4  A    between atoms: C_4  and  C_5
REMARK    5  A    between atoms: C_12  and  C_14
REMARK    6  A    between atoms: C_14  and  N_16
REMARK    7  A    between atoms: C_14  and  C_17
REMARK    8  A    between atoms: C_17  and  C_18
REMARK    9  A    between atoms: C_18  and  C_19
REMARK   10  A    between atoms: C_19  and  C_20
REMARK   11  A    between atoms: C_20  and  N_21
REMARK                            x       y       z     vdW  Elec       q    Type
REMARK                         _______ _______ _______ _____ _____    ______ ____
ROOT
ATOM      1  N   UNL     1       8.570  -3.187  23.886  0.00  0.00    -0.311 N 
ATOM      2  H   UNL     1       9.199  -2.851  24.612  0.00  0.00    +0.149 HD
ATOM      3  C   UNL     1       8.276  -4.531  23.970  0.00  0.00    +0.230 C 
ATOM      4  O   UNL     1       7.703  -5.163  23.088  0.00  0.00    -0.274 OA
ENDROOT
BRANCH   1   6
ATOM      5  C   UNL     1       7.295  -1.301  23.050  0.00  0.00    +0.028 C 
ATOM      6  C   UNL     1       8.321  -2.378  22.695  0.00  0.00    +0.074 C 
BRANCH   6   7
ATOM      7  C   UNL     1       9.633  -1.776  22.139  0.00  0.00    +0.057 C 
BRANCH   7   8
ATOM      8  C   UNL     1       9.958  -0.377  22.622  0.00  0.00    -0.046 A 
ATOM      9  C   UNL     1      10.432  -0.159  23.924  0.00  0.00    +0.004 A 
ATOM     10  C   UNL     1      10.711   1.136  24.372  0.00  0.00    +0.000 A 
ATOM     11  C   UNL     1      10.509   2.226  23.531  0.00  0.00    +0.000 A 
ATOM     12  C   UNL     1      10.026   2.025  22.239  0.00  0.00    +0.000 A 
ATOM     13  C   UNL     1       9.752   0.732  21.788  0.00  0.00    +0.004 A 
ENDBRANCH   7   8
ENDBRANCH   6   7
ENDBRANCH   1   6
BRANCH   3  14
ATOM     14  C   UNL     1       8.697  -5.165  25.318  0.00  0.00    +0.138 C 
BRANCH  14  15
ATOM     15  N   UNL     1      10.147  -5.502  25.259  0.00  0.00    -0.320 NA
ATOM     16  H   UNL     1      10.238  -6.498  25.055  0.00  0.00    +0.119 HD
ATOM     17  H   UNL     1      10.549  -5.020  24.454  0.00  0.00    +0.119 HD
ENDBRANCH  14  15
BRANCH  14  18
ATOM     18  C   UNL     1       8.464  -4.208  26.496  0.00  0.00    +0.028 C 
BRANCH  18  19
ATOM     19  C   UNL     1       7.049  -4.321  27.077  0.00  0.00    +0.003 C 
BRANCH  19  20
ATOM     20  C   UNL     1       6.401  -5.661  26.715  0.00  0.00    +0.015 C 
BRANCH  20  21
ATOM     21  C   UNL     1       5.101  -5.451  25.938  0.00  0.00    +0.077 C 
BRANCH  21  22
ATOM     22  N   UNL     1       5.151  -6.159  24.664  0.00  0.00    -0.330 NA
ATOM     23  H   UNL     1       6.123  -6.350  24.423  0.00  0.00    +0.118 HD
ATOM     24  H   UNL     1       4.696  -7.066  24.755  0.00  0.00    +0.118 HD
ENDBRANCH  21  22
ENDBRANCH  20  21
ENDBRANCH  19  20
ENDBRANCH  18  19
ENDBRANCH  14  18
ENDBRANCH   3  14
TORSDOF 10
ENDMDL
MODEL 3
REMARK VINA RESULT:      -5.9      1.699      2.071
REMARK  Name = 
REMARK  11 active torsions:
REMARK  status: ('A' for Active; 'I' for Inactive)
REMARK    1  A    between atoms: C_1  and  C_2
REMARK    2  A    between atoms: C_2  and  C_4
REMARK    3  A    between atoms: C_2  and  N_11
REMARK    4  A    between atoms: C_4  and  C_5
REMARK    5  A    between atoms: C_12  and  C_14
REMARK    6  A    between atoms: C_14  and  N_16
REMARK    7  A    between atoms: C_14  and  C_17
REMARK    8  A    between atoms: C_17  and  C_18
REMARK    9  A    between atoms: C_18  and  C_19
REMARK   10  A    between atoms: C_19  and  C_20
REMARK   11  A    between atoms: C_20  and  N_21
REMARK                            x       y       z     vdW  Elec       q    Type
REMARK                         _______ _______ _______ _____ _____    ______ ____
ROOT
ATOM      1  N   UNL     1       8.454  -3.096  23.357  0.00  0.00    -0.311 N 
ATOM      2  H   UNL     1       9.265  -2.979  23.962  0.00  0.00    +0.149 HD
ATOM      3  C   UNL     1       7.927  -4.369  23.357  0.00  0.00    +0.230 C 
ATOM      4  O   UNL     1       7.084  -4.761  22.556  0.00  0.00    -0.274 OA
ENDROOT
BRANCH   1   6
ATOM      5  C   UNL     1       7.191  -1.065  22.959  0.00  0.00    +0.028 C 
ATOM      6  C   UNL     1       8.143  -2.091  22.343  0.00  0.00    +0.074 C 
BRANCH   6   7
ATOM      7  C   UNL     1       9.428  -1.437  21.785  0.00  0.00    +0.057 C 
BRANCH   7   8
ATOM      8  C   UNL     1       9.843  -0.146  22.462  0.00  0.00    -0.046 A 
ATOM      9  C   UNL     1       9.664   1.089  21.823  0.00  0.00    +0.004 A 
ATOM     10  C   UNL     1      10.067   2.275  22.443  0.00  0.00    +0.000 A 
ATOM     11  C   UNL     1      10.664   2.241  23.700  0.00  0.00    +0.000 A 
ATOM     12  C   UNL     1      10.859   1.019  24.341  0.00  0.00    +0.000 A 
ATOM     13  C   UNL     1      10.452  -0.168  23.725  0.00  0.00    +0.004 A 
ENDBRANCH   7   8
ENDBRANCH   6   7
ENDBRANCH   1   6
BRANCH   3  14
ATOM     14  C   UNL     1       8.469  -5.254  24.505  0.00  0.00    +0.138 C 
BRANCH  14  15
ATOM     15  N   UNL     1       9.739  -4.663  25.010  0.00  0.00    -0.320 NA
ATOM     16  H   UNL     1       9.695  -4.627  26.030  0.00  0.00    +0.119 HD
ATOM     17  H   UNL     1      10.497  -5.313  24.792  0.00  0.00    +0.119 HD
ENDBRANCH  14  15
BRANCH  14  18
ATOM     18  C   UNL     1       7.474  -5.349  25.671  0.00  0.00    +0.028 C 
BRANCH  18  19
ATOM     19  C   UNL     1       7.734  -4.297  26.755  0.00  0.00    +0.003 C 
BRANCH  19  20
ATOM     20  C   UNL     1       6.623  -3.241  26.788  0.00  0.00    +0.015 C 
BRANCH  20  21
ATOM     21  C   UNL     1       7.193  -1.837  26.595  0.00  0.00    +0.077 C 
BRANCH  21  22
ATOM     22  N   UNL     1       8.608  -1.905  26.246  0.00  0.00    -0.330 NA
ATOM     23  H   UNL     1       8.724  -1.655  25.265  0.00  0.00    +0.118 HD
ATOM     24  H   UNL     1       9.129  -1.213  26.781  0.00  0.00    +0.118 HD
ENDBRANCH  21  22
ENDBRANCH  20  21
ENDBRANCH  19  20
ENDBRANCH  18  19
ENDBRANCH  14  18
ENDBRANCH   3  14
TORSDOF 10
ENDMDL
MODEL 4
REMARK VINA RESULT:      -5.8      1.971      2.621
REMARK  Name = 
REMARK  11 active torsions:
REMARK  status: ('A' for Active; 'I' for Inactive)
REMARK    1  A    between atoms: C_1  and  C_2
REMARK    2  A    between atoms: C_2  and  C_4
REMARK    3  A    between atoms: C_2  and  N_11
REMARK    4  A    between atoms: C_4  and  C_5
REMARK    5  A    between atoms: C_12  and  C_14
REMARK    6  A    between atoms: C_14  and  N_16
REMARK    7  A    between atoms: C_14  and  C_17
REMARK    8  A    between atoms: C_17  and  C_18
REMARK    9  A    between atoms: C_18  and  C_19
REMARK   10  A    between atoms: C_19  and  C_20
REMARK   11  A    between atoms: C_20  and  N_21
REMARK                            x       y       z     vdW  Elec       q    Type
REMARK                         _______ _______ _______ _____ _____    ______ ____
ROOT
ATOM      1  N   UNL     1       7.515  -3.458  22.463  0.00  0.00    -0.311 N 
ATOM      2  H   UNL     1       8.247  -4.141  22.654  0.00  0.00    +0.149 HD
ATOM      3  C   UNL     1       6.349  -4.002  21.972  0.00  0.00    +0.230 C 
ATOM      4  O   UNL     1       5.431  -3.339  21.499  0.00  0.00    -0.274 OA
ENDROOT
BRANCH   1   6
ATOM      5  C   UNL     1       7.166  -1.327  23.567  0.00  0.00    +0.028 C 
ATOM      6  C   UNL     1       7.838  -2.035  22.390  0.00  0.00    +0.074 C 
BRANCH   6   7
ATOM      7  C   UNL     1       9.368  -1.805  22.365  0.00  0.00    +0.057 C 
BRANCH   7   8
ATOM      8  C   UNL     1       9.815  -0.395  22.695  0.00  0.00    -0.046 A 
ATOM      9  C   UNL     1      10.387  -0.097  23.940  0.00  0.00    +0.004 A 
ATOM     10  C   UNL     1      10.779   1.210  24.247  0.00  0.00    +0.000 A 
ATOM     11  C   UNL     1      10.594   2.233  23.321  0.00  0.00    +0.000 A 
ATOM     12  C   UNL     1      10.016   1.952  22.085  0.00  0.00    +0.000 A 
ATOM     13  C   UNL     1       9.628   0.646  21.773  0.00  0.00    +0.004 A 
ENDBRANCH   7   8
ENDBRANCH   6   7
ENDBRANCH   1   6
BRANCH   3  14
ATOM     14  C   UNL     1       6.284  -5.541  22.118  0.00  0.00    +0.138 C 
BRANCH  14  15
ATOM     15  N   UNL     1       7.656  -6.059  22.378  0.00  0.00    -0.320 NA
ATOM     16  H   UNL     1       7.612  -6.708  23.165  0.00  0.00    +0.119 HD
ATOM     17  H   UNL     1       7.936  -6.623  21.574  0.00  0.00    +0.119 HD
ENDBRANCH  14  15
BRANCH  14  18
ATOM     18  C   UNL     1       5.372  -5.966  23.279  0.00  0.00    +0.028 C 
BRANCH  18  19
ATOM     19  C   UNL     1       5.450  -5.007  24.472  0.00  0.00    +0.003 C 
BRANCH  19  20
ATOM     20  C   UNL     1       5.995  -5.709  25.720  0.00  0.00    +0.015 C 
BRANCH  20  21
ATOM     21  C   UNL     1       7.438  -5.292  26.000  0.00  0.00    +0.077 C 
BRANCH  21  22
ATOM     22  N   UNL     1       7.857  -5.759  27.317  0.00  0.00    -0.330 NA
ATOM     23  H   UNL     1       7.034  -5.896  27.902  0.00  0.00    +0.118 HD
ATOM     24  H   UNL     1       8.302  -6.672  27.233  0.00  0.00    +0.118 HD
ENDBRANCH  21  22
ENDBRANCH  20  21
ENDBRANCH  19  20
ENDBRANCH  18  19
ENDBRANCH  14  18
ENDBRANCH   3  14
TORSDOF 10
ENDMDL
MODEL 5
REMARK VINA RESULT:      -5.8      2.743      3.822
REMARK  Name = 
REMARK  11 active torsions:
REMARK  status: ('A' for Active; 'I' for Inactive)
REMARK    1  A    between atoms: C_1  and  C_2
REMARK    2  A    between atoms: C_2  and  C_4
REMARK    3  A    between atoms: C_2  and  N_11
REMARK    4  A    between atoms: C_4  and  C_5
REMARK    5  A    between atoms: C_12  and  C_14
REMARK    6  A    between atoms: C_14  and  N_16
REMARK    7  A    between atoms: C_14  and  C_17
REMARK    8  A    between atoms: C_17  and  C_18
REMARK    9  A    between atoms: C_18  and  C_19
REMARK   10  A    between atoms: C_19  and  C_20
REMARK   11  A    between atoms: C_20  and  N_21
REMARK                            x       y       z     vdW  Elec       q    Type
REMARK                         _______ _______ _______ _____ _____    ______ ____
ROOT
ATOM      1  N   UNL     1       9.001  -1.469  23.289  0.00  0.00    -0.311 N 
ATOM      2  H   UNL     1       8.095  -1.048  23.487  0.00  0.00    +0.149 HD
ATOM      3  C   UNL     1       9.199  -2.692  23.891  0.00  0.00    +0.230 C 
ATOM      4  O   UNL     1      10.284  -3.263  23.939  0.00  0.00    -0.274 OA
ENDROOT
BRANCH   1   6
ATOM      5  C   UNL     1       9.511   0.146  21.553  0.00  0.00    +0.028 C 
ATOM      6  C   UNL     1      10.078  -0.662  22.721  0.00  0.00    +0.074 C 
BRANCH   6   7
ATOM      7  C   UNL     1      10.733   0.240  23.794  0.00  0.00    +0.057 C 
BRANCH   7   8
ATOM      8  C   UNL     1      10.035   1.563  24.038  0.00  0.00    -0.046 A 
ATOM      9  C   UNL     1      10.561   2.757  23.523  0.00  0.00    +0.004 A 
ATOM     10  C   UNL     1       9.925   3.978  23.769  0.00  0.00    +0.000 A 
ATOM     11  C   UNL     1       8.767   4.022  24.539  0.00  0.00    +0.000 A 
ATOM     12  C   UNL     1       8.241   2.845  25.068  0.00  0.00    +0.000 A 
ATOM     13  C   UNL     1       8.871   1.623  24.819  0.00  0.00    +0.004 A 
ENDBRANCH   7   8
ENDBRANCH   6   7
ENDBRANCH   1   6
BRANCH   3  14
ATOM     14  C   UNL     1       7.901  -3.307  24.466  0.00  0.00    +0.138 C 
BRANCH  14  15
ATOM     15  N   UNL     1       6.734  -2.738  23.736  0.00  0.00    -0.320 NA
ATOM     16  H   UNL     1       5.923  -3.333  23.912  0.00  0.00    +0.119 HD
ATOM     17  H   UNL     1       6.508  -1.836  24.158  0.00  0.00    +0.119 HD
ENDBRANCH  14  15
BRANCH  14  18
ATOM     18  C   UNL     1       7.877  -4.835  24.314  0.00  0.00    +0.028 C 
BRANCH  18  19
ATOM     19  C   UNL     1       6.714  -5.323  23.442  0.00  0.00    +0.003 C 
BRANCH  19  20
ATOM     20  C   UNL     1       7.213  -5.893  22.110  0.00  0.00    +0.015 C 
BRANCH  20  21
ATOM     21  C   UNL     1       6.228  -5.595  20.980  0.00  0.00    +0.077 C 
BRANCH  21  22
ATOM     22  N   UNL     1       5.760  -4.216  21.065  0.00  0.00    -0.330 NA
ATOM     23  H   UNL     1       6.140  -3.684  20.283  0.00  0.00    +0.118 HD
ATOM     24  H   UNL     1       4.747  -4.189  20.964  0.00  0.00    +0.118 HD
ENDBRANCH  21  22
ENDBRANCH  20  21
ENDBRANCH  19  20
ENDBRANCH  18  19
ENDBRANCH  14  18
ENDBRANCH   3  14
TORSDOF 10
ENDMDL
MODEL 6
REMARK VINA RESULT:      -5.7      2.553      6.047
REMARK  Name = 
REMARK  11 active torsions:
REMARK  status: ('A' for Active; 'I' for Inactive)
REMARK    1  A    between atoms: C_1  and  C_2
REMARK    2  A    between atoms: C_2  and  C_4
REMARK    3  A    between atoms: C_2  and  N_11
REMARK    4  A    between atoms: C_4  and  C_5
REMARK    5  A    between atoms: C_12  and  C_14
REMARK    6  A    between atoms: C_14  and  N_16
REMARK    7  A    between atoms: C_14  and  C_17
REMARK    8  A    between atoms: C_17  and  C_18
REMARK    9  A    between atoms: C_18  and  C_19
REMARK   10  A    between atoms: C_19  and  C_20
REMARK   11  A    between atoms: C_20  and  N_21
REMARK                            x       y       z     vdW  Elec       q    Type
REMARK                         _______ _______ _______ _____ _____    ______ ____
ROOT
ATOM      1  N   UNL     1       6.766  -5.079  25.700  0.00  0.00    -0.311 N 
ATOM      2  H   UNL     1       6.959  -4.727  24.764  0.00  0.00    +0.149 HD
ATOM      3  C   UNL     1       7.889  -5.270  26.475  0.00  0.00    +0.230 C 
ATOM      4  O   UNL     1       7.888  -5.866  27.546  0.00  0.00    -0.274 OA
ENDROOT
BRANCH   1   6
ATOM      5  C   UNL     1       4.750  -4.715  26.997  0.00  0.00    +0.028 C 
ATOM      6  C   UNL     1       5.458  -5.649  26.016  0.00  0.00    +0.074 C 
BRANCH   6   7
ATOM      7  C   UNL     1       4.626  -5.894  24.735  0.00  0.00    +0.057 C 
BRANCH   7   8
ATOM      8  C   UNL     1       5.146  -5.212  23.486  0.00  0.00    -0.046 A 
ATOM      9  C   UNL     1       5.796  -5.947  22.485  0.00  0.00    +0.004 A 
ATOM     10  C   UNL     1       6.292  -5.310  21.343  0.00  0.00    +0.000 A 
ATOM     11  C   UNL     1       6.155  -3.933  21.195  0.00  0.00    +0.000 A 
ATOM     12  C   UNL     1       5.522  -3.188  22.188  0.00  0.00    +0.000 A 
ATOM     13  C   UNL     1       5.020  -3.824  23.327  0.00  0.00    +0.004 A 
ENDBRANCH   7   8
ENDBRANCH   6   7
ENDBRANCH   1   6
BRANCH   3  14
ATOM     14  C   UNL     1       9.158  -4.611  25.883  0.00  0.00    +0.138 C 
BRANCH  14  15
ATOM     15  N   UNL     1      10.146  -5.677  25.555  0.00  0.00    -0.320 NA
ATOM     16  H   UNL     1      10.358  -6.193  26.410  0.00  0.00    +0.119 HD
ATOM     17  H   UNL     1       9.690  -6.349  24.936  0.00  0.00    +0.119 HD
ENDBRANCH  14  15
BRANCH  14  18
ATOM     18  C   UNL     1       8.848  -3.821  24.603  0.00  0.00    +0.028 C 
BRANCH  18  19
ATOM     19  C   UNL     1       8.713  -2.315  24.857  0.00  0.00    +0.003 C 
BRANCH  19  20
ATOM     20  C   UNL     1       8.778  -1.519  23.549  0.00  0.00    +0.015 C 
BRANCH  20  21
ATOM     21  C   UNL     1      10.153  -1.647  22.894  0.00  0.00    +0.077 C 
BRANCH  21  22
ATOM     22  N   UNL     1      10.040  -1.515  21.446  0.00  0.00    -0.330 NA
ATOM     23  H   UNL     1       9.158  -1.921  21.139  0.00  0.00    +0.118 HD
ATOM     24  H   UNL     1      10.005  -0.529  21.192  0.00  0.00    +0.118 HD
ENDBRANCH  21  22
ENDBRANCH  20  21
ENDBRANCH  19  20
ENDBRANCH  18  19
ENDBRANCH  14  18
ENDBRANCH   3  14
TORSDOF 10
ENDMDL
MODEL 7
REMARK VINA RESULT:      -5.7      2.329      7.554
REMARK  Name = 
REMARK  11 active torsions:
REMARK  status: ('A' for Active; 'I' for Inactive)
REMARK    1  A    between atoms: C_1  and  C_2
REMARK    2  A    between atoms: C_2  and  C_4
REMARK    3  A    between atoms: C_2  and  N_11
REMARK    4  A    between atoms: C_4  and  C_5
REMARK    5  A    between atoms: C_12  and  C_14
REMARK    6  A    between atoms: C_14  and  N_16
REMARK    7  A    between atoms: C_14  and  C_17
REMARK    8  A    between atoms: C_17  and  C_18
REMARK    9  A    between atoms: C_18  and  C_19
REMARK   10  A    between atoms: C_19  and  C_20
REMARK   11  A    between atoms: C_20  and  N_21
REMARK                            x       y       z     vdW  Elec       q    Type
REMARK                         _______ _______ _______ _____ _____    ______ ____
ROOT
ATOM      1  N   UNL     1       9.260  -3.379  24.148  0.00  0.00    -0.311 N 
ATOM      2  H   UNL     1       9.890  -2.933  24.814  0.00  0.00    +0.149 HD
ATOM      3  C   UNL     1       8.963  -2.606  23.047  0.00  0.00    +0.230 C 
ATOM      4  O   UNL     1       8.081  -2.877  22.239  0.00  0.00    -0.274 OA
ENDROOT
BRANCH   1   6
ATOM      5  C   UNL     1       9.410  -5.481  25.346  0.00  0.00    +0.028 C 
ATOM      6  C   UNL     1       8.496  -4.561  24.537  0.00  0.00    +0.074 C 
BRANCH   6   7
ATOM      7  C   UNL     1       7.217  -4.174  25.317  0.00  0.00    +0.057 C 
BRANCH   7   8
ATOM      8  C   UNL     1       6.125  -5.225  25.330  0.00  0.00    -0.046 A 
ATOM      9  C   UNL     1       5.705  -5.807  26.535  0.00  0.00    +0.004 A 
ATOM     10  C   UNL     1       4.712  -6.791  26.541  0.00  0.00    +0.000 A 
ATOM     11  C   UNL     1       4.137  -7.213  25.345  0.00  0.00    +0.000 A 
ATOM     12  C   UNL     1       4.555  -6.652  24.140  0.00  0.00    +0.000 A 
ATOM     13  C   UNL     1       5.543  -5.664  24.132  0.00  0.00    +0.004 A 
ENDBRANCH   7   8
ENDBRANCH   6   7
ENDBRANCH   1   6
BRANCH   3  14
ATOM     14  C   UNL     1       9.889  -1.375  22.897  0.00  0.00    +0.138 C 
BRANCH  14  15
ATOM     15  N   UNL     1       9.848  -0.911  21.482  0.00  0.00    -0.320 NA
ATOM     16  H   UNL     1      10.194  -1.664  20.886  0.00  0.00    +0.119 HD
ATOM     17  H   UNL     1       8.869  -0.783  21.222  0.00  0.00    +0.119 HD
ENDBRANCH  14  15
BRANCH  14  18
ATOM     18  C   UNL     1       9.452  -0.217  23.806  0.00  0.00    +0.028 C 
BRANCH  18  19
ATOM     19  C   UNL     1      10.640   0.523  24.432  0.00  0.00    +0.003 C 
BRANCH  19  20
ATOM     20  C   UNL     1      10.733   1.965  23.923  0.00  0.00    +0.015 C 
BRANCH  20  21
ATOM     21  C   UNL     1       9.564   2.298  22.996  0.00  0.00    +0.077 C 
BRANCH  21  22
ATOM     22  N   UNL     1      10.002   2.297  21.605  0.00  0.00    -0.330 NA
ATOM     23  H   UNL     1      10.927   1.873  21.544  0.00  0.00    +0.118 HD
ATOM     24  H   UNL     1       9.382   1.711  21.048  0.00  0.00    +0.118 HD
ENDBRANCH  21  22
ENDBRANCH  20  21
ENDBRANCH  19  20
ENDBRANCH  18  19
ENDBRANCH  14  18
ENDBRANCH   3  14
TORSDOF 10
ENDMDL
MODEL 8
REMARK VINA RESULT:      -5.7      2.557      6.958
REMARK  Name = 
REMARK  11 active torsions:
REMARK  status: ('A' for Active; 'I' for Inactive)
REMARK    1  A    between atoms: C_1  and  C_2
REMARK    2  A    between atoms: C_2  and  C_4
REMARK    3  A    between atoms: C_2  and  N_11
REMARK    4  A    between atoms: C_4  and  C_5
REMARK    5  A    between atoms: C_12  and  C_14
REMARK    6  A    between atoms: C_14  and  N_16
REMARK    7  A    between atoms: C_14  and  C_17
REMARK    8  A    between atoms: C_17  and  C_18
REMARK    9  A    between atoms: C_18  and  C_19
REMARK   10  A    between atoms: C_19  and  C_20
REMARK   11  A    between atoms: C_20  and  N_21
REMARK                            x       y       z     vdW  Elec       q    Type
REMARK                         _______ _______ _______ _____ _____    ______ ____
ROOT
ATOM      1  N   UNL     1       8.523  -2.614  24.008  0.00  0.00    -0.311 N 
ATOM      2  H   UNL     1       7.531  -2.607  23.779  0.00  0.00    +0.149 HD
ATOM      3  C   UNL     1       9.321  -1.972  23.086  0.00  0.00    +0.230 C 
ATOM      4  O   UNL     1      10.545  -2.040  23.076  0.00  0.00    -0.274 OA
ENDROOT
BRANCH   1   6
ATOM      5  C   UNL     1       8.426  -3.145  26.372  0.00  0.00    +0.028 C 
ATOM      6  C   UNL     1       9.037  -3.530  25.024  0.00  0.00    +0.074 C 
BRANCH   6   7
ATOM      7  C   UNL     1       8.750  -5.003  24.650  0.00  0.00    +0.057 C 
BRANCH   7   8
ATOM      8  C   UNL     1       7.454  -5.240  23.902  0.00  0.00    -0.046 A 
ATOM      9  C   UNL     1       6.223  -5.214  24.574  0.00  0.00    +0.004 A 
ATOM     10  C   UNL     1       5.031  -5.454  23.882  0.00  0.00    +0.000 A 
ATOM     11  C   UNL     1       5.056  -5.733  22.519  0.00  0.00    +0.000 A 
ATOM     12  C   UNL     1       6.273  -5.774  21.842  0.00  0.00    +0.000 A 
ATOM     13  C   UNL     1       7.465  -5.529  22.529  0.00  0.00    +0.004 A 
ENDBRANCH   7   8
ENDBRANCH   6   7
ENDBRANCH   1   6
BRANCH   3  14
ATOM     14  C   UNL     1       8.520  -1.108  22.082  0.00  0.00    +0.138 C 
BRANCH  14  15
ATOM     15  N   UNL     1       7.448  -0.383  22.819  0.00  0.00    -0.320 NA
ATOM     16  H   UNL     1       7.882   0.356  23.374  0.00  0.00    +0.119 HD
ATOM     17  H   UNL     1       6.865   0.098  22.132  0.00  0.00    +0.119 HD
ENDBRANCH  14  15
BRANCH  14  18
ATOM     18  C   UNL     1       9.413  -0.078  21.376  0.00  0.00    +0.028 C 
BRANCH  18  19
ATOM     19  C   UNL     1       9.099   1.363  21.796  0.00  0.00    +0.003 C 
BRANCH  19  20
ATOM     20  C   UNL     1      10.275   1.996  22.546  0.00  0.00    +0.015 C 
BRANCH  20  21
ATOM     21  C   UNL     1      10.162   1.755  24.051  0.00  0.00    +0.077 C 
BRANCH  21  22
ATOM     22  N   UNL     1      11.127   0.749  24.478  0.00  0.00    -0.330 NA
ATOM     23  H   UNL     1      12.071   1.101  24.323  0.00  0.00    +0.118 HD
ATOM     24  H   UNL     1      11.041   0.593  25.482  0.00  0.00    +0.118 HD
ENDBRANCH  21  22
ENDBRANCH  20  21
ENDBRANCH  19  20
ENDBRANCH  18  19
ENDBRANCH  14  18
ENDBRANCH   3  14
TORSDOF 10
ENDMDL
MODEL 9
REMARK VINA RESULT:      -5.6      2.639      6.879
REMARK  Name = 
REMARK  11 active torsions:
REMARK  status: ('A' for Active; 'I' for Inactive)
REMARK    1  A    between atoms: C_1  and  C_2
REMARK    2  A    between atoms: C_2  and  C_4
REMARK    3  A    between atoms: C_2  and  N_11
REMARK    4  A    between atoms: C_4  and  C_5
REMARK    5  A    between atoms: C_12  and  C_14
REMARK    6  A    between atoms: C_14  and  N_16
REMARK    7  A    between atoms: C_14  and  C_17
REMARK    8  A    between atoms: C_17  and  C_18
REMARK    9  A    between atoms: C_18  and  C_19
REMARK   10  A    between atoms: C_19  and  C_20
REMARK   11  A    between atoms: C_20  and  N_21
REMARK                            x       y       z     vdW  Elec       q    Type
REMARK                         _______ _______ _______ _____ _____    ______ ____
ROOT
ATOM      1  N   UNL     1       7.980  -2.390  22.338  0.00  0.00    -0.311 N 
ATOM      2  H   UNL     1       8.564  -2.647  21.544  0.00  0.00    +0.149 HD
ATOM      3  C   UNL     1       8.509  -1.394  23.130  0.00  0.00    +0.230 C 
ATOM      4  O   UNL     1       8.062  -1.085  24.230  0.00  0.00    -0.274 OA
ENDROOT
BRANCH   1   6
ATOM      5  C   UNL     1       5.892  -3.377  21.599  0.00  0.00    +0.028 C 
ATOM      6  C   UNL     1       6.883  -3.260  22.757  0.00  0.00    +0.074 C 
BRANCH   6   7
ATOM      7  C   UNL     1       7.405  -4.640  23.221  0.00  0.00    +0.057 C 
BRANCH   7   8
ATOM      8  C   UNL     1       7.143  -4.974  24.676  0.00  0.00    -0.046 A 
ATOM      9  C   UNL     1       8.140  -4.793  25.645  0.00  0.00    +0.004 A 
ATOM     10  C   UNL     1       7.899  -5.122  26.983  0.00  0.00    +0.000 A 
ATOM     11  C   UNL     1       6.667  -5.646  27.364  0.00  0.00    +0.000 A 
ATOM     12  C   UNL     1       5.672  -5.843  26.409  0.00  0.00    +0.000 A 
ATOM     13  C   UNL     1       5.908  -5.509  25.073  0.00  0.00    +0.004 A 
ENDBRANCH   7   8
ENDBRANCH   6   7
ENDBRANCH   1   6
BRANCH   3  14
ATOM     14  C   UNL     1       9.704  -0.662  22.474  0.00  0.00    +0.138 C 
BRANCH  14  15
ATOM     15  N   UNL     1      10.603  -1.672  21.850  0.00  0.00    -0.320 NA
ATOM     16  H   UNL     1      10.165  -2.590  21.935  0.00  0.00    +0.119 HD
ATOM     17  H   UNL     1      10.643  -1.480  20.847  0.00  0.00    +0.119 HD
ENDBRANCH  14  15
BRANCH  14  18
ATOM     18  C   UNL     1       9.244   0.322  21.388  0.00  0.00    +0.028 C 
BRANCH  18  19
ATOM     19  C   UNL     1       9.185   1.770  21.891  0.00  0.00    +0.003 C 
BRANCH  19  20
ATOM     20  C   UNL     1      10.124   1.987  23.082  0.00  0.00    +0.015 C 
BRANCH  20  21
ATOM     21  C   UNL     1       9.377   2.599  24.267  0.00  0.00    +0.077 C 
BRANCH  21  22
ATOM     22  N   UNL     1       9.045   1.570  25.245  0.00  0.00    -0.330 NA
ATOM     23  H   UNL     1       8.555   0.808  24.778  0.00  0.00    +0.118 HD
ATOM     24  H   UNL     1       9.901   1.168  25.626  0.00  0.00    +0.118 HD
ENDBRANCH  21  22
ENDBRANCH  20  21
ENDBRANCH  19  20
ENDBRANCH  18  19
ENDBRANCH  14  18
ENDBRANCH   3  14
TORSDOF 10
ENDMDL
