MODEL 1
REMARK VINA RESULT:     -11.7      0.000      0.000
REMARK  Name = 
REMARK  1 active torsions:
REMARK  status: ('A' for Active; 'I' for Inactive)
REMARK    1  A    between atoms: C_7  and  C_8
REMARK                            x       y       z     vdW  Elec       q    Type
REMARK                         _______ _______ _______ _____ _____    ______ ____
ROOT
ATOM      1  C   UNL     1      12.937   5.139  23.131  0.00  0.00    +0.006 C 
ATOM      2  C   UNL     1      12.937   5.139  23.131  0.00  0.00    -0.003 C 
ATOM      3  C   UNL     1      12.937   5.139  23.131  0.00  0.00    -0.000 C 
ATOM      4  C   UNL     1      12.937   5.139  23.131  0.00  0.00    +0.019 C 
ATOM      5  C   UNL     1      12.937   5.139  23.131  0.00  0.00    -0.063 C 
ATOM      6  C   UNL     1      12.937   5.139  23.131  0.00  0.00    +0.031 C 
ATOM      7  C   UNL     1      12.937   5.139  23.131  0.00  0.00    +0.045 C 
ATOM      8  C   UNL     1      12.937   5.139  23.131  0.00  0.00    +0.156 C 
ATOM      9  O   UNL     1      12.937   5.139  23.131  0.00  0.00    -0.293 OA
ATOM     10  C   UNL     1      12.937   5.139  23.131  0.00  0.00    +0.079 C 
ATOM     11  C   UNL     1      12.937   5.139  23.131  0.00  0.00    +0.016 C 
ATOM     12  C   UNL     1      12.937   5.139  23.131  0.00  0.00    +0.005 C 
ATOM     13  C   UNL     1      12.937   5.139  23.131  0.00  0.00    +0.015 C 
ATOM     14  C   UNL     1      12.937   5.139  23.131  0.00  0.00    +0.008 C 
ATOM     15  C   UNL     1      12.937   5.139  23.131  0.00  0.00    +0.029 C 
ATOM     16  C   UNL     1      12.937   5.139  23.131  0.00  0.00    +0.019 C 
ATOM     17  C   UNL     1      12.937   5.139  23.131  0.00  0.00    +0.139 C 
ATOM     18  O   UNL     1      12.937   5.139  23.131  0.00  0.00    -0.297 OA
ATOM     19  C   UNL     1      12.937   5.139  23.131  0.00  0.00    +0.075 C 
ATOM     20  C   UNL     1      12.937   5.139  23.131  0.00  0.00    +0.012 C 
ENDROOT
TORSDOF 0
ENDMDL
MODEL 2
REMARK VINA RESULT:     -11.5      1.020      1.020
REMARK  Name = 
REMARK  1 active torsions:
REMARK  status: ('A' for Active; 'I' for Inactive)
REMARK    1  A    between atoms: C_7  and  C_8
REMARK                            x       y       z     vdW  Elec       q    Type
REMARK                         _______ _______ _______ _____ _____    ______ ____
ROOT
ATOM      1  C   UNL     1      13.237   5.545  22.245  0.00  0.00    +0.006 C 
ATOM      2  C   UNL     1      13.237   5.545  22.245  0.00  0.00    -0.003 C 
ATOM      3  C   UNL     1      13.237   5.545  22.245  0.00  0.00    -0.000 C 
ATOM      4  C   UNL     1      13.237   5.545  22.245  0.00  0.00    +0.019 C 
ATOM      5  C   UNL     1      13.237   5.545  22.245  0.00  0.00    -0.063 C 
ATOM      6  C   UNL     1      13.237   5.545  22.245  0.00  0.00    +0.031 C 
ATOM      7  C   UNL     1      13.237   5.545  22.245  0.00  0.00    +0.045 C 
ATOM      8  C   UNL     1      13.237   5.545  22.245  0.00  0.00    +0.156 C 
ATOM      9  O   UNL     1      13.237   5.545  22.245  0.00  0.00    -0.293 OA
ATOM     10  C   UNL     1      13.237   5.545  22.245  0.00  0.00    +0.079 C 
ATOM     11  C   UNL     1      13.237   5.545  22.245  0.00  0.00    +0.016 C 
ATOM     12  C   UNL     1      13.237   5.545  22.245  0.00  0.00    +0.005 C 
ATOM     13  C   UNL     1      13.237   5.545  22.245  0.00  0.00    +0.015 C 
ATOM     14  C   UNL     1      13.237   5.545  22.245  0.00  0.00    +0.008 C 
ATOM     15  C   UNL     1      13.237   5.545  22.245  0.00  0.00    +0.029 C 
ATOM     16  C   UNL     1      13.237   5.545  22.245  0.00  0.00    +0.019 C 
ATOM     17  C   UNL     1      13.237   5.545  22.245  0.00  0.00    +0.139 C 
ATOM     18  O   UNL     1      13.237   5.545  22.245  0.00  0.00    -0.297 OA
ATOM     19  C   UNL     1      13.237   5.545  22.245  0.00  0.00    +0.075 C 
ATOM     20  C   UNL     1      13.237   5.545  22.245  0.00  0.00    +0.012 C 
ENDROOT
TORSDOF 0
ENDMDL
MODEL 3
REMARK VINA RESULT:     -11.1     12.896     12.896
REMARK  Name = 
REMARK  1 active torsions:
REMARK  status: ('A' for Active; 'I' for Inactive)
REMARK    1  A    between atoms: C_7  and  C_8
REMARK                            x       y       z     vdW  Elec       q    Type
REMARK                         _______ _______ _______ _____ _____    ______ ____
ROOT
ATOM      1  C   UNL     1       6.244  -5.681  21.020  0.00  0.00    +0.006 C 
ATOM      2  C   UNL     1       6.244  -5.681  21.020  0.00  0.00    -0.003 C 
ATOM      3  C   UNL     1       6.244  -5.681  21.020  0.00  0.00    -0.000 C 
ATOM      4  C   UNL     1       6.244  -5.681  21.020  0.00  0.00    +0.019 C 
ATOM      5  C   UNL     1       6.244  -5.681  21.020  0.00  0.00    -0.063 C 
ATOM      6  C   UNL     1       6.244  -5.681  21.020  0.00  0.00    +0.031 C 
ATOM      7  C   UNL     1       6.244  -5.681  21.020  0.00  0.00    +0.045 C 
ATOM      8  C   UNL     1       6.244  -5.681  21.020  0.00  0.00    +0.156 C 
ATOM      9  O   UNL     1       6.244  -5.681  21.020  0.00  0.00    -0.293 OA
ATOM     10  C   UNL     1       6.244  -5.681  21.020  0.00  0.00    +0.079 C 
ATOM     11  C   UNL     1       6.244  -5.681  21.020  0.00  0.00    +0.016 C 
ATOM     12  C   UNL     1       6.244  -5.681  21.020  0.00  0.00    +0.005 C 
ATOM     13  C   UNL     1       6.244  -5.681  21.020  0.00  0.00    +0.015 C 
ATOM     14  C   UNL     1       6.244  -5.681  21.020  0.00  0.00    +0.008 C 
ATOM     15  C   UNL     1       6.244  -5.681  21.020  0.00  0.00    +0.029 C 
ATOM     16  C   UNL     1       6.244  -5.681  21.020  0.00  0.00    +0.019 C 
ATOM     17  C   UNL     1       6.244  -5.681  21.020  0.00  0.00    +0.139 C 
ATOM     18  O   UNL     1       6.244  -5.681  21.020  0.00  0.00    -0.297 OA
ATOM     19  C   UNL     1       6.244  -5.681  21.020  0.00  0.00    +0.075 C 
ATOM     20  C   UNL     1       6.244  -5.681  21.020  0.00  0.00    +0.012 C 
ENDROOT
TORSDOF 0
ENDMDL
MODEL 4
REMARK VINA RESULT:     -10.9      4.782      4.782
REMARK  Name = 
REMARK  1 active torsions:
REMARK  status: ('A' for Active; 'I' for Inactive)
REMARK    1  A    between atoms: C_7  and  C_8
REMARK                            x       y       z     vdW  Elec       q    Type
REMARK                         _______ _______ _______ _____ _____    ______ ____
ROOT
ATOM      1  C   UNL     1       9.947   1.575  22.022  0.00  0.00    +0.006 C 
ATOM      2  C   UNL     1       9.947   1.575  22.022  0.00  0.00    -0.003 C 
ATOM      3  C   UNL     1       9.947   1.575  22.022  0.00  0.00    -0.000 C 
ATOM      4  C   UNL     1       9.947   1.575  22.022  0.00  0.00    +0.019 C 
ATOM      5  C   UNL     1       9.947   1.575  22.022  0.00  0.00    -0.063 C 
ATOM      6  C   UNL     1       9.947   1.575  22.022  0.00  0.00    +0.031 C 
ATOM      7  C   UNL     1       9.947   1.575  22.022  0.00  0.00    +0.045 C 
ATOM      8  C   UNL     1       9.947   1.575  22.022  0.00  0.00    +0.156 C 
ATOM      9  O   UNL     1       9.947   1.575  22.022  0.00  0.00    -0.293 OA
ATOM     10  C   UNL     1       9.947   1.575  22.022  0.00  0.00    +0.079 C 
ATOM     11  C   UNL     1       9.947   1.575  22.022  0.00  0.00    +0.016 C 
ATOM     12  C   UNL     1       9.947   1.575  22.022  0.00  0.00    +0.005 C 
ATOM     13  C   UNL     1       9.947   1.575  22.022  0.00  0.00    +0.015 C 
ATOM     14  C   UNL     1       9.947   1.575  22.022  0.00  0.00    +0.008 C 
ATOM     15  C   UNL     1       9.947   1.575  22.022  0.00  0.00    +0.029 C 
ATOM     16  C   UNL     1       9.947   1.575  22.022  0.00  0.00    +0.019 C 
ATOM     17  C   UNL     1       9.947   1.575  22.022  0.00  0.00    +0.139 C 
ATOM     18  O   UNL     1       9.947   1.575  22.022  0.00  0.00    -0.297 OA
ATOM     19  C   UNL     1       9.947   1.575  22.022  0.00  0.00    +0.075 C 
ATOM     20  C   UNL     1       9.947   1.575  22.022  0.00  0.00    +0.012 C 
ENDROOT
TORSDOF 0
ENDMDL
MODEL 5
REMARK VINA RESULT:     -10.9     10.357     10.357
REMARK  Name = 
REMARK  1 active torsions:
REMARK  status: ('A' for Active; 'I' for Inactive)
REMARK    1  A    between atoms: C_7  and  C_8
REMARK                            x       y       z     vdW  Elec       q    Type
REMARK                         _______ _______ _______ _____ _____    ______ ____
ROOT
ATOM      1  C   UNL     1      20.587  -1.560  25.101  0.00  0.00    +0.006 C 
ATOM      2  C   UNL     1      20.587  -1.560  25.101  0.00  0.00    -0.003 C 
ATOM      3  C   UNL     1      20.587  -1.560  25.101  0.00  0.00    -0.000 C 
ATOM      4  C   UNL     1      20.587  -1.560  25.101  0.00  0.00    +0.019 C 
ATOM      5  C   UNL     1      20.587  -1.560  25.101  0.00  0.00    -0.063 C 
ATOM      6  C   UNL     1      20.587  -1.560  25.101  0.00  0.00    +0.031 C 
ATOM      7  C   UNL     1      20.587  -1.560  25.101  0.00  0.00    +0.045 C 
ATOM      8  C   UNL     1      20.587  -1.560  25.101  0.00  0.00    +0.156 C 
ATOM      9  O   UNL     1      20.587  -1.560  25.101  0.00  0.00    -0.293 OA
ATOM     10  C   UNL     1      20.587  -1.560  25.101  0.00  0.00    +0.079 C 
ATOM     11  C   UNL     1      20.587  -1.560  25.101  0.00  0.00    +0.016 C 
ATOM     12  C   UNL     1      20.587  -1.560  25.101  0.00  0.00    +0.005 C 
ATOM     13  C   UNL     1      20.587  -1.560  25.101  0.00  0.00    +0.015 C 
ATOM     14  C   UNL     1      20.587  -1.560  25.101  0.00  0.00    +0.008 C 
ATOM     15  C   UNL     1      20.587  -1.560  25.101  0.00  0.00    +0.029 C 
ATOM     16  C   UNL     1      20.587  -1.560  25.101  0.00  0.00    +0.019 C 
ATOM     17  C   UNL     1      20.587  -1.560  25.101  0.00  0.00    +0.139 C 
ATOM     18  O   UNL     1      20.587  -1.560  25.101  0.00  0.00    -0.297 OA
ATOM     19  C   UNL     1      20.587  -1.560  25.101  0.00  0.00    +0.075 C 
ATOM     20  C   UNL     1      20.587  -1.560  25.101  0.00  0.00    +0.012 C 
ENDROOT
TORSDOF 0
ENDMDL
MODEL 6
REMARK VINA RESULT:     -10.9      5.277      5.277
REMARK  Name = 
REMARK  1 active torsions:
REMARK  status: ('A' for Active; 'I' for Inactive)
REMARK    1  A    between atoms: C_7  and  C_8
REMARK                            x       y       z     vdW  Elec       q    Type
REMARK                         _______ _______ _______ _____ _____    ______ ____
ROOT
ATOM      1  C   UNL     1      10.793   0.578  24.698  0.00  0.00    +0.006 C 
ATOM      2  C   UNL     1      10.793   0.578  24.698  0.00  0.00    -0.003 C 
ATOM      3  C   UNL     1      10.793   0.578  24.698  0.00  0.00    -0.000 C 
ATOM      4  C   UNL     1      10.793   0.578  24.698  0.00  0.00    +0.019 C 
ATOM      5  C   UNL     1      10.793   0.578  24.698  0.00  0.00    -0.063 C 
ATOM      6  C   UNL     1      10.793   0.578  24.698  0.00  0.00    +0.031 C 
ATOM      7  C   UNL     1      10.793   0.578  24.698  0.00  0.00    +0.045 C 
ATOM      8  C   UNL     1      10.793   0.578  24.698  0.00  0.00    +0.156 C 
ATOM      9  O   UNL     1      10.793   0.578  24.698  0.00  0.00    -0.293 OA
ATOM     10  C   UNL     1      10.793   0.578  24.698  0.00  0.00    +0.079 C 
ATOM     11  C   UNL     1      10.793   0.578  24.698  0.00  0.00    +0.016 C 
ATOM     12  C   UNL     1      10.793   0.578  24.698  0.00  0.00    +0.005 C 
ATOM     13  C   UNL     1      10.793   0.578  24.698  0.00  0.00    +0.015 C 
ATOM     14  C   UNL     1      10.793   0.578  24.698  0.00  0.00    +0.008 C 
ATOM     15  C   UNL     1      10.793   0.578  24.698  0.00  0.00    +0.029 C 
ATOM     16  C   UNL     1      10.793   0.578  24.698  0.00  0.00    +0.019 C 
ATOM     17  C   UNL     1      10.793   0.578  24.698  0.00  0.00    +0.139 C 
ATOM     18  O   UNL     1      10.793   0.578  24.698  0.00  0.00    -0.297 OA
ATOM     19  C   UNL     1      10.793   0.578  24.698  0.00  0.00    +0.075 C 
ATOM     20  C   UNL     1      10.793   0.578  24.698  0.00  0.00    +0.012 C 
ENDROOT
TORSDOF 0
ENDMDL
MODEL 7
REMARK VINA RESULT:     -10.7      6.442      6.442
REMARK  Name = 
REMARK  1 active torsions:
REMARK  status: ('A' for Active; 'I' for Inactive)
REMARK    1  A    between atoms: C_7  and  C_8
REMARK                            x       y       z     vdW  Elec       q    Type
REMARK                         _______ _______ _______ _____ _____    ______ ____
ROOT
ATOM      1  C   UNL     1       9.443  -0.017  21.485  0.00  0.00    +0.006 C 
ATOM      2  C   UNL     1       9.443  -0.017  21.485  0.00  0.00    -0.003 C 
ATOM      3  C   UNL     1       9.443  -0.017  21.485  0.00  0.00    -0.000 C 
ATOM      4  C   UNL     1       9.443  -0.017  21.485  0.00  0.00    +0.019 C 
ATOM      5  C   UNL     1       9.443  -0.017  21.485  0.00  0.00    -0.063 C 
ATOM      6  C   UNL     1       9.443  -0.017  21.485  0.00  0.00    +0.031 C 
ATOM      7  C   UNL     1       9.443  -0.017  21.485  0.00  0.00    +0.045 C 
ATOM      8  C   UNL     1       9.443  -0.017  21.485  0.00  0.00    +0.156 C 
ATOM      9  O   UNL     1       9.443  -0.017  21.485  0.00  0.00    -0.293 OA
ATOM     10  C   UNL     1       9.443  -0.017  21.485  0.00  0.00    +0.079 C 
ATOM     11  C   UNL     1       9.443  -0.017  21.485  0.00  0.00    +0.016 C 
ATOM     12  C   UNL     1       9.443  -0.017  21.485  0.00  0.00    +0.005 C 
ATOM     13  C   UNL     1       9.443  -0.017  21.485  0.00  0.00    +0.015 C 
ATOM     14  C   UNL     1       9.443  -0.017  21.485  0.00  0.00    +0.008 C 
ATOM     15  C   UNL     1       9.443  -0.017  21.485  0.00  0.00    +0.029 C 
ATOM     16  C   UNL     1       9.443  -0.017  21.485  0.00  0.00    +0.019 C 
ATOM     17  C   UNL     1       9.443  -0.017  21.485  0.00  0.00    +0.139 C 
ATOM     18  O   UNL     1       9.443  -0.017  21.485  0.00  0.00    -0.297 OA
ATOM     19  C   UNL     1       9.443  -0.017  21.485  0.00  0.00    +0.075 C 
ATOM     20  C   UNL     1       9.443  -0.017  21.485  0.00  0.00    +0.012 C 
ENDROOT
TORSDOF 0
ENDMDL
MODEL 8
REMARK VINA RESULT:     -10.7      8.243      8.243
REMARK  Name = 
REMARK  1 active torsions:
REMARK  status: ('A' for Active; 'I' for Inactive)
REMARK    1  A    between atoms: C_7  and  C_8
REMARK                            x       y       z     vdW  Elec       q    Type
REMARK                         _______ _______ _______ _____ _____    ______ ____
ROOT
ATOM      1  C   UNL     1       9.867  -2.481  23.816  0.00  0.00    +0.006 C 
ATOM      2  C   UNL     1       9.867  -2.481  23.816  0.00  0.00    -0.003 C 
ATOM      3  C   UNL     1       9.867  -2.481  23.816  0.00  0.00    -0.000 C 
ATOM      4  C   UNL     1       9.867  -2.481  23.816  0.00  0.00    +0.019 C 
ATOM      5  C   UNL     1       9.867  -2.481  23.816  0.00  0.00    -0.063 C 
ATOM      6  C   UNL     1       9.867  -2.481  23.816  0.00  0.00    +0.031 C 
ATOM      7  C   UNL     1       9.867  -2.481  23.816  0.00  0.00    +0.045 C 
ATOM      8  C   UNL     1       9.867  -2.481  23.816  0.00  0.00    +0.156 C 
ATOM      9  O   UNL     1       9.867  -2.481  23.816  0.00  0.00    -0.293 OA
ATOM     10  C   UNL     1       9.867  -2.481  23.816  0.00  0.00    +0.079 C 
ATOM     11  C   UNL     1       9.867  -2.481  23.816  0.00  0.00    +0.016 C 
ATOM     12  C   UNL     1       9.867  -2.481  23.816  0.00  0.00    +0.005 C 
ATOM     13  C   UNL     1       9.867  -2.481  23.816  0.00  0.00    +0.015 C 
ATOM     14  C   UNL     1       9.867  -2.481  23.816  0.00  0.00    +0.008 C 
ATOM     15  C   UNL     1       9.867  -2.481  23.816  0.00  0.00    +0.029 C 
ATOM     16  C   UNL     1       9.867  -2.481  23.816  0.00  0.00    +0.019 C 
ATOM     17  C   UNL     1       9.867  -2.481  23.816  0.00  0.00    +0.139 C 
ATOM     18  O   UNL     1       9.867  -2.481  23.816  0.00  0.00    -0.297 OA
ATOM     19  C   UNL     1       9.867  -2.481  23.816  0.00  0.00    +0.075 C 
ATOM     20  C   UNL     1       9.867  -2.481  23.816  0.00  0.00    +0.012 C 
ENDROOT
TORSDOF 0
ENDMDL
MODEL 9
REMARK VINA RESULT:     -10.7      7.208      7.208
REMARK  Name = 
REMARK  1 active torsions:
REMARK  status: ('A' for Active; 'I' for Inactive)
REMARK    1  A    between atoms: C_7  and  C_8
REMARK                            x       y       z     vdW  Elec       q    Type
REMARK                         _______ _______ _______ _____ _____    ______ ____
ROOT
ATOM      1  C   UNL     1      10.291  -1.543  22.572  0.00  0.00    +0.006 C 
ATOM      2  C   UNL     1      10.291  -1.543  22.572  0.00  0.00    -0.003 C 
ATOM      3  C   UNL     1      10.291  -1.543  22.572  0.00  0.00    -0.000 C 
ATOM      4  C   UNL     1      10.291  -1.543  22.572  0.00  0.00    +0.019 C 
ATOM      5  C   UNL     1      10.291  -1.543  22.572  0.00  0.00    -0.063 C 
ATOM      6  C   UNL     1      10.291  -1.543  22.572  0.00  0.00    +0.031 C 
ATOM      7  C   UNL     1      10.291  -1.543  22.572  0.00  0.00    +0.045 C 
ATOM      8  C   UNL     1      10.291  -1.543  22.572  0.00  0.00    +0.156 C 
ATOM      9  O   UNL     1      10.291  -1.543  22.572  0.00  0.00    -0.293 OA
ATOM     10  C   UNL     1      10.291  -1.543  22.572  0.00  0.00    +0.079 C 
ATOM     11  C   UNL     1      10.291  -1.543  22.572  0.00  0.00    +0.016 C 
ATOM     12  C   UNL     1      10.291  -1.543  22.572  0.00  0.00    +0.005 C 
ATOM     13  C   UNL     1      10.291  -1.543  22.572  0.00  0.00    +0.015 C 
ATOM     14  C   UNL     1      10.291  -1.543  22.572  0.00  0.00    +0.008 C 
ATOM     15  C   UNL     1      10.291  -1.543  22.572  0.00  0.00    +0.029 C 
ATOM     16  C   UNL     1      10.291  -1.543  22.572  0.00  0.00    +0.019 C 
ATOM     17  C   UNL     1      10.291  -1.543  22.572  0.00  0.00    +0.139 C 
ATOM     18  O   UNL     1      10.291  -1.543  22.572  0.00  0.00    -0.297 OA
ATOM     19  C   UNL     1      10.291  -1.543  22.572  0.00  0.00    +0.075 C 
ATOM     20  C   UNL     1      10.291  -1.543  22.572  0.00  0.00    +0.012 C 
ENDROOT
TORSDOF 0
ENDMDL
