MODEL 1
REMARK VINA RESULT:      -6.9      0.000      0.000
REMARK  Name = 
REMARK  5 active torsions:
REMARK  status: ('A' for Active; 'I' for Inactive)
REMARK    1  A    between atoms: N_1  and  S_2
REMARK    2  A    between atoms: S_2  and  C_5
REMARK    3  A    between atoms: C_8  and  N_9
REMARK    4  A    between atoms: C_10  and  C_12
REMARK    5  A    between atoms: C_17  and  S_18
REMARK                            x       y       z     vdW  Elec       q    Type
REMARK                         _______ _______ _______ _____ _____    ______ ____
ROOT
ATOM      1  C   UNL     1       9.101  -3.093  24.966  0.00  0.00    +0.105 A 
ATOM      2  C   UNL     1       9.852  -2.557  23.917  0.00  0.00    +0.030 A 
ATOM      3  C   UNL     1      10.094  -1.177  23.872  0.00  0.00    +0.025 A 
ATOM      4  C   UNL     1       9.608  -0.335  24.882  0.00  0.00    +0.034 A 
ATOM      5  C   UNL     1       8.850  -0.894  25.917  0.00  0.00    +0.025 A 
ATOM      6  C   UNL     1       8.597  -2.268  25.967  0.00  0.00    +0.030 A 
ENDROOT
BRANCH   4   7
ATOM      7  N   UNL     1       9.884   1.050  24.788  0.00  0.00    -0.281 N 
ATOM      8  H   UNL     1      10.596   1.418  25.406  0.00  0.00    +0.155 HD
ATOM      9  C   UNL     1       9.259   1.939  23.938  0.00  0.00    +0.249 C 
ATOM     10  O   UNL     1       8.276   1.686  23.244  0.00  0.00    -0.270 OA
BRANCH   9  11
ATOM     11  C   UNL     1       9.765   3.347  23.891  0.00  0.00    +0.050 A 
ATOM     12  C   UNL     1       9.115   4.475  24.425  0.00  0.00    +0.017 A 
ATOM     13  C   UNL     1       9.803   5.704  24.444  0.00  0.00    +0.015 A 
ATOM     14  C   UNL     1      11.100   5.821  23.938  0.00  0.00    +0.001 A 
ATOM     15  C   UNL     1      11.726   4.716  23.379  0.00  0.00    +0.001 A 
ATOM     16  C   UNL     1      11.064   3.491  23.358  0.00  0.00    +0.014 A 
BRANCH  12  17
ATOM     17  S   UNL     1       7.458   4.469  25.102  0.00  0.00    -0.142 S 
ATOM     18  H   UNL     1       7.774   4.872  26.342  0.00  0.00    +0.107 HD
ENDBRANCH  12  17
ENDBRANCH   9  11
ENDBRANCH   4   7
BRANCH   1  19
ATOM     19  S   UNL     1       8.761  -4.826  25.027  0.00  0.00    +0.056 S 
ATOM     20  O   UNL     1       7.939  -5.110  26.181  0.00  0.00    -0.153 OA
ATOM     21  O   UNL     1       8.429  -5.288  23.700  0.00  0.00    -0.153 OA
BRANCH  19  22
ATOM     22  N   UNL     1      10.268  -5.475  25.392  0.00  0.00    -0.204 NA
ATOM     23  H   UNL     1      10.364  -6.396  24.961  0.00  0.00    +0.144 HD
ATOM     24  H   UNL     1      10.998  -4.816  25.126  0.00  0.00    +0.144 HD
ENDBRANCH  19  22
ENDBRANCH   1  19
TORSDOF 5
ENDMDL
MODEL 2
REMARK VINA RESULT:      -6.2      1.412      2.262
REMARK  Name = 
REMARK  5 active torsions:
REMARK  status: ('A' for Active; 'I' for Inactive)
REMARK    1  A    between atoms: N_1  and  S_2
REMARK    2  A    between atoms: S_2  and  C_5
REMARK    3  A    between atoms: C_8  and  N_9
REMARK    4  A    between atoms: C_10  and  C_12
REMARK    5  A    between atoms: C_17  and  S_18
REMARK                            x       y       z     vdW  Elec       q    Type
REMARK                         _______ _______ _______ _____ _____    ______ ____
ROOT
ATOM      1  C   UNL     1       8.845  -3.356  25.256  0.00  0.00    +0.105 A 
ATOM      2  C   UNL     1       8.345  -2.691  26.378  0.00  0.00    +0.030 A 
ATOM      3  C   UNL     1       8.429  -1.294  26.452  0.00  0.00    +0.025 A 
ATOM      4  C   UNL     1       8.989  -0.557  25.399  0.00  0.00    +0.034 A 
ATOM      5  C   UNL     1       9.492  -1.246  24.289  0.00  0.00    +0.025 A 
ATOM      6  C   UNL     1       9.420  -2.640  24.210  0.00  0.00    +0.030 A 
ENDROOT
BRANCH   4   7
ATOM      7  N   UNL     1       9.048   0.852  25.524  0.00  0.00    -0.281 N 
ATOM      8  H   UNL     1       9.779   1.229  26.114  0.00  0.00    +0.155 HD
ATOM      9  C   UNL     1       8.190   1.749  24.923  0.00  0.00    +0.249 C 
ATOM     10  O   UNL     1       7.167   1.451  24.310  0.00  0.00    -0.270 OA
BRANCH   9  11
ATOM     11  C   UNL     1       8.478   3.210  25.071  0.00  0.00    +0.050 A 
ATOM     12  C   UNL     1       9.449   3.935  24.356  0.00  0.00    +0.017 A 
ATOM     13  C   UNL     1       9.481   5.337  24.495  0.00  0.00    +0.015 A 
ATOM     14  C   UNL     1       8.582   6.008  25.329  0.00  0.00    +0.001 A 
ATOM     15  C   UNL     1       7.649   5.287  26.060  0.00  0.00    +0.001 A 
ATOM     16  C   UNL     1       7.599   3.902  25.931  0.00  0.00    +0.014 A 
BRANCH  12  17
ATOM     17  S   UNL     1      10.660   3.207  23.258  0.00  0.00    -0.142 S 
ATOM     18  H   UNL     1       9.820   2.875  22.265  0.00  0.00    +0.107 HD
ENDBRANCH  12  17
ENDBRANCH   9  11
ENDBRANCH   4   7
BRANCH   1  19
ATOM     19  S   UNL     1       8.774  -5.118  25.156  0.00  0.00    +0.056 S 
ATOM     20  O   UNL     1       7.989  -5.627  26.257  0.00  0.00    -0.153 OA
ATOM     21  O   UNL     1       8.535  -5.502  23.785  0.00  0.00    -0.153 OA
BRANCH  19  22
ATOM     22  N   UNL     1      10.357  -5.563  25.504  0.00  0.00    -0.204 NA
ATOM     23  H   UNL     1      10.524  -5.498  26.510  0.00  0.00    +0.144 HD
ATOM     24  H   UNL     1      10.547  -6.485  25.113  0.00  0.00    +0.144 HD
ENDBRANCH  19  22
ENDBRANCH   1  19
TORSDOF 5
ENDMDL
MODEL 3
REMARK VINA RESULT:      -6.1      2.406      2.738
REMARK  Name = 
REMARK  5 active torsions:
REMARK  status: ('A' for Active; 'I' for Inactive)
REMARK    1  A    between atoms: N_1  and  S_2
REMARK    2  A    between atoms: S_2  and  C_5
REMARK    3  A    between atoms: C_8  and  N_9
REMARK    4  A    between atoms: C_10  and  C_12
REMARK    5  A    between atoms: C_17  and  S_18
REMARK                            x       y       z     vdW  Elec       q    Type
REMARK                         _______ _______ _______ _____ _____    ______ ____
ROOT
ATOM      1  C   UNL     1       7.246  -2.759  22.780  0.00  0.00    +0.105 A 
ATOM      2  C   UNL     1       6.513  -1.677  23.273  0.00  0.00    +0.030 A 
ATOM      3  C   UNL     1       7.082  -0.396  23.276  0.00  0.00    +0.025 A 
ATOM      4  C   UNL     1       8.371  -0.188  22.766  0.00  0.00    +0.034 A 
ATOM      5  C   UNL     1       9.090  -1.289  22.286  0.00  0.00    +0.025 A 
ATOM      6  C   UNL     1       8.534  -2.572  22.286  0.00  0.00    +0.030 A 
ENDROOT
BRANCH   4   7
ATOM      7  N   UNL     1       8.897   1.125  22.791  0.00  0.00    -0.281 N 
ATOM      8  H   UNL     1       8.751   1.692  21.965  0.00  0.00    +0.155 HD
ATOM      9  C   UNL     1       9.597   1.692  23.835  0.00  0.00    +0.249 C 
ATOM     10  O   UNL     1       9.991   1.093  24.834  0.00  0.00    -0.270 OA
BRANCH   9  11
ATOM     11  C   UNL     1       9.973   3.137  23.732  0.00  0.00    +0.050 A 
ATOM     12  C   UNL     1       9.154   4.228  24.078  0.00  0.00    +0.017 A 
ATOM     13  C   UNL     1       9.717   5.520  24.079  0.00  0.00    +0.015 A 
ATOM     14  C   UNL     1      11.055   5.732  23.736  0.00  0.00    +0.001 A 
ATOM     15  C   UNL     1      11.850   4.660  23.360  0.00  0.00    +0.001 A 
ATOM     16  C   UNL     1      11.313   3.375  23.360  0.00  0.00    +0.014 A 
BRANCH  12  17
ATOM     17  S   UNL     1       7.428   4.101  24.535  0.00  0.00    -0.142 S 
ATOM     18  H   UNL     1       7.599   4.093  25.866  0.00  0.00    +0.107 HD
ENDBRANCH  12  17
ENDBRANCH   9  11
ENDBRANCH   4   7
BRANCH   1  19
ATOM     19  S   UNL     1       6.558  -4.386  22.792  0.00  0.00    +0.056 S 
ATOM     20  O   UNL     1       7.192  -5.180  21.766  0.00  0.00    -0.153 OA
ATOM     21  O   UNL     1       6.432  -4.833  24.159  0.00  0.00    -0.153 OA
BRANCH  19  22
ATOM     22  N   UNL     1       4.994  -4.120  22.235  0.00  0.00    -0.204 NA
ATOM     23  H   UNL     1       4.479  -5.001  22.209  0.00  0.00    +0.144 HD
ATOM     24  H   UNL     1       4.548  -3.398  22.800  0.00  0.00    +0.144 HD
ENDBRANCH  19  22
ENDBRANCH   1  19
TORSDOF 5
ENDMDL
MODEL 4
REMARK VINA RESULT:      -6.1      3.198      8.075
REMARK  Name = 
REMARK  5 active torsions:
REMARK  status: ('A' for Active; 'I' for Inactive)
REMARK    1  A    between atoms: N_1  and  S_2
REMARK    2  A    between atoms: S_2  and  C_5
REMARK    3  A    between atoms: C_8  and  N_9
REMARK    4  A    between atoms: C_10  and  C_12
REMARK    5  A    between atoms: C_17  and  S_18
REMARK                            x       y       z     vdW  Elec       q    Type
REMARK                         _______ _______ _______ _____ _____    ______ ____
ROOT
ATOM      1  C   UNL     1       9.081   3.000  23.553  0.00  0.00    +0.105 A 
ATOM      2  C   UNL     1       8.486   2.643  22.341  0.00  0.00    +0.030 A 
ATOM      3  C   UNL     1       8.248   1.291  22.056  0.00  0.00    +0.025 A 
ATOM      4  C   UNL     1       8.580   0.298  22.987  0.00  0.00    +0.034 A 
ATOM      5  C   UNL     1       9.183   0.679  24.191  0.00  0.00    +0.025 A 
ATOM      6  C   UNL     1       9.433   2.024  24.480  0.00  0.00    +0.030 A 
ENDROOT
BRANCH   4   7
ATOM      7  N   UNL     1       8.315  -1.051  22.650  0.00  0.00    -0.281 N 
ATOM      8  H   UNL     1       8.936  -1.485  21.977  0.00  0.00    +0.155 HD
ATOM      9  C   UNL     1       7.283  -1.818  23.150  0.00  0.00    +0.249 C 
ATOM     10  O   UNL     1       6.362  -1.400  23.847  0.00  0.00    -0.270 OA
BRANCH   9  11
ATOM     11  C   UNL     1       7.231  -3.265  22.770  0.00  0.00    +0.050 A 
ATOM     12  C   UNL     1       7.883  -4.317  23.440  0.00  0.00    +0.017 A 
ATOM     13  C   UNL     1       7.597  -5.642  23.055  0.00  0.00    +0.015 A 
ATOM     14  C   UNL     1       6.696  -5.922  22.024  0.00  0.00    +0.001 A 
ATOM     15  C   UNL     1       6.083  -4.883  21.341  0.00  0.00    +0.001 A 
ATOM     16  C   UNL     1       6.348  -3.567  21.712  0.00  0.00    +0.014 A 
BRANCH  12  17
ATOM     17  S   UNL     1       9.058  -4.101  24.773  0.00  0.00    -0.142 S 
ATOM     18  H   UNL     1      10.119  -3.772  24.021  0.00  0.00    +0.107 HD
ENDBRANCH  12  17
ENDBRANCH   9  11
ENDBRANCH   4   7
BRANCH   1  19
ATOM     19  S   UNL     1       9.415   4.696  23.919  0.00  0.00    +0.056 S 
ATOM     20  O   UNL     1       8.751   5.057  25.151  0.00  0.00    -0.153 OA
ATOM     21  O   UNL     1      10.813   4.962  23.680  0.00  0.00    -0.153 OA
BRANCH  19  22
ATOM     22  N   UNL     1       8.565   5.499  22.712  0.00  0.00    -0.204 NA
ATOM     23  H   UNL     1       8.355   6.453  23.009  0.00  0.00    +0.144 HD
ATOM     24  H   UNL     1       9.083   5.445  21.835  0.00  0.00    +0.144 HD
ENDBRANCH  19  22
ENDBRANCH   1  19
TORSDOF 5
ENDMDL
MODEL 5
REMARK VINA RESULT:      -6.0      3.487      8.382
REMARK  Name = 
REMARK  5 active torsions:
REMARK  status: ('A' for Active; 'I' for Inactive)
REMARK    1  A    between atoms: N_1  and  S_2
REMARK    2  A    between atoms: S_2  and  C_5
REMARK    3  A    between atoms: C_8  and  N_9
REMARK    4  A    between atoms: C_10  and  C_12
REMARK    5  A    between atoms: C_17  and  S_18
REMARK                            x       y       z     vdW  Elec       q    Type
REMARK                         _______ _______ _______ _____ _____    ______ ____
ROOT
ATOM      1  C   UNL     1       8.809   0.940  23.610  0.00  0.00    +0.105 A 
ATOM      2  C   UNL     1       7.725   0.474  22.862  0.00  0.00    +0.030 A 
ATOM      3  C   UNL     1       7.092  -0.721  23.229  0.00  0.00    +0.025 A 
ATOM      4  C   UNL     1       7.522  -1.440  24.353  0.00  0.00    +0.034 A 
ATOM      5  C   UNL     1       8.615  -0.958  25.081  0.00  0.00    +0.025 A 
ATOM      6  C   UNL     1       9.259   0.229  24.719  0.00  0.00    +0.030 A 
ENDROOT
BRANCH   4   7
ATOM      7  N   UNL     1       6.845  -2.640  24.680  0.00  0.00    -0.281 N 
ATOM      8  H   UNL     1       6.061  -2.564  25.316  0.00  0.00    +0.155 HD
ATOM      9  C   UNL     1       7.168  -3.898  24.215  0.00  0.00    +0.249 C 
ATOM     10  O   UNL     1       8.175  -4.178  23.567  0.00  0.00    -0.270 OA
BRANCH   9  11
ATOM     11  C   UNL     1       6.265  -5.036  24.572  0.00  0.00    +0.050 A 
ATOM     12  C   UNL     1       6.140  -5.620  25.846  0.00  0.00    +0.017 A 
ATOM     13  C   UNL     1       5.124  -6.574  26.055  0.00  0.00    +0.015 A 
ATOM     14  C   UNL     1       4.257  -6.951  25.025  0.00  0.00    +0.001 A 
ATOM     15  C   UNL     1       4.405  -6.401  23.761  0.00  0.00    +0.001 A 
ATOM     16  C   UNL     1       5.400  -5.452  23.538  0.00  0.00    +0.014 A 
BRANCH  12  17
ATOM     17  S   UNL     1       7.180  -5.233  27.250  0.00  0.00    -0.142 S 
ATOM     18  H   UNL     1       7.024  -3.901  27.223  0.00  0.00    +0.107 HD
ENDBRANCH  12  17
ENDBRANCH   9  11
ENDBRANCH   4   7
BRANCH   1  19
ATOM     19  S   UNL     1       9.639   2.430  23.149  0.00  0.00    +0.056 S 
ATOM     20  O   UNL     1       8.697   3.526  23.168  0.00  0.00    -0.153 OA
ATOM     21  O   UNL     1      10.914   2.486  23.822  0.00  0.00    -0.153 OA
BRANCH  19  22
ATOM     22  N   UNL     1       9.971   2.168  21.522  0.00  0.00    -0.204 NA
ATOM     23  H   UNL     1      10.928   2.455  21.312  0.00  0.00    +0.144 HD
ATOM     24  H   UNL     1       9.770   1.197  21.284  0.00  0.00    +0.144 HD
ENDBRANCH  19  22
ENDBRANCH   1  19
TORSDOF 5
ENDMDL
MODEL 6
REMARK VINA RESULT:      -5.9      3.272      4.386
REMARK  Name = 
REMARK  5 active torsions:
REMARK  status: ('A' for Active; 'I' for Inactive)
REMARK    1  A    between atoms: N_1  and  S_2
REMARK    2  A    between atoms: S_2  and  C_5
REMARK    3  A    between atoms: C_8  and  N_9
REMARK    4  A    between atoms: C_10  and  C_12
REMARK    5  A    between atoms: C_17  and  S_18
REMARK                            x       y       z     vdW  Elec       q    Type
REMARK                         _______ _______ _______ _____ _____    ______ ____
ROOT
ATOM      1  C   UNL     1       6.295  -5.181  27.757  0.00  0.00    +0.105 A 
ATOM      2  C   UNL     1       5.611  -3.969  27.635  0.00  0.00    +0.030 A 
ATOM      3  C   UNL     1       6.193  -2.913  26.921  0.00  0.00    +0.025 A 
ATOM      4  C   UNL     1       7.445  -3.070  26.310  0.00  0.00    +0.034 A 
ATOM      5  C   UNL     1       8.115  -4.290  26.454  0.00  0.00    +0.025 A 
ATOM      6  C   UNL     1       7.547  -5.347  27.171  0.00  0.00    +0.030 A 
ENDROOT
BRANCH   4   7
ATOM      7  N   UNL     1       7.985  -1.971  25.599  0.00  0.00    -0.281 N 
ATOM      8  H   UNL     1       7.858  -1.969  24.595  0.00  0.00    +0.155 HD
ATOM      9  C   UNL     1       8.676  -0.915  26.156  0.00  0.00    +0.249 C 
ATOM     10  O   UNL     1       9.046  -0.846  27.326  0.00  0.00    -0.270 OA
BRANCH   9  11
ATOM     11  C   UNL     1       9.069   0.220  25.263  0.00  0.00    +0.050 A 
ATOM     12  C   UNL     1       8.251   1.306  24.901  0.00  0.00    +0.017 A 
ATOM     13  C   UNL     1       8.827   2.376  24.186  0.00  0.00    +0.015 A 
ATOM     14  C   UNL     1      10.177   2.369  23.827  0.00  0.00    +0.001 A 
ATOM     15  C   UNL     1      10.973   1.280  24.153  0.00  0.00    +0.001 A 
ATOM     16  C   UNL     1      10.423   0.217  24.864  0.00  0.00    +0.014 A 
BRANCH  12  17
ATOM     17  S   UNL     1       6.511   1.444  25.293  0.00  0.00    -0.142 S 
ATOM     18  H   UNL     1       6.508   2.743  25.629  0.00  0.00    +0.107 HD
ENDBRANCH  12  17
ENDBRANCH   9  11
ENDBRANCH   4   7
BRANCH   1  19
ATOM     19  S   UNL     1       5.592  -6.516  28.676  0.00  0.00    +0.056 S 
ATOM     20  O   UNL     1       6.646  -7.404  29.109  0.00  0.00    -0.153 OA
ATOM     21  O   UNL     1       4.594  -5.993  29.577  0.00  0.00    -0.153 OA
BRANCH  19  22
ATOM     22  N   UNL     1       4.760  -7.370  27.491  0.00  0.00    -0.204 NA
ATOM     23  H   UNL     1       4.112  -8.028  27.925  0.00  0.00    +0.144 HD
ATOM     24  H   UNL     1       4.315  -6.716  26.847  0.00  0.00    +0.144 HD
ENDBRANCH  19  22
ENDBRANCH   1  19
TORSDOF 5
ENDMDL
MODEL 7
REMARK VINA RESULT:      -5.8      1.803      2.123
REMARK  Name = 
REMARK  5 active torsions:
REMARK  status: ('A' for Active; 'I' for Inactive)
REMARK    1  A    between atoms: N_1  and  S_2
REMARK    2  A    between atoms: S_2  and  C_5
REMARK    3  A    between atoms: C_8  and  N_9
REMARK    4  A    between atoms: C_10  and  C_12
REMARK    5  A    between atoms: C_17  and  S_18
REMARK                            x       y       z     vdW  Elec       q    Type
REMARK                         _______ _______ _______ _____ _____    ______ ____
ROOT
ATOM      1  C   UNL     1       8.402  -2.934  23.764  0.00  0.00    +0.105 A 
ATOM      2  C   UNL     1       7.384  -2.149  23.218  0.00  0.00    +0.030 A 
ATOM      3  C   UNL     1       7.586  -0.773  23.044  0.00  0.00    +0.025 A 
ATOM      4  C   UNL     1       8.810  -0.183  23.391  0.00  0.00    +0.034 A 
ATOM      5  C   UNL     1       9.811  -0.989  23.945  0.00  0.00    +0.025 A 
ATOM      6  C   UNL     1       9.616  -2.360  24.130  0.00  0.00    +0.030 A 
ENDROOT
BRANCH   4   7
ATOM      7  N   UNL     1       8.962   1.210  23.192  0.00  0.00    -0.281 N 
ATOM      8  H   UNL     1       9.352   1.506  22.306  0.00  0.00    +0.155 HD
ATOM      9  C   UNL     1       8.635   2.193  24.102  0.00  0.00    +0.249 C 
ATOM     10  O   UNL     1       8.300   1.997  25.269  0.00  0.00    -0.270 OA
BRANCH   9  11
ATOM     11  C   UNL     1       8.751   3.622  23.672  0.00  0.00    +0.050 A 
ATOM     12  C   UNL     1       7.727   4.395  23.095  0.00  0.00    +0.017 A 
ATOM     13  C   UNL     1       7.950   5.773  22.900  0.00  0.00    +0.015 A 
ATOM     14  C   UNL     1       9.161   6.372  23.255  0.00  0.00    +0.001 A 
ATOM     15  C   UNL     1      10.183   5.600  23.789  0.00  0.00    +0.001 A 
ATOM     16  C   UNL     1       9.978   4.239  23.996  0.00  0.00    +0.014 A 
BRANCH  12  17
ATOM     17  S   UNL     1       6.131   3.759  22.592  0.00  0.00    -0.142 S 
ATOM     18  H   UNL     1       5.533   4.939  22.372  0.00  0.00    +0.107 HD
ENDBRANCH  12  17
ENDBRANCH   9  11
ENDBRANCH   4   7
BRANCH   1  19
ATOM     19  S   UNL     1       8.157  -4.665  24.018  0.00  0.00    +0.056 S 
ATOM     20  O   UNL     1       7.422  -5.212  22.900  0.00  0.00    -0.153 OA
ATOM     21  O   UNL     1       9.385  -5.248  24.503  0.00  0.00    -0.153 OA
BRANCH  19  22
ATOM     22  N   UNL     1       7.077  -4.691  25.306  0.00  0.00    -0.204 NA
ATOM     23  H   UNL     1       6.541  -3.823  25.329  0.00  0.00    +0.144 HD
ATOM     24  H   UNL     1       6.501  -5.530  25.252  0.00  0.00    +0.144 HD
ENDBRANCH  19  22
ENDBRANCH   1  19
TORSDOF 5
ENDMDL
MODEL 8
REMARK VINA RESULT:      -5.7      3.865      5.022
REMARK  Name = 
REMARK  5 active torsions:
REMARK  status: ('A' for Active; 'I' for Inactive)
REMARK    1  A    between atoms: N_1  and  S_2
REMARK    2  A    between atoms: S_2  and  C_5
REMARK    3  A    between atoms: C_8  and  N_9
REMARK    4  A    between atoms: C_10  and  C_12
REMARK    5  A    between atoms: C_17  and  S_18
REMARK                            x       y       z     vdW  Elec       q    Type
REMARK                         _______ _______ _______ _____ _____    ______ ____
ROOT
ATOM      1  C   UNL     1       6.237  -5.000  27.662  0.00  0.00    +0.105 A 
ATOM      2  C   UNL     1       5.490  -3.822  27.589  0.00  0.00    +0.030 A 
ATOM      3  C   UNL     1       5.936  -2.766  26.784  0.00  0.00    +0.025 A 
ATOM      4  C   UNL     1       7.113  -2.890  26.032  0.00  0.00    +0.034 A 
ATOM      5  C   UNL     1       7.849  -4.077  26.129  0.00  0.00    +0.025 A 
ATOM      6  C   UNL     1       7.417  -5.133  26.936  0.00  0.00    +0.030 A 
ENDROOT
BRANCH   4   7
ATOM      7  N   UNL     1       7.517  -1.794  25.233  0.00  0.00    -0.281 N 
ATOM      8  H   UNL     1       8.189  -1.156  25.639  0.00  0.00    +0.155 HD
ATOM      9  C   UNL     1       7.066  -1.518  23.959  0.00  0.00    +0.249 C 
ATOM     10  O   UNL     1       6.144  -2.100  23.391  0.00  0.00    -0.270 OA
BRANCH   9  11
ATOM     11  C   UNL     1       7.696  -0.381  23.218  0.00  0.00    +0.050 A 
ATOM     12  C   UNL     1       8.969  -0.392  22.618  0.00  0.00    +0.017 A 
ATOM     13  C   UNL     1       9.346   0.703  21.816  0.00  0.00    +0.015 A 
ATOM     14  C   UNL     1       8.491   1.791  21.620  0.00  0.00    +0.001 A 
ATOM     15  C   UNL     1       7.252   1.817  22.242  0.00  0.00    +0.001 A 
ATOM     16  C   UNL     1       6.859   0.740  23.033  0.00  0.00    +0.014 A 
BRANCH  12  17
ATOM     17  S   UNL     1      10.161  -1.716  22.786  0.00  0.00    -0.142 S 
ATOM     18  H   UNL     1      10.573  -1.744  21.509  0.00  0.00    +0.107 HD
ENDBRANCH  12  17
ENDBRANCH   9  11
ENDBRANCH   4   7
BRANCH   1  19
ATOM     19  S   UNL     1       5.707  -6.333  28.693  0.00  0.00    +0.056 S 
ATOM     20  O   UNL     1       6.854  -7.119  29.084  0.00  0.00    -0.153 OA
ATOM     21  O   UNL     1       4.741  -5.837  29.644  0.00  0.00    -0.153 OA
BRANCH  19  22
ATOM     22  N   UNL     1       4.857  -7.305  27.617  0.00  0.00    -0.204 NA
ATOM     23  H   UNL     1       5.378  -8.164  27.437  0.00  0.00    +0.144 HD
ATOM     24  H   UNL     1       3.913  -7.461  27.969  0.00  0.00    +0.144 HD
ENDBRANCH  19  22
ENDBRANCH   1  19
TORSDOF 5
ENDMDL
MODEL 9
REMARK VINA RESULT:      -5.7      2.997      7.995
REMARK  Name = 
REMARK  5 active torsions:
REMARK  status: ('A' for Active; 'I' for Inactive)
REMARK    1  A    between atoms: N_1  and  S_2
REMARK    2  A    between atoms: S_2  and  C_5
REMARK    3  A    between atoms: C_8  and  N_9
REMARK    4  A    between atoms: C_10  and  C_12
REMARK    5  A    between atoms: C_17  and  S_18
REMARK                            x       y       z     vdW  Elec       q    Type
REMARK                         _______ _______ _______ _____ _____    ______ ____
ROOT
ATOM      1  C   UNL     1       8.109   4.144  23.425  0.00  0.00    +0.105 A 
ATOM      2  C   UNL     1       7.170   3.300  22.826  0.00  0.00    +0.030 A 
ATOM      3  C   UNL     1       7.202   1.925  23.094  0.00  0.00    +0.025 A 
ATOM      4  C   UNL     1       8.152   1.393  23.976  0.00  0.00    +0.034 A 
ATOM      5  C   UNL     1       9.088   2.257  24.557  0.00  0.00    +0.025 A 
ATOM      6  C   UNL     1       9.070   3.629  24.290  0.00  0.00    +0.030 A 
ENDROOT
BRANCH   4   7
ATOM      7  N   UNL     1       8.139  -0.002  24.214  0.00  0.00    -0.281 N 
ATOM      8  H   UNL     1       7.717  -0.315  25.079  0.00  0.00    +0.155 HD
ATOM      9  C   UNL     1       8.657  -0.966  23.375  0.00  0.00    +0.249 C 
ATOM     10  O   UNL     1       9.334  -0.745  22.372  0.00  0.00    -0.270 OA
BRANCH   9  11
ATOM     11  C   UNL     1       8.444  -2.403  23.733  0.00  0.00    +0.050 A 
ATOM     12  C   UNL     1       7.425  -3.235  23.233  0.00  0.00    +0.017 A 
ATOM     13  C   UNL     1       7.462  -4.609  23.544  0.00  0.00    +0.015 A 
ATOM     14  C   UNL     1       8.477  -5.149  24.339  0.00  0.00    +0.001 A 
ATOM     15  C   UNL     1       9.460  -4.321  24.860  0.00  0.00    +0.001 A 
ATOM     16  C   UNL     1       9.443  -2.962  24.559  0.00  0.00    +0.014 A 
BRANCH  12  17
ATOM     17  S   UNL     1       6.068  -2.678  22.208  0.00  0.00    -0.142 S 
ATOM     18  H   UNL     1       5.339  -3.803  22.255  0.00  0.00    +0.107 HD
ENDBRANCH  12  17
ENDBRANCH   9  11
ENDBRANCH   4   7
BRANCH   1  19
ATOM     19  S   UNL     1       8.103   5.876  23.078  0.00  0.00    +0.056 S 
ATOM     20  O   UNL     1       7.057   6.513  23.845  0.00  0.00    -0.153 OA
ATOM     21  O   UNL     1       9.463   6.358  23.065  0.00  0.00    -0.153 OA
BRANCH  19  22
ATOM     22  N   UNL     1       7.568   5.923  21.485  0.00  0.00    -0.204 NA
ATOM     23  H   UNL     1       7.670   6.868  21.111  0.00  0.00    +0.144 HD
ATOM     24  H   UNL     1       8.051   5.209  20.941  0.00  0.00    +0.144 HD
ENDBRANCH  19  22
ENDBRANCH   1  19
TORSDOF 5
ENDMDL
