MODEL 1
REMARK VINA RESULT:      -7.0      0.000      0.000
REMARK  Name = 
REMARK  18 active torsions:
REMARK  status: ('A' for Active; 'I' for Inactive)
REMARK    1  A    between atoms: C_1  and  C_2
REMARK    2  A    between atoms: C_2  and  C_3
REMARK    3  A    between atoms: C_2  and  C_4
REMARK    4  A    between atoms: C_4  and  C_5
REMARK    5  A    between atoms: C_5  and  N_7
REMARK    6  A    between atoms: C_5  and  C_36
REMARK    7  A    between atoms: C_8  and  C_10
REMARK    8  A    between atoms: C_10  and  N_12
REMARK    9  A    between atoms: C_10  and  C_28
REMARK   10  A    between atoms: N_15  and  C_16
REMARK   11  A    between atoms: C_16  and  C_18
REMARK   12  A    between atoms: C_16  and  C_25
REMARK   13  A    between atoms: C_18  and  C_19
REMARK   14  A    between atoms: C_25  and  O_26
REMARK   15  A    between atoms: N_38  and  CA_39
REMARK   16  A    between atoms: CA_39  and  CB_41
REMARK   17  A    between atoms: CA_39  and  C_48
REMARK   18  A    between atoms: CB_41  and  CG_42
REMARK                            x       y       z     vdW  Elec       q    Type
REMARK                         _______ _______ _______ _____ _____    ______ ____
ROOT
ATOM      1  C   UNK A   1       6.832   0.454  26.788  0.00  0.00    +0.195 C 
ENDROOT
BRANCH   1   2
ATOM      2  C   UNK A   1       5.928   0.629  28.047  0.00  0.00    +0.168 C 
ATOM      3  N   UNK A   1       5.128  -0.578  28.320  0.00  0.00    -0.234 N 
ATOM      4  H   UNK A   1       4.784  -0.500  29.278  0.00  0.00    +0.245 HD
ATOM      5  C   UNK A   1       4.066  -0.847  27.520  0.00  0.00    +0.362 C 
ATOM      6  N   UNK A   1       3.897  -2.011  27.018  0.00  0.00    -0.133 NA
ATOM      7  H   UNK A   1       3.057  -2.031  26.441  0.00  0.00    +0.306 HD
ATOM      8  N   UNK A   1       3.238   0.199  27.315  0.00  0.00    -0.238 N 
ATOM      9  H   UNK A   1       2.420  -0.020  26.757  0.00  0.00    +0.244 HD
ATOM     10  C   UNK A   1       3.799   1.500  26.995  0.00  0.00    +0.188 C 
ATOM     11  C   UNK A   1       4.952   1.821  27.938  0.00  0.00    +0.075 C 
ENDBRANCH   1   2
BRANCH   1  12
ATOM     12  N   UNK A   1       7.670   1.659  26.547  0.00  0.00    -0.285 N 
ATOM     13  H   UNK A   1       7.619   2.377  27.258  0.00  0.00    +0.151 HD
ATOM     14  C   UNK A   0       7.773   2.171  25.276  0.00  0.00    +0.301 C 
ATOM     15  N   UNK A   1       8.698   3.178  25.195  0.00  0.00    -0.286 N 
ATOM     16  H   UNK A   1       9.426   3.121  25.893  0.00  0.00    +0.151 HD
ATOM     17  O   UNK A   0       7.168   1.726  24.313  0.00  0.00    -0.253 OA
BRANCH  15  18
ATOM     18  C   UNK A   1       9.107   3.650  23.857  0.00  0.00    +0.187 C 
BRANCH  18  19
ATOM     19  C   UNK A   1       9.274   5.171  23.808  0.00  0.00    +0.326 C 
ATOM     20  O   UNK A   1       9.865   5.887  24.600  0.00  0.00    -0.249 OA
BRANCH  19  21
ATOM     21  O   UNK A   1       8.692   5.710  22.711  0.00  0.00    -0.479 OA
ATOM     22  H   UNK A   1       8.831   5.043  22.005  0.00  0.00    +0.295 HD
ENDBRANCH  19  21
ENDBRANCH  18  19
BRANCH  18  23
ATOM     23  C   UNK A   1      10.408   2.986  23.374  0.00  0.00    +0.069 C 
BRANCH  23  24
ATOM     24  C   UNK A   1      10.214   1.533  22.995  0.00  0.00    -0.045 A 
ATOM     25  C   UNK A   1      10.600   0.512  23.872  0.00  0.00    +0.004 A 
ATOM     26  C   UNK A   1      10.394  -0.826  23.533  0.00  0.00    +0.000 A 
ATOM     27  C   UNK A   1       9.807  -1.157  22.312  0.00  0.00    +0.000 A 
ATOM     28  C   UNK A   1       9.434  -0.151  21.424  0.00  0.00    +0.000 A 
ATOM     29  C   UNK A   1       9.645   1.187  21.759  0.00  0.00    +0.004 A 
ENDBRANCH  23  24
ENDBRANCH  18  23
ENDBRANCH  15  18
ENDBRANCH   1  12
BRANCH   1  32
ATOM     30  N   UNK A   1       7.202  -1.992  26.297  0.00  0.00    -0.302 N 
ATOM     31  H   UNK A   1       6.226  -1.976  25.986  0.00  0.00    +0.150 HD
ATOM     32  C   UNK A   1       7.743  -0.819  26.771  0.00  0.00    +0.237 C 
ATOM     33  O   UNK A   1       8.927  -0.770  27.118  0.00  0.00    -0.274 OA
BRANCH  30  34
ATOM     34  C   UNK A   1       7.962  -3.245  26.172  0.00  0.00    +0.159 C 
BRANCH  34  35
ATOM     35  C   UNK A   1       7.254  -4.484  26.818  0.00  0.00    +0.234 C 
ATOM     36  N   UNK A   1       6.008  -4.282  27.371  0.00  0.00    -0.304 N 
ATOM     37  H   UNK A   1       5.871  -3.330  27.702  0.00  0.00    +0.149 HD
ATOM     38  O   UNK A   1       7.817  -5.578  26.883  0.00  0.00    -0.274 OA
BRANCH  36  39
ATOM     39  C   UNK A   1       5.283  -5.341  28.093  0.00  0.00    +0.140 C 
BRANCH  39  40
ATOM     40  C   UNK A   1       5.009  -4.893  29.527  0.00  0.00    +0.245 C 
ATOM     41  O   UNK A   1       5.743  -5.140  30.485  0.00  0.00    -0.299 OA
ENDBRANCH  39  40
BRANCH  39  42
ATOM     42  C   UNK A   1       3.985  -5.884  27.449  0.00  0.00    +0.064 C 
BRANCH  42  43
ATOM     43  C   UNK A   1       3.899  -5.857  25.937  0.00  0.00    -0.045 A 
ATOM     44  C   UNK A   1       3.081  -4.920  25.289  0.00  0.00    +0.004 A 
ATOM     45  C   UNK A   1       2.951  -4.930  23.898  0.00  0.00    +0.000 A 
ATOM     46  C   UNK A   1       3.642  -5.872  23.139  0.00  0.00    +0.000 A 
ATOM     47  C   UNK A   1       4.458  -6.808  23.770  0.00  0.00    +0.000 A 
ATOM     48  C   UNK A   1       4.579  -6.804  25.162  0.00  0.00    +0.004 A 
ENDBRANCH  42  43
ENDBRANCH  39  42
ENDBRANCH  36  39
ENDBRANCH  34  35
BRANCH  34  49
ATOM     49  C   UNK A   1       8.243  -3.637  24.697  0.00  0.00    +0.034 C 
BRANCH  49  51
ATOM     50  C   UNK A   1       6.468  -3.006  22.951  0.00  0.00    +0.007 C 
ATOM     51  C   UNK A   1       7.075  -4.109  23.815  0.00  0.00    -0.015 C 
ATOM     52  C   UNK A   1       7.535  -5.271  22.914  0.00  0.00    +0.007 C 
ENDBRANCH  49  51
ENDBRANCH  34  49
ENDBRANCH  30  34
ENDBRANCH   1  32
TORSDOF 16
ENDMDL
MODEL 2
REMARK VINA RESULT:      -6.9      2.888      4.675
REMARK  Name = 
REMARK  18 active torsions:
REMARK  status: ('A' for Active; 'I' for Inactive)
REMARK    1  A    between atoms: C_1  and  C_2
REMARK    2  A    between atoms: C_2  and  C_3
REMARK    3  A    between atoms: C_2  and  C_4
REMARK    4  A    between atoms: C_4  and  C_5
REMARK    5  A    between atoms: C_5  and  N_7
REMARK    6  A    between atoms: C_5  and  C_36
REMARK    7  A    between atoms: C_8  and  C_10
REMARK    8  A    between atoms: C_10  and  N_12
REMARK    9  A    between atoms: C_10  and  C_28
REMARK   10  A    between atoms: N_15  and  C_16
REMARK   11  A    between atoms: C_16  and  C_18
REMARK   12  A    between atoms: C_16  and  C_25
REMARK   13  A    between atoms: C_18  and  C_19
REMARK   14  A    between atoms: C_25  and  O_26
REMARK   15  A    between atoms: N_38  and  CA_39
REMARK   16  A    between atoms: CA_39  and  CB_41
REMARK   17  A    between atoms: CA_39  and  C_48
REMARK   18  A    between atoms: CB_41  and  CG_42
REMARK                            x       y       z     vdW  Elec       q    Type
REMARK                         _______ _______ _______ _____ _____    ______ ____
ROOT
ATOM      1  C   UNK A   1       4.985   2.860  24.504  0.00  0.00    +0.195 C 
ENDROOT
BRANCH   1   2
ATOM      2  C   UNK A   1       3.973   4.046  24.560  0.00  0.00    +0.168 C 
ATOM      3  N   UNK A   1       2.700   3.713  23.896  0.00  0.00    -0.234 N 
ATOM      4  H   UNK A   1       2.012   4.402  24.202  0.00  0.00    +0.245 HD
ATOM      5  C   UNK A   1       2.668   3.670  22.541  0.00  0.00    +0.362 C 
ATOM      6  N   UNK A   1       2.146   2.678  21.925  0.00  0.00    -0.133 NA
ATOM      7  H   UNK A   1       2.215   2.809  20.916  0.00  0.00    +0.306 HD
ATOM      8  N   UNK A   1       3.220   4.740  21.932  0.00  0.00    -0.238 N 
ATOM      9  H   UNK A   1       3.150   4.727  20.920  0.00  0.00    +0.244 HD
ATOM     10  C   UNK A   1       4.505   5.238  22.394  0.00  0.00    +0.188 C 
ATOM     11  C   UNK A   1       4.511   5.341  23.914  0.00  0.00    +0.075 C 
ENDBRANCH   1   2
BRANCH   1  12
ATOM     12  N   UNK A   1       6.364   3.304  24.841  0.00  0.00    -0.285 N 
ATOM     13  H   UNK A   1       6.428   4.105  25.456  0.00  0.00    +0.151 HD
ATOM     14  C   UNK A   0       7.336   3.297  23.870  0.00  0.00    +0.301 C 
ATOM     15  N   UNK A   1       8.576   3.582  24.375  0.00  0.00    -0.286 N 
ATOM     16  H   UNK A   1       8.685   3.345  25.351  0.00  0.00    +0.151 HD
ATOM     17  O   UNK A   0       7.131   2.993  22.705  0.00  0.00    -0.253 OA
BRANCH  15  18
ATOM     18  C   UNK A   1       9.754   3.361  23.512  0.00  0.00    +0.187 C 
BRANCH  18  19
ATOM     19  C   UNK A   1      10.653   4.597  23.433  0.00  0.00    +0.326 C 
ATOM     20  O   UNK A   1      11.863   4.656  23.579  0.00  0.00    -0.249 OA
BRANCH  19  21
ATOM     21  O   UNK A   1       9.952   5.716  23.136  0.00  0.00    -0.479 OA
ATOM     22  H   UNK A   1       9.110   5.385  22.752  0.00  0.00    +0.295 HD
ENDBRANCH  19  21
ENDBRANCH  18  19
BRANCH  18  23
ATOM     23  C   UNK A   1      10.597   2.156  23.967  0.00  0.00    +0.069 C 
BRANCH  23  24
ATOM     24  C   UNK A   1      10.195   0.870  23.275  0.00  0.00    -0.045 A 
ATOM     25  C   UNK A   1       9.743   0.888  21.950  0.00  0.00    +0.004 A 
ATOM     26  C   UNK A   1       9.400  -0.302  21.305  0.00  0.00    +0.000 A 
ATOM     27  C   UNK A   1       9.500  -1.518  21.979  0.00  0.00    +0.000 A 
ATOM     28  C   UNK A   1       9.933  -1.546  23.303  0.00  0.00    +0.000 A 
ATOM     29  C   UNK A   1      10.270  -0.358  23.951  0.00  0.00    +0.004 A 
ENDBRANCH  23  24
ENDBRANCH  18  23
ENDBRANCH  15  18
ENDBRANCH   1  12
BRANCH   1  32
ATOM     30  N   UNK A   1       5.404   0.485  25.239  0.00  0.00    -0.302 N 
ATOM     31  H   UNK A   1       6.183   0.520  24.575  0.00  0.00    +0.150 HD
ATOM     32  C   UNK A   1       4.620   1.608  25.369  0.00  0.00    +0.237 C 
ATOM     33  O   UNK A   1       3.694   1.635  26.185  0.00  0.00    -0.274 OA
BRANCH  30  34
ATOM     34  C   UNK A   1       5.208  -0.738  26.032  0.00  0.00    +0.159 C 
BRANCH  34  35
ATOM     35  C   UNK A   1       4.809  -1.991  25.179  0.00  0.00    +0.234 C 
ATOM     36  N   UNK A   1       5.652  -2.346  24.148  0.00  0.00    -0.304 N 
ATOM     37  H   UNK A   1       6.167  -1.557  23.767  0.00  0.00    +0.149 HD
ATOM     38  O   UNK A   1       3.754  -2.593  25.384  0.00  0.00    -0.274 OA
BRANCH  36  39
ATOM     39  C   UNK A   1       5.339  -3.442  23.215  0.00  0.00    +0.140 C 
BRANCH  39  40
ATOM     40  C   UNK A   1       5.800  -3.067  21.807  0.00  0.00    +0.245 C 
ATOM     41  O   UNK A   1       5.667  -3.788  20.818  0.00  0.00    -0.299 OA
ENDBRANCH  39  40
BRANCH  39  42
ATOM     42  C   UNK A   1       5.845  -4.858  23.581  0.00  0.00    +0.064 C 
BRANCH  42  43
ATOM     43  C   UNK A   1       6.971  -4.950  24.589  0.00  0.00    -0.045 A 
ATOM     44  C   UNK A   1       6.692  -5.170  25.946  0.00  0.00    +0.004 A 
ATOM     45  C   UNK A   1       7.723  -5.196  26.889  0.00  0.00    +0.000 A 
ATOM     46  C   UNK A   1       9.043  -5.008  26.486  0.00  0.00    +0.000 A 
ATOM     47  C   UNK A   1       9.334  -4.790  25.141  0.00  0.00    +0.000 A 
ATOM     48  C   UNK A   1       8.302  -4.754  24.200  0.00  0.00    +0.004 A 
ENDBRANCH  42  43
ENDBRANCH  39  42
ENDBRANCH  36  39
ENDBRANCH  34  35
BRANCH  34  49
ATOM     49  C   UNK A   1       6.475  -1.152  26.828  0.00  0.00    +0.034 C 
BRANCH  49  51
ATOM     50  C   UNK A   1       7.331   0.778  28.291  0.00  0.00    +0.007 C 
ATOM     51  C   UNK A   1       7.577  -0.107  27.072  0.00  0.00    -0.015 C 
ATOM     52  C   UNK A   1       8.942  -0.809  27.215  0.00  0.00    +0.007 C 
ENDBRANCH  49  51
ENDBRANCH  34  49
ENDBRANCH  30  34
ENDBRANCH   1  32
TORSDOF 16
ENDMDL
MODEL 3
REMARK VINA RESULT:      -6.6      2.671      4.203
REMARK  Name = 
REMARK  18 active torsions:
REMARK  status: ('A' for Active; 'I' for Inactive)
REMARK    1  A    between atoms: C_1  and  C_2
REMARK    2  A    between atoms: C_2  and  C_3
REMARK    3  A    between atoms: C_2  and  C_4
REMARK    4  A    between atoms: C_4  and  C_5
REMARK    5  A    between atoms: C_5  and  N_7
REMARK    6  A    between atoms: C_5  and  C_36
REMARK    7  A    between atoms: C_8  and  C_10
REMARK    8  A    between atoms: C_10  and  N_12
REMARK    9  A    between atoms: C_10  and  C_28
REMARK   10  A    between atoms: N_15  and  C_16
REMARK   11  A    between atoms: C_16  and  C_18
REMARK   12  A    between atoms: C_16  and  C_25
REMARK   13  A    between atoms: C_18  and  C_19
REMARK   14  A    between atoms: C_25  and  O_26
REMARK   15  A    between atoms: N_38  and  CA_39
REMARK   16  A    between atoms: CA_39  and  CB_41
REMARK   17  A    between atoms: CA_39  and  C_48
REMARK   18  A    between atoms: CB_41  and  CG_42
REMARK                            x       y       z     vdW  Elec       q    Type
REMARK                         _______ _______ _______ _____ _____    ______ ____
ROOT
ATOM      1  C   UNK A   1       5.237   2.907  24.189  0.00  0.00    +0.195 C 
ENDROOT
BRANCH   1   2
ATOM      2  C   UNK A   1       4.116   3.962  24.439  0.00  0.00    +0.168 C 
ATOM      3  N   UNK A   1       2.877   3.628  23.717  0.00  0.00    -0.234 N 
ATOM      4  H   UNK A   1       2.128   4.184  24.131  0.00  0.00    +0.245 HD
ATOM      5  C   UNK A   1       2.838   3.818  22.374  0.00  0.00    +0.362 C 
ATOM      6  N   UNK A   1       2.409   2.902  21.591  0.00  0.00    -0.133 NA
ATOM      7  H   UNK A   1       2.457   3.212  20.621  0.00  0.00    +0.306 HD
ATOM      8  N   UNK A   1       3.280   5.025  21.964  0.00  0.00    -0.238 N 
ATOM      9  H   UNK A   1       3.203   5.181  20.965  0.00  0.00    +0.244 HD
ATOM     10  C   UNK A   1       4.514   5.557  22.517  0.00  0.00    +0.188 C 
ATOM     11  C   UNK A   1       4.522   5.395  24.032  0.00  0.00    +0.075 C 
ENDBRANCH   1   2
BRANCH   1  12
ATOM     12  N   UNK A   1       6.562   3.399  24.651  0.00  0.00    -0.285 N 
ATOM     13  H   UNK A   1       6.540   4.096  25.384  0.00  0.00    +0.151 HD
ATOM     14  C   UNK A   0       7.562   3.621  23.734  0.00  0.00    +0.301 C 
ATOM     15  N   UNK A   1       8.757   3.920  24.332  0.00  0.00    -0.286 N 
ATOM     16  H   UNK A   1       8.855   3.542  25.264  0.00  0.00    +0.151 HD
ATOM     17  O   UNK A   0       7.420   3.489  22.529  0.00  0.00    -0.253 OA
BRANCH  15  18
ATOM     18  C   UNK A   1       9.976   3.930  23.498  0.00  0.00    +0.187 C 
BRANCH  18  19
ATOM     19  C   UNK A   1      10.735   5.256  23.601  0.00  0.00    +0.326 C 
ATOM     20  O   UNK A   1      10.450   6.234  24.272  0.00  0.00    -0.249 OA
BRANCH  19  21
ATOM     21  O   UNK A   1      11.860   5.256  22.848  0.00  0.00    -0.479 OA
ATOM     22  H   UNK A   1      12.592   5.189  23.498  0.00  0.00    +0.295 HD
ENDBRANCH  19  21
ENDBRANCH  18  19
BRANCH  18  23
ATOM     23  C   UNK A   1      10.933   2.776  23.845  0.00  0.00    +0.069 C 
BRANCH  23  24
ATOM     24  C   UNK A   1      10.467   1.447  23.289  0.00  0.00    -0.045 A 
ATOM     25  C   UNK A   1       9.955   1.361  21.989  0.00  0.00    +0.004 A 
ATOM     26  C   UNK A   1       9.552   0.130  21.468  0.00  0.00    +0.000 A 
ATOM     27  C   UNK A   1       9.652  -1.025  22.244  0.00  0.00    +0.000 A 
ATOM     28  C   UNK A   1      10.145  -0.949  23.544  0.00  0.00    +0.000 A 
ATOM     29  C   UNK A   1      10.541   0.281  24.068  0.00  0.00    +0.004 A 
ENDBRANCH  23  24
ENDBRANCH  18  23
ENDBRANCH  15  18
ENDBRANCH   1  12
BRANCH   1  32
ATOM     30  N   UNK A   1       5.816   0.461  24.389  0.00  0.00    -0.302 N 
ATOM     31  H   UNK A   1       6.559   0.682  23.720  0.00  0.00    +0.150 HD
ATOM     32  C   UNK A   1       4.981   1.482  24.781  0.00  0.00    +0.237 C 
ATOM     33  O   UNK A   1       4.095   1.281  25.618  0.00  0.00    -0.274 OA
BRANCH  30  34
ATOM     34  C   UNK A   1       5.722  -0.911  24.912  0.00  0.00    +0.159 C 
BRANCH  34  35
ATOM     35  C   UNK A   1       6.392  -1.988  23.991  0.00  0.00    +0.234 C 
ATOM     36  N   UNK A   1       7.028  -3.041  24.613  0.00  0.00    -0.304 N 
ATOM     37  H   UNK A   1       7.382  -2.802  25.536  0.00  0.00    +0.149 HD
ATOM     38  O   UNK A   1       6.403  -1.862  22.766  0.00  0.00    -0.274 OA
BRANCH  36  39
ATOM     39  C   UNK A   1       7.777  -4.064  23.864  0.00  0.00    +0.140 C 
BRANCH  39  40
ATOM     40  C   UNK A   1       8.869  -4.656  24.752  0.00  0.00    +0.245 C 
ATOM     41  O   UNK A   1      10.075  -4.459  24.596  0.00  0.00    -0.299 OA
ENDBRANCH  39  40
BRANCH  39  42
ATOM     42  C   UNK A   1       6.964  -5.198  23.194  0.00  0.00    +0.064 C 
BRANCH  42  43
ATOM     43  C   UNK A   1       5.580  -5.474  23.745  0.00  0.00    -0.045 A 
ATOM     44  C   UNK A   1       4.440  -5.057  23.043  0.00  0.00    +0.004 A 
ATOM     45  C   UNK A   1       3.164  -5.255  23.575  0.00  0.00    +0.000 A 
ATOM     46  C   UNK A   1       3.012  -5.878  24.812  0.00  0.00    +0.000 A 
ATOM     47  C   UNK A   1       4.136  -6.297  25.520  0.00  0.00    +0.000 A 
ATOM     48  C   UNK A   1       5.413  -6.090  24.992  0.00  0.00    +0.004 A 
ENDBRANCH  42  43
ENDBRANCH  39  42
ENDBRANCH  36  39
ENDBRANCH  34  35
BRANCH  34  49
ATOM     49  C   UNK A   1       6.385  -1.072  26.306  0.00  0.00    +0.034 C 
BRANCH  49  51
ATOM     50  C   UNK A   1       7.164   0.802  27.881  0.00  0.00    +0.007 C 
ATOM     51  C   UNK A   1       7.517  -0.111  26.710  0.00  0.00    -0.015 C 
ATOM     52  C   UNK A   1       8.787  -0.914  27.050  0.00  0.00    +0.007 C 
ENDBRANCH  49  51
ENDBRANCH  34  49
ENDBRANCH  30  34
ENDBRANCH   1  32
TORSDOF 16
ENDMDL
MODEL 4
REMARK VINA RESULT:      -6.5      2.563      8.541
REMARK  Name = 
REMARK  18 active torsions:
REMARK  status: ('A' for Active; 'I' for Inactive)
REMARK    1  A    between atoms: C_1  and  C_2
REMARK    2  A    between atoms: C_2  and  C_3
REMARK    3  A    between atoms: C_2  and  C_4
REMARK    4  A    between atoms: C_4  and  C_5
REMARK    5  A    between atoms: C_5  and  N_7
REMARK    6  A    between atoms: C_5  and  C_36
REMARK    7  A    between atoms: C_8  and  C_10
REMARK    8  A    between atoms: C_10  and  N_12
REMARK    9  A    between atoms: C_10  and  C_28
REMARK   10  A    between atoms: N_15  and  C_16
REMARK   11  A    between atoms: C_16  and  C_18
REMARK   12  A    between atoms: C_16  and  C_25
REMARK   13  A    between atoms: C_18  and  C_19
REMARK   14  A    between atoms: C_25  and  O_26
REMARK   15  A    between atoms: N_38  and  CA_39
REMARK   16  A    between atoms: CA_39  and  CB_41
REMARK   17  A    between atoms: CA_39  and  C_48
REMARK   18  A    between atoms: CB_41  and  CG_42
REMARK                            x       y       z     vdW  Elec       q    Type
REMARK                         _______ _______ _______ _____ _____    ______ ____
ROOT
ATOM      1  C   UNK A   1       6.390   0.713  26.479  0.00  0.00    +0.195 C 
ENDROOT
BRANCH   1   2
ATOM      2  C   UNK A   1       5.523   1.215  27.674  0.00  0.00    +0.168 C 
ATOM      3  N   UNK A   1       5.542   2.684  27.787  0.00  0.00    -0.234 N 
ATOM      4  H   UNK A   1       4.763   2.950  28.391  0.00  0.00    +0.245 HD
ATOM      5  C   UNK A   1       6.660   3.282  28.269  0.00  0.00    +0.362 C 
ATOM      6  N   UNK A   1       7.189   4.278  27.664  0.00  0.00    -0.133 NA
ATOM      7  H   UNK A   1       8.021   4.594  28.159  0.00  0.00    +0.306 HD
ATOM      8  N   UNK A   1       7.140   2.742  29.409  0.00  0.00    -0.238 N 
ATOM      9  H   UNK A   1       7.947   3.223  29.792  0.00  0.00    +0.244 HD
ATOM     10  C   UNK A   1       7.248   1.297  29.522  0.00  0.00    +0.188 C 
ATOM     11  C   UNK A   1       5.964   0.636  29.036  0.00  0.00    +0.075 C 
ENDBRANCH   1   2
BRANCH   1  12
ATOM     12  N   UNK A   1       6.487  -0.771  26.461  0.00  0.00    -0.285 N 
ATOM     13  H   UNK A   1       5.839  -1.260  27.065  0.00  0.00    +0.151 HD
ATOM     14  C   UNK A   0       7.723  -1.370  26.408  0.00  0.00    +0.301 C 
ATOM     15  N   UNK A   1       7.635  -2.726  26.242  0.00  0.00    -0.286 N 
ATOM     16  H   UNK A   1       6.789  -3.028  25.780  0.00  0.00    +0.151 HD
ATOM     17  O   UNK A   0       8.778  -0.755  26.427  0.00  0.00    -0.253 OA
BRANCH  15  18
ATOM     18  C   UNK A   1       8.865  -3.474  25.910  0.00  0.00    +0.187 C 
BRANCH  18  19
ATOM     19  C   UNK A   1       8.799  -4.931  26.377  0.00  0.00    +0.326 C 
ATOM     20  O   UNK A   1       7.918  -5.472  27.023  0.00  0.00    -0.249 OA
BRANCH  19  21
ATOM     21  O   UNK A   1       9.871  -5.645  25.961  0.00  0.00    -0.479 OA
ATOM     22  H   UNK A   1      10.620  -5.298  26.493  0.00  0.00    +0.295 HD
ENDBRANCH  19  21
ENDBRANCH  18  19
BRANCH  18  23
ATOM     23  C   UNK A   1       9.181  -3.444  24.404  0.00  0.00    +0.069 C 
BRANCH  23  24
ATOM     24  C   UNK A   1       7.969  -3.751  23.549  0.00  0.00    -0.045 A 
ATOM     25  C   UNK A   1       7.204  -2.713  23.004  0.00  0.00    +0.004 A 
ATOM     26  C   UNK A   1       6.104  -2.998  22.193  0.00  0.00    +0.000 A 
ATOM     27  C   UNK A   1       5.755  -4.321  21.924  0.00  0.00    +0.000 A 
ATOM     28  C   UNK A   1       6.500  -5.362  22.475  0.00  0.00    +0.000 A 
ATOM     29  C   UNK A   1       7.595  -5.079  23.291  0.00  0.00    +0.004 A 
ENDBRANCH  23  24
ENDBRANCH  18  23
ENDBRANCH  15  18
ENDBRANCH   1  12
BRANCH   1  32
ATOM     30  N   UNK A   1       6.908   1.222  24.064  0.00  0.00    -0.302 N 
ATOM     31  H   UNK A   1       7.852   0.902  24.301  0.00  0.00    +0.150 HD
ATOM     32  C   UNK A   1       5.961   1.219  25.061  0.00  0.00    +0.237 C 
ATOM     33  O   UNK A   1       4.796   1.553  24.822  0.00  0.00    -0.274 OA
BRANCH  30  34
ATOM     34  C   UNK A   1       6.624   1.617  22.676  0.00  0.00    +0.159 C 
BRANCH  34  35
ATOM     35  C   UNK A   1       6.205   3.119  22.516  0.00  0.00    +0.234 C 
ATOM     36  N   UNK A   1       7.113   4.074  22.922  0.00  0.00    -0.304 N 
ATOM     37  H   UNK A   1       7.729   3.745  23.661  0.00  0.00    +0.149 HD
ATOM     38  O   UNK A   1       5.087   3.428  22.103  0.00  0.00    -0.274 OA
BRANCH  36  39
ATOM     39  C   UNK A   1       6.800   5.512  22.915  0.00  0.00    +0.140 C 
BRANCH  39  40
ATOM     40  C   UNK A   1       6.129   5.901  24.231  0.00  0.00    +0.245 C 
ATOM     41  O   UNK A   1       6.057   5.167  25.217  0.00  0.00    -0.299 OA
ENDBRANCH  39  40
BRANCH  39  42
ATOM     42  C   UNK A   1       7.956   6.492  22.599  0.00  0.00    +0.064 C 
BRANCH  42  43
ATOM     43  C   UNK A   1       9.176   6.433  23.493  0.00  0.00    -0.045 A 
ATOM     44  C   UNK A   1       9.189   7.108  24.723  0.00  0.00    +0.004 A 
ATOM     45  C   UNK A   1      10.334   7.107  25.523  0.00  0.00    +0.000 A 
ATOM     46  C   UNK A   1      11.476   6.427  25.108  0.00  0.00    +0.000 A 
ATOM     47  C   UNK A   1      11.477   5.752  23.890  0.00  0.00    +0.000 A 
ATOM     48  C   UNK A   1      10.335   5.761  23.085  0.00  0.00    +0.004 A 
ENDBRANCH  42  43
ENDBRANCH  39  42
ENDBRANCH  36  39
ENDBRANCH  34  35
BRANCH  34  49
ATOM     49  C   UNK A   1       7.837   1.411  21.729  0.00  0.00    +0.034 C 
BRANCH  49  51
ATOM     50  C   UNK A   1       9.738  -0.315  21.660  0.00  0.00    +0.007 C 
ATOM     51  C   UNK A   1       9.175   0.940  22.323  0.00  0.00    -0.015 C 
ATOM     52  C   UNK A   1      10.214   2.075  22.236  0.00  0.00    +0.007 C 
ENDBRANCH  49  51
ENDBRANCH  34  49
ENDBRANCH  30  34
ENDBRANCH   1  32
TORSDOF 16
ENDMDL
MODEL 5
REMARK VINA RESULT:      -6.4      2.283      7.307
REMARK  Name = 
REMARK  18 active torsions:
REMARK  status: ('A' for Active; 'I' for Inactive)
REMARK    1  A    between atoms: C_1  and  C_2
REMARK    2  A    between atoms: C_2  and  C_3
REMARK    3  A    between atoms: C_2  and  C_4
REMARK    4  A    between atoms: C_4  and  C_5
REMARK    5  A    between atoms: C_5  and  N_7
REMARK    6  A    between atoms: C_5  and  C_36
REMARK    7  A    between atoms: C_8  and  C_10
REMARK    8  A    between atoms: C_10  and  N_12
REMARK    9  A    between atoms: C_10  and  C_28
REMARK   10  A    between atoms: N_15  and  C_16
REMARK   11  A    between atoms: C_16  and  C_18
REMARK   12  A    between atoms: C_16  and  C_25
REMARK   13  A    between atoms: C_18  and  C_19
REMARK   14  A    between atoms: C_25  and  O_26
REMARK   15  A    between atoms: N_38  and  CA_39
REMARK   16  A    between atoms: CA_39  and  CB_41
REMARK   17  A    between atoms: CA_39  and  C_48
REMARK   18  A    between atoms: CB_41  and  CG_42
REMARK                            x       y       z     vdW  Elec       q    Type
REMARK                         _______ _______ _______ _____ _____    ______ ____
ROOT
ATOM      1  C   UNK A   1       8.427   0.522  24.755  0.00  0.00    +0.195 C 
ENDROOT
BRANCH   1   2
ATOM      2  C   UNK A   1       9.713   1.306  24.351  0.00  0.00    +0.168 C 
ATOM      3  N   UNK A   1       9.395   2.631  23.790  0.00  0.00    -0.234 N 
ATOM      4  H   UNK A   1      10.255   3.179  23.808  0.00  0.00    +0.245 HD
ATOM      5  C   UNK A   1       8.887   2.698  22.535  0.00  0.00    +0.362 C 
ATOM      6  N   UNK A   1       7.849   3.400  22.279  0.00  0.00    -0.133 NA
ATOM      7  H   UNK A   1       7.605   3.330  21.292  0.00  0.00    +0.306 HD
ATOM      8  N   UNK A   1       9.563   1.977  21.616  0.00  0.00    -0.238 N 
ATOM      9  H   UNK A   1       9.210   2.070  20.670  0.00  0.00    +0.244 HD
ATOM     10  C   UNK A   1       9.961   0.615  21.931  0.00  0.00    +0.188 C 
ATOM     11  C   UNK A   1      10.586   0.560  23.319  0.00  0.00    +0.075 C 
ENDBRANCH   1   2
BRANCH   1  12
ATOM     12  N   UNK A   1       8.757  -0.717  25.509  0.00  0.00    -0.285 N 
ATOM     13  H   UNK A   1       9.682  -0.747  25.918  0.00  0.00    +0.151 HD
ATOM     14  C   UNK A   0       8.347  -1.936  25.025  0.00  0.00    +0.301 C 
ATOM     15  N   UNK A   1       8.593  -2.954  25.907  0.00  0.00    -0.286 N 
ATOM     16  H   UNK A   1       8.627  -2.659  26.873  0.00  0.00    +0.151 HD
ATOM     17  O   UNK A   0       7.759  -2.084  23.965  0.00  0.00    -0.253 OA
BRANCH  15  18
ATOM     18  C   UNK A   1       7.981  -4.273  25.646  0.00  0.00    +0.187 C 
BRANCH  18  19
ATOM     19  C   UNK A   1       8.765  -5.077  24.605  0.00  0.00    +0.326 C 
ATOM     20  O   UNK A   1       8.414  -5.390  23.479  0.00  0.00    -0.249 OA
BRANCH  19  21
ATOM     21  O   UNK A   1       9.995  -5.423  25.052  0.00  0.00    -0.479 OA
ATOM     22  H   UNK A   1      10.614  -5.037  24.395  0.00  0.00    +0.295 HD
ENDBRANCH  19  21
ENDBRANCH  18  19
BRANCH  18  23
ATOM     23  C   UNK A   1       7.836  -5.116  26.925  0.00  0.00    +0.069 C 
BRANCH  23  24
ATOM     24  C   UNK A   1       6.398  -5.490  27.215  0.00  0.00    -0.045 A 
ATOM     25  C   UNK A   1       5.657  -6.232  26.288  0.00  0.00    +0.004 A 
ATOM     26  C   UNK A   1       4.340  -6.600  26.569  0.00  0.00    +0.000 A 
ATOM     27  C   UNK A   1       3.750  -6.226  27.776  0.00  0.00    +0.000 A 
ATOM     28  C   UNK A   1       4.473  -5.474  28.699  0.00  0.00    +0.000 A 
ATOM     29  C   UNK A   1       5.787  -5.099  28.417  0.00  0.00    +0.004 A 
ENDBRANCH  23  24
ENDBRANCH  18  23
ENDBRANCH  15  18
ENDBRANCH   1  12
BRANCH   1  32
ATOM     30  N   UNK A   1       7.302   1.183  26.913  0.00  0.00    -0.302 N 
ATOM     31  H   UNK A   1       7.970   0.537  27.345  0.00  0.00    +0.150 HD
ATOM     32  C   UNK A   1       7.349   1.335  25.547  0.00  0.00    +0.237 C 
ATOM     33  O   UNK A   1       6.597   2.133  24.979  0.00  0.00    -0.274 OA
BRANCH  30  34
ATOM     34  C   UNK A   1       6.380   1.929  27.782  0.00  0.00    +0.159 C 
BRANCH  34  35
ATOM     35  C   UNK A   1       5.323   1.028  28.510  0.00  0.00    +0.234 C 
ATOM     36  N   UNK A   1       4.212   0.650  27.787  0.00  0.00    -0.304 N 
ATOM     37  H   UNK A   1       3.966   1.318  27.061  0.00  0.00    +0.149 HD
ATOM     38  O   UNK A   1       5.453   0.725  29.697  0.00  0.00    -0.274 OA
BRANCH  36  39
ATOM     39  C   UNK A   1       3.104  -0.112  28.386  0.00  0.00    +0.140 C 
BRANCH  39  40
ATOM     40  C   UNK A   1       1.789   0.275  27.711  0.00  0.00    +0.245 C 
ATOM     41  O   UNK A   1       1.691   0.644  26.540  0.00  0.00    -0.299 OA
ENDBRANCH  39  40
BRANCH  39  42
ATOM     42  C   UNK A   1       3.242  -1.652  28.436  0.00  0.00    +0.064 C 
BRANCH  42  43
ATOM     43  C   UNK A   1       3.349  -2.380  27.112  0.00  0.00    -0.045 A 
ATOM     44  C   UNK A   1       4.534  -2.320  26.364  0.00  0.00    +0.004 A 
ATOM     45  C   UNK A   1       4.618  -2.939  25.113  0.00  0.00    +0.000 A 
ATOM     46  C   UNK A   1       3.522  -3.629  24.600  0.00  0.00    +0.000 A 
ATOM     47  C   UNK A   1       2.340  -3.696  25.334  0.00  0.00    +0.000 A 
ATOM     48  C   UNK A   1       2.253  -3.069  26.579  0.00  0.00    +0.004 A 
ENDBRANCH  42  43
ENDBRANCH  39  42
ENDBRANCH  36  39
ENDBRANCH  34  35
BRANCH  34  49
ATOM     49  C   UNK A   1       7.109   2.717  28.903  0.00  0.00    +0.034 C 
BRANCH  49  51
ATOM     50  C   UNK A   1       6.437   4.924  27.773  0.00  0.00    +0.007 C 
ATOM     51  C   UNK A   1       6.815   4.218  29.072  0.00  0.00    -0.015 C 
ATOM     52  C   UNK A   1       5.693   4.417  30.109  0.00  0.00    +0.007 C 
ENDBRANCH  49  51
ENDBRANCH  34  49
ENDBRANCH  30  34
ENDBRANCH   1  32
TORSDOF 16
ENDMDL
MODEL 6
REMARK VINA RESULT:      -6.3      1.989      8.392
REMARK  Name = 
REMARK  18 active torsions:
REMARK  status: ('A' for Active; 'I' for Inactive)
REMARK    1  A    between atoms: C_1  and  C_2
REMARK    2  A    between atoms: C_2  and  C_3
REMARK    3  A    between atoms: C_2  and  C_4
REMARK    4  A    between atoms: C_4  and  C_5
REMARK    5  A    between atoms: C_5  and  N_7
REMARK    6  A    between atoms: C_5  and  C_36
REMARK    7  A    between atoms: C_8  and  C_10
REMARK    8  A    between atoms: C_10  and  N_12
REMARK    9  A    between atoms: C_10  and  C_28
REMARK   10  A    between atoms: N_15  and  C_16
REMARK   11  A    between atoms: C_16  and  C_18
REMARK   12  A    between atoms: C_16  and  C_25
REMARK   13  A    between atoms: C_18  and  C_19
REMARK   14  A    between atoms: C_25  and  O_26
REMARK   15  A    between atoms: N_38  and  CA_39
REMARK   16  A    between atoms: CA_39  and  CB_41
REMARK   17  A    between atoms: CA_39  and  C_48
REMARK   18  A    between atoms: CB_41  and  CG_42
REMARK                            x       y       z     vdW  Elec       q    Type
REMARK                         _______ _______ _______ _____ _____    ______ ____
ROOT
ATOM      1  C   UNK A   1       5.766   0.016  27.255  0.00  0.00    +0.195 C 
ENDROOT
BRANCH   1   2
ATOM      2  C   UNK A   1       5.184   1.085  28.231  0.00  0.00    +0.168 C 
ATOM      3  N   UNK A   1       5.564   2.453  27.836  0.00  0.00    -0.234 N 
ATOM      4  H   UNK A   1       4.944   3.093  28.333  0.00  0.00    +0.245 HD
ATOM      5  C   UNK A   1       6.839   2.860  28.054  0.00  0.00    +0.362 C 
ATOM      6  N   UNK A   1       7.516   3.432  27.132  0.00  0.00    -0.133 NA
ATOM      7  H   UNK A   1       8.450   3.663  27.467  0.00  0.00    +0.306 HD
ATOM      8  N   UNK A   1       7.303   2.610  29.296  0.00  0.00    -0.238 N 
ATOM      9  H   UNK A   1       8.239   2.961  29.470  0.00  0.00    +0.244 HD
ATOM     10  C   UNK A   1       7.078   1.304  29.892  0.00  0.00    +0.188 C 
ATOM     11  C   UNK A   1       5.628   0.882  29.695  0.00  0.00    +0.075 C 
ENDBRANCH   1   2
BRANCH   1  12
ATOM     12  N   UNK A   1       5.199  -1.333  27.523  0.00  0.00    -0.285 N 
ATOM     13  H   UNK A   1       4.687  -1.428  28.390  0.00  0.00    +0.151 HD
ATOM     14  C   UNK A   0       5.932  -2.452  27.209  0.00  0.00    +0.301 C 
ATOM     15  N   UNK A   1       5.213  -3.606  27.370  0.00  0.00    -0.286 N 
ATOM     16  H   UNK A   1       4.214  -3.482  27.277  0.00  0.00    +0.151 HD
ATOM     17  O   UNK A   0       7.067  -2.417  26.761  0.00  0.00    -0.253 OA
BRANCH  15  18
ATOM     18  C   UNK A   1       5.771  -4.863  26.832  0.00  0.00    +0.187 C 
BRANCH  18  19
ATOM     19  C   UNK A   1       5.879  -5.952  27.903  0.00  0.00    +0.326 C 
ATOM     20  O   UNK A   1       5.552  -7.124  27.817  0.00  0.00    -0.249 OA
BRANCH  19  21
ATOM     21  O   UNK A   1       6.439  -5.486  29.044  0.00  0.00    -0.479 OA
ATOM     22  H   UNK A   1       6.094  -4.572  29.133  0.00  0.00    +0.295 HD
ENDBRANCH  19  21
ENDBRANCH  18  19
BRANCH  18  23
ATOM     23  C   UNK A   1       4.955  -5.406  25.646  0.00  0.00    +0.069 C 
BRANCH  23  24
ATOM     24  C   UNK A   1       5.734  -5.390  24.348  0.00  0.00    -0.045 A 
ATOM     25  C   UNK A   1       5.219  -6.008  23.202  0.00  0.00    +0.004 A 
ATOM     26  C   UNK A   1       5.926  -5.969  21.999  0.00  0.00    +0.000 A 
ATOM     27  C   UNK A   1       7.157  -5.317  21.932  0.00  0.00    +0.000 A 
ATOM     28  C   UNK A   1       7.688  -4.713  23.069  0.00  0.00    +0.000 A 
ATOM     29  C   UNK A   1       6.985  -4.757  24.274  0.00  0.00    +0.004 A 
ENDBRANCH  23  24
ENDBRANCH  18  23
ENDBRANCH  15  18
ENDBRANCH   1  12
BRANCH   1  32
ATOM     30  N   UNK A   1       6.708   0.063  24.916  0.00  0.00    -0.302 N 
ATOM     31  H   UNK A   1       7.547  -0.331  25.351  0.00  0.00    +0.150 HD
ATOM     32  C   UNK A   1       5.633   0.338  25.729  0.00  0.00    +0.237 C 
ATOM     33  O   UNK A   1       4.580   0.772  25.251  0.00  0.00    -0.274 OA
BRANCH  30  34
ATOM     34  C   UNK A   1       6.696   0.262  23.459  0.00  0.00    +0.159 C 
BRANCH  34  35
ATOM     35  C   UNK A   1       6.989   1.737  23.017  0.00  0.00    +0.234 C 
ATOM     36  N   UNK A   1       6.861   2.720  23.975  0.00  0.00    -0.304 N 
ATOM     37  H   UNK A   1       6.190   2.481  24.701  0.00  0.00    +0.149 HD
ATOM     38  O   UNK A   1       7.261   2.011  21.847  0.00  0.00    -0.274 OA
BRANCH  36  39
ATOM     39  C   UNK A   1       7.013   4.150  23.663  0.00  0.00    +0.140 C 
BRANCH  39  40
ATOM     40  C   UNK A   1       5.651   4.840  23.730  0.00  0.00    +0.245 C 
ATOM     41  O   UNK A   1       4.744   4.513  24.495  0.00  0.00    -0.299 OA
ENDBRANCH  39  40
BRANCH  39  42
ATOM     42  C   UNK A   1       8.055   4.953  24.479  0.00  0.00    +0.064 C 
BRANCH  42  43
ATOM     43  C   UNK A   1       9.508   4.804  24.082  0.00  0.00    -0.045 A 
ATOM     44  C   UNK A   1      10.348   5.926  24.029  0.00  0.00    +0.004 A 
ATOM     45  C   UNK A   1      11.674   5.803  23.604  0.00  0.00    +0.000 A 
ATOM     46  C   UNK A   1      12.176   4.558  23.234  0.00  0.00    +0.000 A 
ATOM     47  C   UNK A   1      11.353   3.436  23.282  0.00  0.00    +0.000 A 
ATOM     48  C   UNK A   1      10.025   3.560  23.697  0.00  0.00    +0.004 A 
ENDBRANCH  42  43
ENDBRANCH  39  42
ENDBRANCH  36  39
ENDBRANCH  34  35
BRANCH  34  49
ATOM     49  C   UNK A   1       7.740  -0.618  22.720  0.00  0.00    +0.034 C 
BRANCH  49  51
ATOM     50  C   UNK A   1       9.719  -1.740  23.913  0.00  0.00    +0.007 C 
ATOM     51  C   UNK A   1       9.219  -0.527  23.134  0.00  0.00    -0.015 C 
ATOM     52  C   UNK A   1      10.100  -0.320  21.886  0.00  0.00    +0.007 C 
ENDBRANCH  49  51
ENDBRANCH  34  49
ENDBRANCH  30  34
ENDBRANCH   1  32
TORSDOF 16
ENDMDL
MODEL 7
REMARK VINA RESULT:      -6.3      2.679      5.632
REMARK  Name = 
REMARK  18 active torsions:
REMARK  status: ('A' for Active; 'I' for Inactive)
REMARK    1  A    between atoms: C_1  and  C_2
REMARK    2  A    between atoms: C_2  and  C_3
REMARK    3  A    between atoms: C_2  and  C_4
REMARK    4  A    between atoms: C_4  and  C_5
REMARK    5  A    between atoms: C_5  and  N_7
REMARK    6  A    between atoms: C_5  and  C_36
REMARK    7  A    between atoms: C_8  and  C_10
REMARK    8  A    between atoms: C_10  and  N_12
REMARK    9  A    between atoms: C_10  and  C_28
REMARK   10  A    between atoms: N_15  and  C_16
REMARK   11  A    between atoms: C_16  and  C_18
REMARK   12  A    between atoms: C_16  and  C_25
REMARK   13  A    between atoms: C_18  and  C_19
REMARK   14  A    between atoms: C_25  and  O_26
REMARK   15  A    between atoms: N_38  and  CA_39
REMARK   16  A    between atoms: CA_39  and  CB_41
REMARK   17  A    between atoms: CA_39  and  C_48
REMARK   18  A    between atoms: CB_41  and  CG_42
REMARK                            x       y       z     vdW  Elec       q    Type
REMARK                         _______ _______ _______ _____ _____    ______ ____
ROOT
ATOM      1  C   UNK A   1       9.133   0.758  22.984  0.00  0.00    +0.195 C 
ENDROOT
BRANCH   1   2
ATOM      2  C   UNK A   1       9.475  -0.375  21.969  0.00  0.00    +0.168 C 
ATOM      3  N   UNK A   1       8.290  -1.182  21.628  0.00  0.00    -0.234 N 
ATOM      4  H   UNK A   1       8.516  -1.706  20.781  0.00  0.00    +0.245 HD
ATOM      5  C   UNK A   1       7.820  -2.064  22.545  0.00  0.00    +0.362 C 
ATOM      6  N   UNK A   1       6.577  -2.104  22.844  0.00  0.00    -0.133 NA
ATOM      7  H   UNK A   1       6.404  -2.817  23.552  0.00  0.00    +0.306 HD
ATOM      8  N   UNK A   1       8.760  -2.863  23.090  0.00  0.00    -0.238 N 
ATOM      9  H   UNK A   1       8.397  -3.553  23.739  0.00  0.00    +0.244 HD
ATOM     10  C   UNK A   1      10.015  -2.283  23.538  0.00  0.00    +0.188 C 
ATOM     11  C   UNK A   1      10.567  -1.342  22.476  0.00  0.00    +0.075 C 
ENDBRANCH   1   2
BRANCH   1  12
ATOM     12  N   UNK A   1       9.647   2.076  22.524  0.00  0.00    -0.285 N 
ATOM     13  H   UNK A   1       9.687   2.204  21.521  0.00  0.00    +0.151 HD
ATOM     14  C   UNK A   0      10.705   2.659  23.179  0.00  0.00    +0.301 C 
ATOM     15  N   UNK A   1      10.954   3.930  22.735  0.00  0.00    -0.286 N 
ATOM     16  H   UNK A   1      10.145   4.393  22.346  0.00  0.00    +0.151 HD
ATOM     17  O   UNK A   0      11.302   2.134  24.106  0.00  0.00    -0.253 OA
BRANCH  15  18
ATOM     18  C   UNK A   1      11.884   4.775  23.511  0.00  0.00    +0.187 C 
BRANCH  18  19
ATOM     19  C   UNK A   1      13.123   5.165  22.701  0.00  0.00    +0.326 C 
ATOM     20  O   UNK A   1      13.166   5.675  21.593  0.00  0.00    -0.249 OA
BRANCH  19  21
ATOM     21  O   UNK A   1      14.269   4.904  23.371  0.00  0.00    -0.479 OA
ATOM     22  H   UNK A   1      14.933   5.506  22.969  0.00  0.00    +0.295 HD
ENDBRANCH  19  21
ENDBRANCH  18  19
BRANCH  18  23
ATOM     23  C   UNK A   1      11.209   6.052  24.042  0.00  0.00    +0.069 C 
BRANCH  23  24
ATOM     24  C   UNK A   1       9.703   5.925  24.123  0.00  0.00    -0.045 A 
ATOM     25  C   UNK A   1       9.098   5.346  25.245  0.00  0.00    +0.004 A 
ATOM     26  C   UNK A   1       7.707   5.255  25.330  0.00  0.00    +0.000 A 
ATOM     27  C   UNK A   1       6.909   5.734  24.292  0.00  0.00    +0.000 A 
ATOM     28  C   UNK A   1       7.501   6.297  23.163  0.00  0.00    +0.000 A 
ATOM     29  C   UNK A   1       8.890   6.383  23.074  0.00  0.00    +0.004 A 
ENDBRANCH  23  24
ENDBRANCH  18  23
ENDBRANCH  15  18
ENDBRANCH   1  12
BRANCH   1  32
ATOM     30  N   UNK A   1       7.269   0.688  24.681  0.00  0.00    -0.302 N 
ATOM     31  H   UNK A   1       8.011   0.439  25.341  0.00  0.00    +0.150 HD
ATOM     32  C   UNK A   1       7.622   0.900  23.369  0.00  0.00    +0.237 C 
ATOM     33  O   UNK A   1       6.775   1.245  22.539  0.00  0.00    -0.274 OA
BRANCH  30  34
ATOM     34  C   UNK A   1       5.897   0.845  25.188  0.00  0.00    +0.159 C 
BRANCH  34  35
ATOM     35  C   UNK A   1       5.416  -0.339  26.095  0.00  0.00    +0.234 C 
ATOM     36  N   UNK A   1       5.027  -1.500  25.463  0.00  0.00    -0.304 N 
ATOM     37  H   UNK A   1       4.672  -1.340  24.524  0.00  0.00    +0.149 HD
ATOM     38  O   UNK A   1       5.329  -0.212  27.318  0.00  0.00    -0.274 OA
BRANCH  36  39
ATOM     39  C   UNK A   1       4.465  -2.647  26.195  0.00  0.00    +0.140 C 
BRANCH  39  40
ATOM     40  C   UNK A   1       2.939  -2.593  26.142  0.00  0.00    +0.245 C 
ATOM     41  O   UNK A   1       2.256  -3.097  25.250  0.00  0.00    -0.299 OA
ENDBRANCH  39  40
BRANCH  39  42
ATOM     42  C   UNK A   1       4.960  -4.059  25.800  0.00  0.00    +0.064 C 
BRANCH  42  43
ATOM     43  C   UNK A   1       6.454  -4.305  25.843  0.00  0.00    -0.045 A 
ATOM     44  C   UNK A   1       7.023  -5.347  25.097  0.00  0.00    +0.004 A 
ATOM     45  C   UNK A   1       8.392  -5.617  25.181  0.00  0.00    +0.000 A 
ATOM     46  C   UNK A   1       9.207  -4.844  26.004  0.00  0.00    +0.000 A 
ATOM     47  C   UNK A   1       8.654  -3.806  26.750  0.00  0.00    +0.000 A 
ATOM     48  C   UNK A   1       7.284  -3.543  26.674  0.00  0.00    +0.004 A 
ENDBRANCH  42  43
ENDBRANCH  39  42
ENDBRANCH  36  39
ENDBRANCH  34  35
BRANCH  34  49
ATOM     49  C   UNK A   1       5.710   2.132  26.036  0.00  0.00    +0.034 C 
BRANCH  49  51
ATOM     50  C   UNK A   1       4.117   2.938  24.189  0.00  0.00    +0.007 C 
ATOM     51  C   UNK A   1       4.661   3.169  25.596  0.00  0.00    -0.015 C 
ATOM     52  C   UNK A   1       3.493   3.190  26.601  0.00  0.00    +0.007 C 
ENDBRANCH  49  51
ENDBRANCH  34  49
ENDBRANCH  30  34
ENDBRANCH   1  32
TORSDOF 16
ENDMDL
MODEL 8
REMARK VINA RESULT:      -6.1      2.587      8.351
REMARK  Name = 
REMARK  18 active torsions:
REMARK  status: ('A' for Active; 'I' for Inactive)
REMARK    1  A    between atoms: C_1  and  C_2
REMARK    2  A    between atoms: C_2  and  C_3
REMARK    3  A    between atoms: C_2  and  C_4
REMARK    4  A    between atoms: C_4  and  C_5
REMARK    5  A    between atoms: C_5  and  N_7
REMARK    6  A    between atoms: C_5  and  C_36
REMARK    7  A    between atoms: C_8  and  C_10
REMARK    8  A    between atoms: C_10  and  N_12
REMARK    9  A    between atoms: C_10  and  C_28
REMARK   10  A    between atoms: N_15  and  C_16
REMARK   11  A    between atoms: C_16  and  C_18
REMARK   12  A    between atoms: C_16  and  C_25
REMARK   13  A    between atoms: C_18  and  C_19
REMARK   14  A    between atoms: C_25  and  O_26
REMARK   15  A    between atoms: N_38  and  CA_39
REMARK   16  A    between atoms: CA_39  and  CB_41
REMARK   17  A    between atoms: CA_39  and  C_48
REMARK   18  A    between atoms: CB_41  and  CG_42
REMARK                            x       y       z     vdW  Elec       q    Type
REMARK                         _______ _______ _______ _____ _____    ______ ____
ROOT
ATOM      1  C   UNK A   1       4.679  -4.014  28.202  0.00  0.00    +0.195 C 
ENDROOT
BRANCH   1   2
ATOM      2  C   UNK A   1       4.121  -4.270  29.636  0.00  0.00    +0.168 C 
ATOM      3  N   UNK A   1       5.095  -4.978  30.485  0.00  0.00    -0.234 N 
ATOM      4  H   UNK A   1       4.787  -4.869  31.452  0.00  0.00    +0.245 HD
ATOM      5  C   UNK A   1       5.305  -6.300  30.266  0.00  0.00    +0.362 C 
ATOM      6  N   UNK A   1       6.489  -6.773  30.166  0.00  0.00    -0.133 NA
ATOM      7  H   UNK A   1       6.459  -7.777  29.996  0.00  0.00    +0.306 HD
ATOM      8  N   UNK A   1       4.180  -7.039  30.167  0.00  0.00    -0.238 N 
ATOM      9  H   UNK A   1       4.342  -8.034  30.052  0.00  0.00    +0.244 HD
ATOM     10  C   UNK A   1       3.080  -6.556  29.349  0.00  0.00    +0.188 C 
ATOM     11  C   UNK A   1       2.811  -5.087  29.646  0.00  0.00    +0.075 C 
ENDBRANCH   1   2
BRANCH   1  12
ATOM     12  N   UNK A   1       3.733  -4.486  27.157  0.00  0.00    -0.285 N 
ATOM     13  H   UNK A   1       2.756  -4.490  27.420  0.00  0.00    +0.151 HD
ATOM     14  C   UNK A   0       4.077  -5.552  26.360  0.00  0.00    +0.301 C 
ATOM     15  N   UNK A   1       3.173  -5.761  25.353  0.00  0.00    -0.286 N 
ATOM     16  H   UNK A   1       2.667  -4.930  25.079  0.00  0.00    +0.151 HD
ATOM     17  O   UNK A   0       5.110  -6.190  26.488  0.00  0.00    -0.253 OA
BRANCH  15  18
ATOM     18  C   UNK A   1       3.532  -6.697  24.270  0.00  0.00    +0.187 C 
BRANCH  18  19
ATOM     19  C   UNK A   1       2.562  -7.879  24.182  0.00  0.00    +0.326 C 
ATOM     20  O   UNK A   1       1.727  -8.101  23.320  0.00  0.00    -0.249 OA
BRANCH  19  21
ATOM     21  O   UNK A   1       2.730  -8.750  25.204  0.00  0.00    -0.479 OA
ATOM     22  H   UNK A   1       2.870  -8.182  25.992  0.00  0.00    +0.295 HD
ENDBRANCH  19  21
ENDBRANCH  18  19
BRANCH  18  23
ATOM     23  C   UNK A   1       3.606  -6.005  22.897  0.00  0.00    +0.069 C 
BRANCH  23  24
ATOM     24  C   UNK A   1       4.919  -5.284  22.679  0.00  0.00    -0.045 A 
ATOM     25  C   UNK A   1       6.104  -6.007  22.495  0.00  0.00    +0.004 A 
ATOM     26  C   UNK A   1       7.309  -5.341  22.266  0.00  0.00    +0.000 A 
ATOM     27  C   UNK A   1       7.343  -3.947  22.225  0.00  0.00    +0.000 A 
ATOM     28  C   UNK A   1       6.173  -3.217  22.422  0.00  0.00    +0.000 A 
ATOM     29  C   UNK A   1       4.969  -3.881  22.658  0.00  0.00    +0.004 A 
ENDBRANCH  23  24
ENDBRANCH  18  23
ENDBRANCH  15  18
ENDBRANCH   1  12
BRANCH   1  32
ATOM     30  N   UNK A   1       6.185  -2.347  27.056  0.00  0.00    -0.302 N 
ATOM     31  H   UNK A   1       6.664  -3.176  26.694  0.00  0.00    +0.150 HD
ATOM     32  C   UNK A   1       5.105  -2.541  27.886  0.00  0.00    +0.237 C 
ATOM     33  O   UNK A   1       4.464  -1.578  28.317  0.00  0.00    -0.274 OA
BRANCH  30  34
ATOM     34  C   UNK A   1       6.655  -1.019  26.632  0.00  0.00    +0.159 C 
BRANCH  34  35
ATOM     35  C   UNK A   1       8.176  -0.973  26.257  0.00  0.00    +0.234 C 
ATOM     36  N   UNK A   1       8.493  -0.886  24.919  0.00  0.00    -0.304 N 
ATOM     37  H   UNK A   1       7.785  -1.298  24.316  0.00  0.00    +0.149 HD
ATOM     38  O   UNK A   1       9.049  -1.074  27.121  0.00  0.00    -0.274 OA
BRANCH  36  39
ATOM     39  C   UNK A   1       9.882  -0.934  24.433  0.00  0.00    +0.140 C 
BRANCH  39  40
ATOM     40  C   UNK A   1       9.981  -1.894  23.249  0.00  0.00    +0.245 C 
ATOM     41  O   UNK A   1      10.825  -1.812  22.356  0.00  0.00    -0.299 OA
ENDBRANCH  39  40
BRANCH  39  42
ATOM     42  C   UNK A   1      10.563   0.411  24.084  0.00  0.00    +0.064 C 
BRANCH  42  43
ATOM     43  C   UNK A   1       9.671   1.530  23.588  0.00  0.00    -0.045 A 
ATOM     44  C   UNK A   1       9.370   2.619  24.418  0.00  0.00    +0.004 A 
ATOM     45  C   UNK A   1       8.499   3.623  23.987  0.00  0.00    +0.000 A 
ATOM     46  C   UNK A   1       7.923   3.552  22.721  0.00  0.00    +0.000 A 
ATOM     47  C   UNK A   1       8.213   2.476  21.887  0.00  0.00    +0.000 A 
ATOM     48  C   UNK A   1       9.077   1.467  22.321  0.00  0.00    +0.004 A 
ENDBRANCH  42  43
ENDBRANCH  39  42
ENDBRANCH  36  39
ENDBRANCH  34  35
BRANCH  34  49
ATOM     49  C   UNK A   1       5.895  -0.477  25.392  0.00  0.00    +0.034 C 
BRANCH  49  51
ATOM     50  C   UNK A   1       6.104   1.890  26.366  0.00  0.00    +0.007 C 
ATOM     51  C   UNK A   1       5.348   0.960  25.421  0.00  0.00    -0.015 C 
ATOM     52  C   UNK A   1       5.361   1.554  23.999  0.00  0.00    +0.007 C 
ENDBRANCH  49  51
ENDBRANCH  34  49
ENDBRANCH  30  34
ENDBRANCH   1  32
TORSDOF 16
ENDMDL
MODEL 9
REMARK VINA RESULT:      -6.1      2.198      6.495
REMARK  Name = 
REMARK  18 active torsions:
REMARK  status: ('A' for Active; 'I' for Inactive)
REMARK    1  A    between atoms: C_1  and  C_2
REMARK    2  A    between atoms: C_2  and  C_3
REMARK    3  A    between atoms: C_2  and  C_4
REMARK    4  A    between atoms: C_4  and  C_5
REMARK    5  A    between atoms: C_5  and  N_7
REMARK    6  A    between atoms: C_5  and  C_36
REMARK    7  A    between atoms: C_8  and  C_10
REMARK    8  A    between atoms: C_10  and  N_12
REMARK    9  A    between atoms: C_10  and  C_28
REMARK   10  A    between atoms: N_15  and  C_16
REMARK   11  A    between atoms: C_16  and  C_18
REMARK   12  A    between atoms: C_16  and  C_25
REMARK   13  A    between atoms: C_18  and  C_19
REMARK   14  A    between atoms: C_25  and  O_26
REMARK   15  A    between atoms: N_38  and  CA_39
REMARK   16  A    between atoms: CA_39  and  CB_41
REMARK   17  A    between atoms: CA_39  and  C_48
REMARK   18  A    between atoms: CB_41  and  CG_42
REMARK                            x       y       z     vdW  Elec       q    Type
REMARK                         _______ _______ _______ _____ _____    ______ ____
ROOT
ATOM      1  C   UNK A   1       5.829   0.506  26.158  0.00  0.00    +0.195 C 
ENDROOT
BRANCH   1   2
ATOM      2  C   UNK A   1       5.346   1.933  25.752  0.00  0.00    +0.168 C 
ATOM      3  N   UNK A   1       6.377   2.667  24.998  0.00  0.00    -0.234 N 
ATOM      4  H   UNK A   1       5.912   3.452  24.540  0.00  0.00    +0.245 HD
ATOM      5  C   UNK A   1       7.447   3.156  25.672  0.00  0.00    +0.362 C 
ATOM      6  N   UNK A   1       8.638   2.961  25.248  0.00  0.00    -0.133 NA
ATOM      7  H   UNK A   1       9.315   3.390  25.878  0.00  0.00    +0.306 HD
ATOM      8  N   UNK A   1       7.140   3.844  26.791  0.00  0.00    -0.238 N 
ATOM      9  H   UNK A   1       7.940   4.250  27.264  0.00  0.00    +0.244 HD
ATOM     10  C   UNK A   1       6.163   3.298  27.718  0.00  0.00    +0.188 C 
ATOM     11  C   UNK A   1       4.938   2.807  26.957  0.00  0.00    +0.075 C 
ENDBRANCH   1   2
BRANCH   1  12
ATOM     12  N   UNK A   1       4.682  -0.412  26.391  0.00  0.00    -0.285 N 
ATOM     13  H   UNK A   1       3.818   0.031  26.678  0.00  0.00    +0.151 HD
ATOM     14  C   UNK A   0       4.895  -1.620  27.010  0.00  0.00    +0.301 C 
ATOM     15  N   UNK A   1       3.774  -2.408  27.009  0.00  0.00    -0.286 N 
ATOM     16  H   UNK A   1       3.138  -2.213  26.249  0.00  0.00    +0.151 HD
ATOM     17  O   UNK A   0       5.978  -1.982  27.440  0.00  0.00    -0.253 OA
BRANCH  15  18
ATOM     18  C   UNK A   1       3.912  -3.825  27.403  0.00  0.00    +0.187 C 
BRANCH  18  19
ATOM     19  C   UNK A   1       4.197  -3.984  28.899  0.00  0.00    +0.326 C 
ATOM     20  O   UNK A   1       3.506  -3.621  29.837  0.00  0.00    -0.249 OA
BRANCH  19  21
ATOM     21  O   UNK A   1       5.360  -4.637  29.126  0.00  0.00    -0.479 OA
ATOM     22  H   UNK A   1       5.937  -4.384  28.374  0.00  0.00    +0.295 HD
ENDBRANCH  19  21
ENDBRANCH  18  19
BRANCH  18  23
ATOM     23  C   UNK A   1       2.670  -4.657  27.037  0.00  0.00    +0.069 C 
BRANCH  23  24
ATOM     24  C   UNK A   1       2.788  -5.312  25.676  0.00  0.00    -0.045 A 
ATOM     25  C   UNK A   1       3.268  -6.621  25.558  0.00  0.00    +0.004 A 
ATOM     26  C   UNK A   1       3.350  -7.233  24.305  0.00  0.00    +0.000 A 
ATOM     27  C   UNK A   1       2.959  -6.539  23.160  0.00  0.00    +0.000 A 
ATOM     28  C   UNK A   1       2.496  -5.229  23.265  0.00  0.00    +0.000 A 
ATOM     29  C   UNK A   1       2.420  -4.615  24.515  0.00  0.00    +0.004 A 
ENDBRANCH  23  24
ENDBRANCH  18  23
ENDBRANCH  15  18
ENDBRANCH   1  12
BRANCH   1  32
ATOM     30  N   UNK A   1       8.135  -0.362  25.624  0.00  0.00    -0.302 N 
ATOM     31  H   UNK A   1       8.369  -0.036  26.566  0.00  0.00    +0.150 HD
ATOM     32  C   UNK A   1       6.845  -0.176  25.183  0.00  0.00    +0.237 C 
ATOM     33  O   UNK A   1       6.497  -0.588  24.072  0.00  0.00    -0.274 OA
BRANCH  30  34
ATOM     34  C   UNK A   1       9.173  -1.040  24.833  0.00  0.00    +0.159 C 
BRANCH  34  35
ATOM     35  C   UNK A   1       8.995  -2.595  24.751  0.00  0.00    +0.234 C 
ATOM     36  N   UNK A   1       8.066  -3.169  25.593  0.00  0.00    -0.304 N 
ATOM     37  H   UNK A   1       7.926  -2.638  26.450  0.00  0.00    +0.149 HD
ATOM     38  O   UNK A   1       9.701  -3.280  24.010  0.00  0.00    -0.274 OA
BRANCH  36  39
ATOM     39  C   UNK A   1       7.875  -4.626  25.682  0.00  0.00    +0.140 C 
BRANCH  39  40
ATOM     40  C   UNK A   1       8.056  -5.083  27.128  0.00  0.00    +0.245 C 
ATOM     41  O   UNK A   1       7.401  -5.979  27.661  0.00  0.00    -0.299 OA
ENDBRANCH  39  40
BRANCH  39  42
ATOM     42  C   UNK A   1       6.566  -5.211  25.100  0.00  0.00    +0.064 C 
BRANCH  42  43
ATOM     43  C   UNK A   1       6.307  -4.995  23.624  0.00  0.00    -0.045 A 
ATOM     44  C   UNK A   1       6.618  -5.998  22.695  0.00  0.00    +0.004 A 
ATOM     45  C   UNK A   1       6.439  -5.780  21.326  0.00  0.00    +0.000 A 
ATOM     46  C   UNK A   1       5.941  -4.561  20.872  0.00  0.00    +0.000 A 
ATOM     47  C   UNK A   1       5.628  -3.557  21.784  0.00  0.00    +0.000 A 
ATOM     48  C   UNK A   1       5.817  -3.771  23.152  0.00  0.00    +0.004 A 
ENDBRANCH  42  43
ENDBRANCH  39  42
ENDBRANCH  36  39
ENDBRANCH  34  35
BRANCH  34  49
ATOM     49  C   UNK A   1       9.235  -0.543  23.364  0.00  0.00    +0.034 C 
BRANCH  49  51
ATOM     50  C   UNK A   1       9.929   1.594  22.119  0.00  0.00    +0.007 C 
ATOM     51  C   UNK A   1      10.383   0.390  22.940  0.00  0.00    -0.015 C 
ATOM     52  C   UNK A   1      11.148   0.878  24.186  0.00  0.00    +0.007 C 
ENDBRANCH  49  51
ENDBRANCH  34  49
ENDBRANCH  30  34
ENDBRANCH   1  32
TORSDOF 16
ENDMDL
