MODEL 1
REMARK VINA RESULT:      -6.5      0.000      0.000
REMARK  Name = 
REMARK  4 active torsions:
REMARK  status: ('A' for Active; 'I' for Inactive)
REMARK    1  A    between atoms: C_1  and  C_2
REMARK    2  A    between atoms: C_2  and  N_3
REMARK    3  A    between atoms: C_5  and  C_6
REMARK    4  A    between atoms: C_6  and  O_7
REMARK                            x       y       z     vdW  Elec       q    Type
REMARK                         _______ _______ _______ _____ _____    ______ ____
ROOT
ATOM      1  N   UNL     1       7.033  -3.991  23.156  0.00  0.00    -0.263 N 
ATOM      2  C   UNL     1       7.772  -2.800  23.256  0.00  0.00    +0.075 A 
ATOM      3  C   UNL     1       8.338  -2.422  24.492  0.00  0.00    +0.053 A 
ATOM      4  C   UNL     1       9.129  -1.274  24.654  0.00  0.00    +0.063 A 
ATOM      5  C   UNL     1       9.356  -0.511  23.535  0.00  0.00    +0.167 A 
ATOM      6  O   UNL     1      10.134   0.600  23.464  0.00  0.00    -0.453 OA
ATOM      7  C   UNL     1      10.070   0.886  22.050  0.00  0.00    +0.466 C 
ATOM      8  O   UNL     1       9.141   0.040  21.342  0.00  0.00    -0.453 OA
ATOM      9  C   UNL     1       8.795  -0.833  22.326  0.00  0.00    +0.168 A 
ATOM     10  C   UNL     1       8.091  -3.305  25.628  0.00  0.00    +0.222 A 
ATOM     11  O   UNL     1       8.468  -3.061  26.768  0.00  0.00    -0.285 OA
ATOM     12  C   UNL     1       7.361  -4.586  25.379  0.00  0.00    +0.215 A 
ATOM     13  C   UNL     1       7.991  -1.944  22.162  0.00  0.00    +0.077 A 
ATOM     14  N   UNL     1       6.892  -4.867  24.197  0.00  0.00    -0.160 NA
ENDROOT
BRANCH   1  16
ATOM     15  C   UNL     1       7.009  -6.024  21.750  0.00  0.00    +0.029 C 
ATOM     16  C   UNL     1       6.655  -4.545  21.845  0.00  0.00    +0.141 C 
ENDBRANCH   1  16
BRANCH  12  17
ATOM     17  C   UNL     1       7.153  -5.626  26.492  0.00  0.00    +0.361 C 
ATOM     18  O   UNL     1       6.137  -6.294  26.571  0.00  0.00    -0.243 OA
BRANCH  17  19
ATOM     19  O   UNL     1       8.170  -5.736  27.363  0.00  0.00    -0.476 OA
ATOM     20  H   UNL     1       8.035  -6.414  28.068  0.00  0.00    +0.295 HD
ENDBRANCH  17  19
ENDBRANCH  12  17
TORSDOF 3
ENDMDL
MODEL 2
REMARK VINA RESULT:      -6.4      1.317      5.473
REMARK  Name = 
REMARK  4 active torsions:
REMARK  status: ('A' for Active; 'I' for Inactive)
REMARK    1  A    between atoms: C_1  and  C_2
REMARK    2  A    between atoms: C_2  and  N_3
REMARK    3  A    between atoms: C_5  and  C_6
REMARK    4  A    between atoms: C_6  and  O_7
REMARK                            x       y       z     vdW  Elec       q    Type
REMARK                         _______ _______ _______ _____ _____    ______ ____
ROOT
ATOM      1  N   UNL     1       6.862  -4.172  22.766  0.00  0.00    -0.263 N 
ATOM      2  C   UNL     1       6.943  -4.473  24.136  0.00  0.00    +0.075 A 
ATOM      3  C   UNL     1       7.806  -3.733  24.971  0.00  0.00    +0.053 A 
ATOM      4  C   UNL     1       7.902  -3.945  26.355  0.00  0.00    +0.063 A 
ATOM      5  C   UNL     1       7.094  -4.917  26.894  0.00  0.00    +0.167 A 
ATOM      6  O   UNL     1       6.992  -5.239  28.209  0.00  0.00    -0.453 OA
ATOM      7  C   UNL     1       5.939  -6.226  28.166  0.00  0.00    +0.466 C 
ATOM      8  O   UNL     1       5.548  -6.579  26.823  0.00  0.00    -0.453 OA
ATOM      9  C   UNL     1       6.268  -5.676  26.105  0.00  0.00    +0.168 A 
ATOM     10  C   UNL     1       8.601  -2.687  24.337  0.00  0.00    +0.222 A 
ATOM     11  O   UNL     1       9.436  -2.015  24.933  0.00  0.00    -0.285 OA
ATOM     12  C   UNL     1       8.365  -2.404  22.887  0.00  0.00    +0.215 A 
ATOM     13  C   UNL     1       6.188  -5.495  24.738  0.00  0.00    +0.077 A 
ATOM     14  N   UNL     1       7.530  -3.123  22.196  0.00  0.00    -0.160 NA
ENDROOT
BRANCH   1  16
ATOM     15  C   UNL     1       6.344  -5.798  20.977  0.00  0.00    +0.029 C 
ATOM     16  C   UNL     1       5.794  -4.738  21.924  0.00  0.00    +0.141 C 
ENDBRANCH   1  16
BRANCH  12  17
ATOM     17  C   UNL     1       9.076  -1.248  22.164  0.00  0.00    +0.361 C 
ATOM     18  O   UNL     1       8.665  -0.102  22.215  0.00  0.00    -0.243 OA
BRANCH  17  19
ATOM     19  O   UNL     1      10.174  -1.600  21.474  0.00  0.00    -0.476 OA
ATOM     20  H   UNL     1      10.092  -2.449  20.976  0.00  0.00    +0.295 HD
ENDBRANCH  17  19
ENDBRANCH  12  17
TORSDOF 3
ENDMDL
MODEL 3
REMARK VINA RESULT:      -6.3      2.094      3.341
REMARK  Name = 
REMARK  4 active torsions:
REMARK  status: ('A' for Active; 'I' for Inactive)
REMARK    1  A    between atoms: C_1  and  C_2
REMARK    2  A    between atoms: C_2  and  N_3
REMARK    3  A    between atoms: C_5  and  C_6
REMARK    4  A    between atoms: C_6  and  O_7
REMARK                            x       y       z     vdW  Elec       q    Type
REMARK                         _______ _______ _______ _____ _____    ______ ____
ROOT
ATOM      1  N   UNL     1       8.704  -4.435  24.232  0.00  0.00    -0.263 N 
ATOM      2  C   UNL     1       8.816  -3.140  23.698  0.00  0.00    +0.075 A 
ATOM      3  C   UNL     1       7.890  -2.693  22.732  0.00  0.00    +0.053 A 
ATOM      4  C   UNL     1       7.908  -1.397  22.193  0.00  0.00    +0.063 A 
ATOM      5  C   UNL     1       8.880  -0.544  22.657  0.00  0.00    +0.167 A 
ATOM      6  O   UNL     1       9.037   0.759  22.310  0.00  0.00    -0.453 OA
ATOM      7  C   UNL     1      10.123   1.143  23.181  0.00  0.00    +0.466 C 
ATOM      8  O   UNL     1      10.685   0.032  23.909  0.00  0.00    -0.453 OA
ATOM      9  C   UNL     1       9.815  -0.957  23.572  0.00  0.00    +0.168 A 
ATOM     10  C   UNL     1       6.859  -3.640  22.318  0.00  0.00    +0.222 A 
ATOM     11  O   UNL     1       6.034  -3.403  21.443  0.00  0.00    -0.285 OA
ATOM     12  C   UNL     1       6.792  -4.960  23.020  0.00  0.00    +0.215 A 
ATOM     13  C   UNL     1       9.822  -2.238  24.087  0.00  0.00    +0.077 A 
ATOM     14  N   UNL     1       7.677  -5.281  23.919  0.00  0.00    -0.160 NA
ENDROOT
BRANCH   1  16
ATOM     15  C   UNL     1       8.623  -4.804  26.675  0.00  0.00    +0.029 C 
ATOM     16  C   UNL     1       9.481  -4.839  25.416  0.00  0.00    +0.141 C 
ENDBRANCH   1  16
BRANCH  12  17
ATOM     17  C   UNL     1       5.674  -5.973  22.728  0.00  0.00    +0.361 C 
ATOM     18  O   UNL     1       4.929  -6.384  23.600  0.00  0.00    -0.243 OA
BRANCH  17  19
ATOM     19  O   UNL     1       5.587  -6.369  21.447  0.00  0.00    -0.476 OA
ATOM     20  H   UNL     1       5.172  -5.709  20.840  0.00  0.00    +0.295 HD
ENDBRANCH  17  19
ENDBRANCH  12  17
TORSDOF 3
ENDMDL
MODEL 4
REMARK VINA RESULT:      -6.2      2.387      3.867
REMARK  Name = 
REMARK  4 active torsions:
REMARK  status: ('A' for Active; 'I' for Inactive)
REMARK    1  A    between atoms: C_1  and  C_2
REMARK    2  A    between atoms: C_2  and  N_3
REMARK    3  A    between atoms: C_5  and  C_6
REMARK    4  A    between atoms: C_6  and  O_7
REMARK                            x       y       z     vdW  Elec       q    Type
REMARK                         _______ _______ _______ _____ _____    ______ ____
ROOT
ATOM      1  N   UNL     1       6.987  -5.265  25.558  0.00  0.00    -0.263 N 
ATOM      2  C   UNL     1       7.526  -4.413  24.580  0.00  0.00    +0.075 A 
ATOM      3  C   UNL     1       6.945  -4.357  23.295  0.00  0.00    +0.053 A 
ATOM      4  C   UNL     1       7.398  -3.493  22.286  0.00  0.00    +0.063 A 
ATOM      5  C   UNL     1       8.450  -2.668  22.599  0.00  0.00    +0.167 A 
ATOM      6  O   UNL     1       8.999  -1.725  21.790  0.00  0.00    -0.453 OA
ATOM      7  C   UNL     1       9.963  -1.128  22.685  0.00  0.00    +0.466 C 
ATOM      8  O   UNL     1      10.073  -1.823  23.945  0.00  0.00    -0.453 OA
ATOM      9  C   UNL     1       9.057  -2.720  23.827  0.00  0.00    +0.168 A 
ATOM     10  C   UNL     1       5.803  -5.232  23.049  0.00  0.00    +0.222 A 
ATOM     11  O   UNL     1       5.248  -5.329  21.961  0.00  0.00    -0.285 OA
ATOM     12  C   UNL     1       5.268  -6.032  24.194  0.00  0.00    +0.215 A 
ATOM     13  C   UNL     1       8.638  -3.586  24.818  0.00  0.00    +0.077 A 
ATOM     14  N   UNL     1       5.854  -6.005  25.356  0.00  0.00    -0.160 NA
ENDROOT
BRANCH   1  16
ATOM     15  C   UNL     1       6.270  -5.591  27.902  0.00  0.00    +0.029 C 
ATOM     16  C   UNL     1       7.395  -5.159  26.970  0.00  0.00    +0.141 C 
ENDBRANCH   1  16
BRANCH  12  17
ATOM     17  C   UNL     1       4.003  -6.894  24.055  0.00  0.00    +0.361 C 
ATOM     18  O   UNL     1       3.786  -7.846  24.785  0.00  0.00    -0.243 OA
BRANCH  17  19
ATOM     19  O   UNL     1       3.167  -6.521  23.073  0.00  0.00    -0.476 OA
ATOM     20  H   UNL     1       3.303  -5.599  22.745  0.00  0.00    +0.295 HD
ENDBRANCH  17  19
ENDBRANCH  12  17
TORSDOF 3
ENDMDL
MODEL 5
REMARK VINA RESULT:      -6.2      2.661      6.501
REMARK  Name = 
REMARK  4 active torsions:
REMARK  status: ('A' for Active; 'I' for Inactive)
REMARK    1  A    between atoms: C_1  and  C_2
REMARK    2  A    between atoms: C_2  and  N_3
REMARK    3  A    between atoms: C_5  and  C_6
REMARK    4  A    between atoms: C_6  and  O_7
REMARK                            x       y       z     vdW  Elec       q    Type
REMARK                         _______ _______ _______ _____ _____    ______ ____
ROOT
ATOM      1  N   UNL     1       8.206   0.375  25.381  0.00  0.00    -0.263 N 
ATOM      2  C   UNL     1       8.505  -0.983  25.179  0.00  0.00    +0.075 A 
ATOM      3  C   UNL     1       9.371  -1.367  24.133  0.00  0.00    +0.053 A 
ATOM      4  C   UNL     1       9.753  -2.698  23.904  0.00  0.00    +0.063 A 
ATOM      5  C   UNL     1       9.254  -3.646  24.763  0.00  0.00    +0.167 A 
ATOM      6  O   UNL     1       9.542  -4.973  24.750  0.00  0.00    -0.453 OA
ATOM      7  C   UNL     1       8.825  -5.418  25.922  0.00  0.00    +0.466 C 
ATOM      8  O   UNL     1       8.008  -4.386  26.512  0.00  0.00    -0.453 OA
ATOM      9  C   UNL     1       8.384  -3.311  25.769  0.00  0.00    +0.168 A 
ATOM     10  C   UNL     1       9.898  -0.301  23.288  0.00  0.00    +0.222 A 
ATOM     11  O   UNL     1      10.606  -0.501  22.308  0.00  0.00    -0.285 OA
ATOM     12  C   UNL     1       9.575   1.114  23.654  0.00  0.00    +0.215 A 
ATOM     13  C   UNL     1       7.979  -2.008  25.986  0.00  0.00    +0.077 A 
ATOM     14  N   UNL     1       8.783   1.378  24.653  0.00  0.00    -0.160 NA
ENDROOT
BRANCH   1  16
ATOM     15  C   UNL     1       7.146   2.303  26.508  0.00  0.00    +0.029 C 
ATOM     16  C   UNL     1       7.526   0.831  26.606  0.00  0.00    +0.141 C 
ENDBRANCH   1  16
BRANCH  12  17
ATOM     17  C   UNL     1      10.176   2.303  22.888  0.00  0.00    +0.361 C 
ATOM     18  O   UNL     1      10.749   3.216  23.457  0.00  0.00    -0.243 OA
BRANCH  17  19
ATOM     19  O   UNL     1      10.017   2.258  21.555  0.00  0.00    -0.476 OA
ATOM     20  H   UNL     1       9.988   3.142  21.114  0.00  0.00    +0.295 HD
ENDBRANCH  17  19
ENDBRANCH  12  17
TORSDOF 3
ENDMDL
MODEL 6
REMARK VINA RESULT:      -6.1      2.565      3.686
REMARK  Name = 
REMARK  4 active torsions:
REMARK  status: ('A' for Active; 'I' for Inactive)
REMARK    1  A    between atoms: C_1  and  C_2
REMARK    2  A    between atoms: C_2  and  N_3
REMARK    3  A    between atoms: C_5  and  C_6
REMARK    4  A    between atoms: C_6  and  O_7
REMARK                            x       y       z     vdW  Elec       q    Type
REMARK                         _______ _______ _______ _____ _____    ______ ____
ROOT
ATOM      1  N   UNL     1       8.039  -1.337  25.988  0.00  0.00    -0.263 N 
ATOM      2  C   UNL     1       8.713  -0.354  25.243  0.00  0.00    +0.075 A 
ATOM      3  C   UNL     1       9.607  -0.734  24.220  0.00  0.00    +0.053 A 
ATOM      4  C   UNL     1      10.276   0.191  23.403  0.00  0.00    +0.063 A 
ATOM      5  C   UNL     1      10.017   1.521  23.628  0.00  0.00    +0.167 A 
ATOM      6  O   UNL     1      10.513   2.567  22.918  0.00  0.00    -0.453 OA
ATOM      7  C   UNL     1       9.816   3.670  23.537  0.00  0.00    +0.466 C 
ATOM      8  O   UNL     1       9.047   3.277  24.693  0.00  0.00    -0.453 OA
ATOM      9  C   UNL     1       9.178   1.925  24.635  0.00  0.00    +0.168 A 
ATOM     10  C   UNL     1       9.799  -2.165  24.010  0.00  0.00    +0.222 A 
ATOM     11  O   UNL     1      10.594  -2.630  23.201  0.00  0.00    -0.285 OA
ATOM     12  C   UNL     1       8.962  -3.114  24.809  0.00  0.00    +0.215 A 
ATOM     13  C   UNL     1       8.538   1.024  25.463  0.00  0.00    +0.077 A 
ATOM     14  N   UNL     1       8.143  -2.674  25.719  0.00  0.00    -0.160 NA
ENDROOT
BRANCH   1  16
ATOM     15  C   UNL     1       5.745  -1.941  26.686  0.00  0.00    +0.029 C 
ATOM     16  C   UNL     1       6.916  -0.984  26.874  0.00  0.00    +0.141 C 
ENDBRANCH   1  16
BRANCH  12  17
ATOM     17  C   UNL     1       9.018  -4.632  24.576  0.00  0.00    +0.361 C 
ATOM     18  O   UNL     1       8.072  -5.252  24.121  0.00  0.00    -0.243 OA
BRANCH  17  19
ATOM     19  O   UNL     1      10.179  -5.217  24.915  0.00  0.00    -0.476 OA
ATOM     20  H   UNL     1      10.585  -4.873  25.748  0.00  0.00    +0.295 HD
ENDBRANCH  17  19
ENDBRANCH  12  17
TORSDOF 3
ENDMDL
MODEL 7
REMARK VINA RESULT:      -6.1      3.168      6.212
REMARK  Name = 
REMARK  4 active torsions:
REMARK  status: ('A' for Active; 'I' for Inactive)
REMARK    1  A    between atoms: C_1  and  C_2
REMARK    2  A    between atoms: C_2  and  N_3
REMARK    3  A    between atoms: C_5  and  C_6
REMARK    4  A    between atoms: C_6  and  O_7
REMARK                            x       y       z     vdW  Elec       q    Type
REMARK                         _______ _______ _______ _____ _____    ______ ____
ROOT
ATOM      1  N   UNL     1       6.176  -5.519  23.678  0.00  0.00    -0.263 N 
ATOM      2  C   UNL     1       5.357  -5.846  24.771  0.00  0.00    +0.075 A 
ATOM      3  C   UNL     1       5.893  -5.857  26.076  0.00  0.00    +0.053 A 
ATOM      4  C   UNL     1       5.124  -6.125  27.219  0.00  0.00    +0.063 A 
ATOM      5  C   UNL     1       3.787  -6.372  27.026  0.00  0.00    +0.167 A 
ATOM      6  O   UNL     1       2.863  -6.596  27.996  0.00  0.00    -0.453 OA
ATOM      7  C   UNL     1       1.656  -6.678  27.207  0.00  0.00    +0.466 C 
ATOM      8  O   UNL     1       1.906  -6.656  25.786  0.00  0.00    -0.453 OA
ATOM      9  C   UNL     1       3.241  -6.401  25.768  0.00  0.00    +0.168 A 
ATOM     10  C   UNL     1       7.312  -5.542  26.209  0.00  0.00    +0.222 A 
ATOM     11  O   UNL     1       7.917  -5.579  27.274  0.00  0.00    -0.285 OA
ATOM     12  C   UNL     1       8.060  -5.128  24.981  0.00  0.00    +0.215 A 
ATOM     13  C   UNL     1       3.995  -6.167  24.635  0.00  0.00    +0.077 A 
ATOM     14  N   UNL     1       7.478  -5.124  23.817  0.00  0.00    -0.160 NA
ENDROOT
BRANCH   1  16
ATOM     15  C   UNL     1       6.480  -5.809  21.241  0.00  0.00    +0.029 C 
ATOM     16  C   UNL     1       5.600  -5.245  22.350  0.00  0.00    +0.141 C 
ENDBRANCH   1  16
BRANCH  12  17
ATOM     17  C   UNL     1       9.527  -4.672  25.045  0.00  0.00    +0.361 C 
ATOM     18  O   UNL     1       9.930  -3.701  24.429  0.00  0.00    -0.243 OA
BRANCH  17  19
ATOM     19  O   UNL     1      10.322  -5.425  25.823  0.00  0.00    -0.476 OA
ATOM     20  H   UNL     1      10.031  -6.364  25.922  0.00  0.00    +0.295 HD
ENDBRANCH  17  19
ENDBRANCH  12  17
TORSDOF 3
ENDMDL
MODEL 8
REMARK VINA RESULT:      -5.9      2.250      5.976
REMARK  Name = 
REMARK  4 active torsions:
REMARK  status: ('A' for Active; 'I' for Inactive)
REMARK    1  A    between atoms: C_1  and  C_2
REMARK    2  A    between atoms: C_2  and  N_3
REMARK    3  A    between atoms: C_5  and  C_6
REMARK    4  A    between atoms: C_6  and  O_7
REMARK                            x       y       z     vdW  Elec       q    Type
REMARK                         _______ _______ _______ _____ _____    ______ ____
ROOT
ATOM      1  N   UNL     1       6.878  -1.357  24.737  0.00  0.00    -0.263 N 
ATOM      2  C   UNL     1       7.009  -2.547  25.473  0.00  0.00    +0.075 A 
ATOM      3  C   UNL     1       8.166  -3.342  25.329  0.00  0.00    +0.053 A 
ATOM      4  C   UNL     1       8.388  -4.514  26.067  0.00  0.00    +0.063 A 
ATOM      5  C   UNL     1       7.420  -4.872  26.973  0.00  0.00    +0.167 A 
ATOM      6  O   UNL     1       7.465  -5.932  27.821  0.00  0.00    -0.453 OA
ATOM      7  C   UNL     1       6.250  -5.728  28.575  0.00  0.00    +0.466 C 
ATOM      8  O   UNL     1       5.439  -4.651  28.062  0.00  0.00    -0.453 OA
ATOM      9  C   UNL     1       6.269  -4.140  27.114  0.00  0.00    +0.168 A 
ATOM     10  C   UNL     1       9.172  -2.876  24.380  0.00  0.00    +0.222 A 
ATOM     11  O   UNL     1      10.191  -3.502  24.111  0.00  0.00    -0.285 OA
ATOM     12  C   UNL     1       8.958  -1.551  23.719  0.00  0.00    +0.215 A 
ATOM     13  C   UNL     1       6.028  -3.000  26.372  0.00  0.00    +0.077 A 
ATOM     14  N   UNL     1       7.868  -0.872  23.928  0.00  0.00    -0.160 NA
ENDROOT
BRANCH   1  16
ATOM     15  C   UNL     1       6.178   1.005  24.527  0.00  0.00    +0.029 C 
ATOM     16  C   UNL     1       5.820  -0.381  25.051  0.00  0.00    +0.141 C 
ENDBRANCH   1  16
BRANCH  12  17
ATOM     17  C   UNL     1      10.016  -0.932  22.791  0.00  0.00    +0.361 C 
ATOM     18  O   UNL     1      10.472   0.182  22.982  0.00  0.00    -0.243 OA
BRANCH  17  19
ATOM     19  O   UNL     1      10.390  -1.707  21.760  0.00  0.00    -0.476 OA
ATOM     20  H   UNL     1       9.687  -1.858  21.082  0.00  0.00    +0.295 HD
ENDBRANCH  17  19
ENDBRANCH  12  17
TORSDOF 3
ENDMDL
MODEL 9
REMARK VINA RESULT:      -5.9      2.324      3.157
REMARK  Name = 
REMARK  4 active torsions:
REMARK  status: ('A' for Active; 'I' for Inactive)
REMARK    1  A    between atoms: C_1  and  C_2
REMARK    2  A    between atoms: C_2  and  N_3
REMARK    3  A    between atoms: C_5  and  C_6
REMARK    4  A    between atoms: C_6  and  O_7
REMARK                            x       y       z     vdW  Elec       q    Type
REMARK                         _______ _______ _______ _____ _____    ______ ____
ROOT
ATOM      1  N   UNL     1       7.724  -1.552  26.305  0.00  0.00    -0.263 N 
ATOM      2  C   UNL     1       8.384  -0.896  25.253  0.00  0.00    +0.075 A 
ATOM      3  C   UNL     1       9.255  -1.616  24.407  0.00  0.00    +0.053 A 
ATOM      4  C   UNL     1       9.908  -1.039  23.308  0.00  0.00    +0.063 A 
ATOM      5  C   UNL     1       9.658   0.289  23.062  0.00  0.00    +0.167 A 
ATOM      6  O   UNL     1      10.141   1.019  22.024  0.00  0.00    -0.453 OA
ATOM      7  C   UNL     1       9.462   2.276  22.236  0.00  0.00    +0.466 C 
ATOM      8  O   UNL     1       8.717   2.316  23.470  0.00  0.00    -0.453 OA
ATOM      9  C   UNL     1       8.843   1.026  23.883  0.00  0.00    +0.168 A 
ATOM     10  C   UNL     1       9.437  -3.033  24.703  0.00  0.00    +0.222 A 
ATOM     11  O   UNL     1      10.213  -3.758  24.090  0.00  0.00    -0.285 OA
ATOM     12  C   UNL     1       8.615  -3.637  25.798  0.00  0.00    +0.215 A 
ATOM     13  C   UNL     1       8.218   0.475  24.984  0.00  0.00    +0.077 A 
ATOM     14  N   UNL     1       7.817  -2.900  26.514  0.00  0.00    -0.160 NA
ENDROOT
BRANCH   1  16
ATOM     15  C   UNL     1       5.410  -1.821  27.135  0.00  0.00    +0.029 C 
ATOM     16  C   UNL     1       6.622  -0.901  27.035  0.00  0.00    +0.141 C 
ENDBRANCH   1  16
BRANCH  12  17
ATOM     17  C   UNL     1       8.661  -5.143  26.105  0.00  0.00    +0.361 C 
ATOM     18  O   UNL     1       7.682  -5.753  26.497  0.00  0.00    -0.243 OA
BRANCH  17  19
ATOM     19  O   UNL     1       9.856  -5.725  25.912  0.00  0.00    -0.476 OA
ATOM     20  H   UNL     1      10.229  -5.608  25.005  0.00  0.00    +0.295 HD
ENDBRANCH  17  19
ENDBRANCH  12  17
TORSDOF 3
ENDMDL
