MODEL 1
REMARK VINA RESULT:      -6.5      0.000      0.000
REMARK  Name = 
REMARK  13 active torsions:
REMARK  status: ('A' for Active; 'I' for Inactive)
REMARK    1  A    between atoms: C_2  and  C_3
REMARK    2  A    between atoms: C_2  and  O_4
REMARK    3  A    between atoms: C_2  and  C_5
REMARK    4  A    between atoms: C_5  and  C_7
REMARK    5  A    between atoms: C_5  and  N_14
REMARK    6  A    between atoms: C_7  and  C_8
REMARK    7  A    between atoms: C_15  and  C_17
REMARK    8  A    between atoms: C_23  and  C_25
REMARK    9  A    between atoms: C_25  and  C_27
REMARK   10  A    between atoms: C_25  and  N_28
REMARK   11  A    between atoms: C_29  and  O_31
REMARK   12  A    between atoms: O_31  and  C_32
REMARK   13  A    between atoms: C_32  and  C_33
REMARK                            x       y       z     vdW  Elec       q    Type
REMARK                         _______ _______ _______ _____ _____    ______ ____
ROOT
ATOM      1  C   UNL     1       5.087  -3.523  25.678  0.00  0.00    +0.162 C 
ATOM      2  N   UNL     1       6.380  -4.208  25.800  0.00  0.00    -0.288 N 
ATOM      3  C   UNL     1       7.164  -4.764  24.801  0.00  0.00    +0.236 C 
ATOM      4  O   UNL     1       8.023  -5.599  25.106  0.00  0.00    -0.274 OA
ATOM      5  C   UNL     1       6.578  -4.662  27.173  0.00  0.00    +0.109 C 
ATOM      6  C   UNL     1       5.420  -4.071  27.967  0.00  0.00    +0.021 C 
ATOM      7  C   UNL     1       4.316  -3.988  26.920  0.00  0.00    +0.033 C 
ENDROOT
BRANCH   1  10
ATOM      8  N   UNL     1       6.417  -1.464  25.513  0.00  0.00    -0.308 N 
ATOM      9  H   UNL     1       7.186  -2.127  25.435  0.00  0.00    +0.149 HD
ATOM     10  C   UNL     1       5.174  -1.986  25.755  0.00  0.00    +0.234 C 
ATOM     11  O   UNL     1       4.170  -1.324  25.998  0.00  0.00    -0.274 OA
BRANCH   8  12
ATOM     12  C   UNL     1       6.818  -0.052  25.428  0.00  0.00    +0.105 C 
BRANCH  12  13
ATOM     13  C   UNL     1       7.513   0.386  26.749  0.00  0.00    +0.132 C 
ATOM     14  C   UNL     1       6.572   0.748  27.890  0.00  0.00    +0.039 C 
BRANCH  13  15
ATOM     15  O   UNL     1       8.356  -0.693  27.181  0.00  0.00    -0.390 OA
ATOM     16  H   UNL     1       9.267  -0.352  27.250  0.00  0.00    +0.210 HD
ENDBRANCH  13  15
ENDBRANCH  12  13
BRANCH  12  17
ATOM     17  C   UNL     1       5.759   0.967  24.933  0.00  0.00    +0.060 C 
BRANCH  17  18
ATOM     18  C   UNL     1       6.254   2.113  24.062  0.00  0.00    -0.046 A 
ATOM     19  C   UNL     1       6.382   2.014  22.672  0.00  0.00    +0.004 A 
ATOM     20  C   UNL     1       6.788   3.103  21.898  0.00  0.00    +0.000 A 
ATOM     21  C   UNL     1       7.101   4.312  22.510  0.00  0.00    +0.000 A 
ATOM     22  C   UNL     1       7.008   4.427  23.895  0.00  0.00    +0.000 A 
ATOM     23  C   UNL     1       6.596   3.335  24.664  0.00  0.00    +0.004 A 
ENDBRANCH  17  18
ENDBRANCH  12  17
ENDBRANCH   8  12
ENDBRANCH   1  10
BRANCH   3  24
ATOM     24  C   UNL     1       6.888  -4.421  23.310  0.00  0.00    +0.159 C 
ATOM     25  C   UNL     1       6.522  -5.694  22.533  0.00  0.00    +0.038 C 
BRANCH  24  26
ATOM     26  N   UNL     1       7.941  -3.639  22.664  0.00  0.00    -0.270 N 
ATOM     27  H   UNL     1       8.776  -4.101  22.325  0.00  0.00    +0.153 HD
ATOM     28  C   UNL     1       7.863  -2.315  22.342  0.00  0.00    +0.401 C 
ATOM     29  O   UNL     1       6.917  -1.578  22.550  0.00  0.00    -0.226 OA
BRANCH  28  30
ATOM     30  O   UNL     1       9.015  -1.937  21.742  0.00  0.00    -0.446 OA
BRANCH  30  31
ATOM     31  C   UNL     1      10.117  -1.628  22.606  0.00  0.00    +0.269 C 
BRANCH  31  32
ATOM     32  C   UNL     1      10.129  -0.153  22.920  0.00  0.00    -0.010 A 
ATOM     33  C   UNL     1      10.039   0.779  21.882  0.00  0.00    +0.007 A 
ATOM     34  C   UNL     1      10.092   2.151  22.149  0.00  0.00    +0.000 A 
ATOM     35  C   UNL     1      10.215   2.600  23.463  0.00  0.00    +0.000 A 
ATOM     36  C   UNL     1      10.290   1.680  24.506  0.00  0.00    +0.000 A 
ATOM     37  C   UNL     1      10.240   0.311  24.238  0.00  0.00    +0.007 A 
ENDBRANCH  31  32
ENDBRANCH  30  31
ENDBRANCH  28  30
ENDBRANCH  24  26
ENDBRANCH   3  24
TORSDOF 11
ENDMDL
MODEL 2
REMARK VINA RESULT:      -6.5      1.993      6.505
REMARK  Name = 
REMARK  13 active torsions:
REMARK  status: ('A' for Active; 'I' for Inactive)
REMARK    1  A    between atoms: C_2  and  C_3
REMARK    2  A    between atoms: C_2  and  O_4
REMARK    3  A    between atoms: C_2  and  C_5
REMARK    4  A    between atoms: C_5  and  C_7
REMARK    5  A    between atoms: C_5  and  N_14
REMARK    6  A    between atoms: C_7  and  C_8
REMARK    7  A    between atoms: C_15  and  C_17
REMARK    8  A    between atoms: C_23  and  C_25
REMARK    9  A    between atoms: C_25  and  C_27
REMARK   10  A    between atoms: C_25  and  N_28
REMARK   11  A    between atoms: C_29  and  O_31
REMARK   12  A    between atoms: O_31  and  C_32
REMARK   13  A    between atoms: C_32  and  C_33
REMARK                            x       y       z     vdW  Elec       q    Type
REMARK                         _______ _______ _______ _____ _____    ______ ____
ROOT
ATOM      1  C   UNL     1       6.894   0.987  24.771  0.00  0.00    +0.162 C 
ATOM      2  N   UNL     1       7.768   1.223  23.614  0.00  0.00    -0.288 N 
ATOM      3  C   UNL     1       9.141   1.056  23.517  0.00  0.00    +0.236 C 
ATOM      4  O   UNL     1       9.753   1.631  22.609  0.00  0.00    -0.274 OA
ATOM      5  C   UNL     1       7.104   2.104  22.658  0.00  0.00    +0.109 C 
ATOM      6  C   UNL     1       5.684   2.275  23.181  0.00  0.00    +0.021 C 
ATOM      7  C   UNL     1       5.871   2.127  24.686  0.00  0.00    +0.033 C 
ENDROOT
BRANCH   1  10
ATOM      8  N   UNL     1       5.436  -0.664  25.857  0.00  0.00    -0.308 N 
ATOM      9  H   UNL     1       5.626  -0.093  26.678  0.00  0.00    +0.149 HD
ATOM     10  C   UNL     1       6.100  -0.332  24.706  0.00  0.00    +0.234 C 
ATOM     11  O   UNL     1       6.080  -0.989  23.670  0.00  0.00    -0.274 OA
BRANCH   8  12
ATOM     12  C   UNL     1       4.531  -1.798  26.099  0.00  0.00    +0.105 C 
BRANCH  12  13
ATOM     13  C   UNL     1       3.527  -1.446  27.233  0.00  0.00    +0.132 C 
ATOM     14  C   UNL     1       3.843  -0.175  28.012  0.00  0.00    +0.039 C 
BRANCH  13  15
ATOM     15  O   UNL     1       2.226  -1.302  26.641  0.00  0.00    -0.390 OA
ATOM     16  H   UNL     1       1.673  -0.785  27.256  0.00  0.00    +0.210 HD
ENDBRANCH  13  15
ENDBRANCH  12  13
BRANCH  12  17
ATOM     17  C   UNL     1       5.167  -3.202  26.267  0.00  0.00    +0.060 C 
BRANCH  17  18
ATOM     18  C   UNL     1       4.623  -4.320  25.389  0.00  0.00    -0.046 A 
ATOM     19  C   UNL     1       3.797  -4.088  24.284  0.00  0.00    +0.004 A 
ATOM     20  C   UNL     1       3.360  -5.134  23.468  0.00  0.00    +0.000 A 
ATOM     21  C   UNL     1       3.722  -6.443  23.764  0.00  0.00    +0.000 A 
ATOM     22  C   UNL     1       4.520  -6.702  24.875  0.00  0.00    +0.000 A 
ATOM     23  C   UNL     1       4.960  -5.651  25.685  0.00  0.00    +0.004 A 
ENDBRANCH  17  18
ENDBRANCH  12  17
ENDBRANCH   8  12
ENDBRANCH   1  10
BRANCH   3  24
ATOM     24  C   UNL     1       9.908   0.248  24.601  0.00  0.00    +0.159 C 
ATOM     25  C   UNL     1      11.392   0.641  24.603  0.00  0.00    +0.038 C 
BRANCH  24  26
ATOM     26  N   UNL     1       9.699  -1.197  24.539  0.00  0.00    -0.270 N 
ATOM     27  H   UNL     1       9.174  -1.662  25.270  0.00  0.00    +0.153 HD
ATOM     28  C   UNL     1      10.041  -2.006  23.494  0.00  0.00    +0.401 C 
ATOM     29  O   UNL     1      10.582  -1.657  22.461  0.00  0.00    -0.226 OA
BRANCH  28  30
ATOM     30  O   UNL     1       9.680  -3.278  23.781  0.00  0.00    -0.446 OA
BRANCH  30  31
ATOM     31  C   UNL     1       8.313  -3.485  24.164  0.00  0.00    +0.269 C 
BRANCH  31  32
ATOM     32  C   UNL     1       7.586  -4.249  23.087  0.00  0.00    -0.010 A 
ATOM     33  C   UNL     1       6.827  -3.558  22.138  0.00  0.00    +0.007 A 
ATOM     34  C   UNL     1       6.109  -4.252  21.158  0.00  0.00    +0.000 A 
ATOM     35  C   UNL     1       6.165  -5.644  21.108  0.00  0.00    +0.000 A 
ATOM     36  C   UNL     1       6.931  -6.341  22.038  0.00  0.00    +0.000 A 
ATOM     37  C   UNL     1       7.644  -5.649  23.019  0.00  0.00    +0.007 A 
ENDBRANCH  31  32
ENDBRANCH  30  31
ENDBRANCH  28  30
ENDBRANCH  24  26
ENDBRANCH   3  24
TORSDOF 11
ENDMDL
MODEL 3
REMARK VINA RESULT:      -6.5      1.469      1.780
REMARK  Name = 
REMARK  13 active torsions:
REMARK  status: ('A' for Active; 'I' for Inactive)
REMARK    1  A    between atoms: C_2  and  C_3
REMARK    2  A    between atoms: C_2  and  O_4
REMARK    3  A    between atoms: C_2  and  C_5
REMARK    4  A    between atoms: C_5  and  C_7
REMARK    5  A    between atoms: C_5  and  N_14
REMARK    6  A    between atoms: C_7  and  C_8
REMARK    7  A    between atoms: C_15  and  C_17
REMARK    8  A    between atoms: C_23  and  C_25
REMARK    9  A    between atoms: C_25  and  C_27
REMARK   10  A    between atoms: C_25  and  N_28
REMARK   11  A    between atoms: C_29  and  O_31
REMARK   12  A    between atoms: O_31  and  C_32
REMARK   13  A    between atoms: C_32  and  C_33
REMARK                            x       y       z     vdW  Elec       q    Type
REMARK                         _______ _______ _______ _____ _____    ______ ____
ROOT
ATOM      1  C   UNL     1       4.730  -3.357  24.966  0.00  0.00    +0.162 C 
ATOM      2  N   UNL     1       4.958  -4.799  24.803  0.00  0.00    -0.288 N 
ATOM      3  C   UNL     1       5.435  -5.480  23.694  0.00  0.00    +0.236 C 
ATOM      4  O   UNL     1       5.229  -6.696  23.602  0.00  0.00    -0.274 OA
ATOM      5  C   UNL     1       4.197  -5.541  25.802  0.00  0.00    +0.109 C 
ATOM      6  C   UNL     1       3.609  -4.487  26.730  0.00  0.00    +0.021 C 
ATOM      7  C   UNL     1       3.446  -3.289  25.803  0.00  0.00    +0.033 C 
ENDROOT
BRANCH   1  10
ATOM      8  N   UNL     1       5.505  -1.357  26.164  0.00  0.00    -0.308 N 
ATOM      9  H   UNL     1       4.642  -0.965  25.791  0.00  0.00    +0.149 HD
ATOM     10  C   UNL     1       5.826  -2.628  25.767  0.00  0.00    +0.234 C 
ATOM     11  O   UNL     1       6.883  -3.198  26.023  0.00  0.00    -0.274 OA
BRANCH   8  12
ATOM     12  C   UNL     1       6.282  -0.434  27.004  0.00  0.00    +0.105 C 
BRANCH  12  13
ATOM     13  C   UNL     1       5.331   0.577  27.705  0.00  0.00    +0.132 C 
ATOM     14  C   UNL     1       4.023   0.854  26.977  0.00  0.00    +0.039 C 
BRANCH  13  15
ATOM     15  O   UNL     1       5.023   0.061  29.010  0.00  0.00    -0.390 OA
ATOM     16  H   UNL     1       4.120  -0.306  28.981  0.00  0.00    +0.210 HD
ENDBRANCH  13  15
ENDBRANCH  12  13
BRANCH  12  17
ATOM     17  C   UNL     1       7.525   0.241  26.370  0.00  0.00    +0.060 C 
BRANCH  17  18
ATOM     18  C   UNL     1       7.271   1.304  25.310  0.00  0.00    -0.046 A 
ATOM     19  C   UNL     1       6.759   1.010  24.042  0.00  0.00    +0.004 A 
ATOM     20  C   UNL     1       6.488   2.017  23.114  0.00  0.00    +0.000 A 
ATOM     21  C   UNL     1       6.755   3.344  23.431  0.00  0.00    +0.000 A 
ATOM     22  C   UNL     1       7.291   3.660  24.676  0.00  0.00    +0.000 A 
ATOM     23  C   UNL     1       7.554   2.648  25.604  0.00  0.00    +0.004 A 
ENDBRANCH  17  18
ENDBRANCH  12  17
ENDBRANCH   8  12
ENDBRANCH   1  10
BRANCH   3  24
ATOM     24  C   UNL     1       6.121  -4.704  22.534  0.00  0.00    +0.159 C 
ATOM     25  C   UNL     1       6.278  -5.614  21.308  0.00  0.00    +0.038 C 
BRANCH  24  26
ATOM     26  N   UNL     1       7.362  -4.029  22.909  0.00  0.00    -0.270 N 
ATOM     27  H   UNL     1       8.146  -4.570  23.253  0.00  0.00    +0.153 HD
ATOM     28  C   UNL     1       7.633  -2.705  22.721  0.00  0.00    +0.401 C 
ATOM     29  O   UNL     1       6.888  -1.880  22.226  0.00  0.00    -0.226 OA
BRANCH  28  30
ATOM     30  O   UNL     1       8.882  -2.440  23.172  0.00  0.00    -0.446 OA
BRANCH  30  31
ATOM     31  C   UNL     1       9.771  -1.789  22.254  0.00  0.00    +0.269 C 
BRANCH  31  32
ATOM     32  C   UNL     1      10.023  -0.371  22.699  0.00  0.00    -0.010 A 
ATOM     33  C   UNL     1       9.774   0.688  21.820  0.00  0.00    +0.007 A 
ATOM     34  C   UNL     1      10.043   2.007  22.199  0.00  0.00    +0.000 A 
ATOM     35  C   UNL     1      10.544   2.278  23.471  0.00  0.00    +0.000 A 
ATOM     36  C   UNL     1      10.779   1.233  24.360  0.00  0.00    +0.000 A 
ATOM     37  C   UNL     1      10.514  -0.084  23.981  0.00  0.00    +0.007 A 
ENDBRANCH  31  32
ENDBRANCH  30  31
ENDBRANCH  28  30
ENDBRANCH  24  26
ENDBRANCH   3  24
TORSDOF 11
ENDMDL
MODEL 4
REMARK VINA RESULT:      -6.5      1.870      4.843
REMARK  Name = 
REMARK  13 active torsions:
REMARK  status: ('A' for Active; 'I' for Inactive)
REMARK    1  A    between atoms: C_2  and  C_3
REMARK    2  A    between atoms: C_2  and  O_4
REMARK    3  A    between atoms: C_2  and  C_5
REMARK    4  A    between atoms: C_5  and  C_7
REMARK    5  A    between atoms: C_5  and  N_14
REMARK    6  A    between atoms: C_7  and  C_8
REMARK    7  A    between atoms: C_15  and  C_17
REMARK    8  A    between atoms: C_23  and  C_25
REMARK    9  A    between atoms: C_25  and  C_27
REMARK   10  A    between atoms: C_25  and  N_28
REMARK   11  A    between atoms: C_29  and  O_31
REMARK   12  A    between atoms: O_31  and  C_32
REMARK   13  A    between atoms: C_32  and  C_33
REMARK                            x       y       z     vdW  Elec       q    Type
REMARK                         _______ _______ _______ _____ _____    ______ ____
ROOT
ATOM      1  C   UNL     1       6.949  -5.122  23.400  0.00  0.00    +0.162 C 
ATOM      2  N   UNL     1       5.649  -5.805  23.392  0.00  0.00    -0.288 N 
ATOM      3  C   UNL     1       4.975  -6.397  24.449  0.00  0.00    +0.236 C 
ATOM      4  O   UNL     1       4.087  -7.223  24.207  0.00  0.00    -0.274 OA
ATOM      5  C   UNL     1       5.305  -6.210  22.032  0.00  0.00    +0.109 C 
ATOM      6  C   UNL     1       6.373  -5.589  21.141  0.00  0.00    +0.021 C 
ATOM      7  C   UNL     1       7.583  -5.541  22.066  0.00  0.00    +0.033 C 
ENDROOT
BRANCH   1  10
ATOM      8  N   UNL     1       8.013  -2.938  23.036  0.00  0.00    -0.308 N 
ATOM      9  H   UNL     1       8.849  -3.512  22.944  0.00  0.00    +0.149 HD
ATOM     10  C   UNL     1       6.858  -3.584  23.387  0.00  0.00    +0.234 C 
ATOM     11  O   UNL     1       5.797  -3.028  23.659  0.00  0.00    -0.274 OA
BRANCH   8  12
ATOM     12  C   UNL     1       8.238  -1.497  22.847  0.00  0.00    +0.105 C 
BRANCH  12  13
ATOM     13  C   UNL     1       9.189  -1.260  21.640  0.00  0.00    +0.132 C 
ATOM     14  C   UNL     1       9.357   0.194  21.218  0.00  0.00    +0.039 C 
BRANCH  13  15
ATOM     15  O   UNL     1      10.481  -1.783  21.987  0.00  0.00    -0.390 OA
ATOM     16  H   UNL     1      10.486  -2.734  21.775  0.00  0.00    +0.210 HD
ENDBRANCH  13  15
ENDBRANCH  12  13
BRANCH  12  17
ATOM     17  C   UNL     1       8.621  -0.660  24.094  0.00  0.00    +0.060 C 
BRANCH  17  18
ATOM     18  C   UNL     1       8.007   0.728  24.214  0.00  0.00    -0.046 A 
ATOM     19  C   UNL     1       6.734   1.043  23.727  0.00  0.00    +0.004 A 
ATOM     20  C   UNL     1       6.181   2.313  23.902  0.00  0.00    +0.000 A 
ATOM     21  C   UNL     1       6.910   3.305  24.547  0.00  0.00    +0.000 A 
ATOM     22  C   UNL     1       8.190   3.025  25.015  0.00  0.00    +0.000 A 
ATOM     23  C   UNL     1       8.737   1.749  24.843  0.00  0.00    +0.004 A 
ENDBRANCH  17  18
ENDBRANCH  12  17
ENDBRANCH   8  12
ENDBRANCH   1  10
BRANCH   3  24
ATOM     24  C   UNL     1       5.410  -6.108  25.913  0.00  0.00    +0.159 C 
ATOM     25  C   UNL     1       4.654  -7.029  26.881  0.00  0.00    +0.038 C 
BRANCH  24  26
ATOM     26  N   UNL     1       5.346  -4.699  26.295  0.00  0.00    -0.270 N 
ATOM     27  H   UNL     1       4.523  -4.152  26.071  0.00  0.00    +0.153 HD
ATOM     28  C   UNL     1       6.263  -4.042  27.065  0.00  0.00    +0.401 C 
ATOM     29  O   UNL     1       7.277  -4.519  27.542  0.00  0.00    -0.226 OA
BRANCH  28  30
ATOM     30  O   UNL     1       5.867  -2.758  27.226  0.00  0.00    -0.446 OA
BRANCH  30  31
ATOM     31  C   UNL     1       6.797  -1.745  26.818  0.00  0.00    +0.269 C 
BRANCH  31  32
ATOM     32  C   UNL     1       6.227  -0.378  27.099  0.00  0.00    -0.010 A 
ATOM     33  C   UNL     1       6.988   0.561  27.802  0.00  0.00    +0.007 A 
ATOM     34  C   UNL     1       6.460   1.819  28.111  0.00  0.00    +0.000 A 
ATOM     35  C   UNL     1       5.171   2.154  27.697  0.00  0.00    +0.000 A 
ATOM     36  C   UNL     1       4.411   1.233  26.982  0.00  0.00    +0.000 A 
ATOM     37  C   UNL     1       4.937  -0.024  26.677  0.00  0.00    +0.007 A 
ENDBRANCH  31  32
ENDBRANCH  30  31
ENDBRANCH  28  30
ENDBRANCH  24  26
ENDBRANCH   3  24
TORSDOF 11
ENDMDL
MODEL 5
REMARK VINA RESULT:      -6.4      1.646      4.376
REMARK  Name = 
REMARK  13 active torsions:
REMARK  status: ('A' for Active; 'I' for Inactive)
REMARK    1  A    between atoms: C_2  and  C_3
REMARK    2  A    between atoms: C_2  and  O_4
REMARK    3  A    between atoms: C_2  and  C_5
REMARK    4  A    between atoms: C_5  and  C_7
REMARK    5  A    between atoms: C_5  and  N_14
REMARK    6  A    between atoms: C_7  and  C_8
REMARK    7  A    between atoms: C_15  and  C_17
REMARK    8  A    between atoms: C_23  and  C_25
REMARK    9  A    between atoms: C_25  and  C_27
REMARK   10  A    between atoms: C_25  and  N_28
REMARK   11  A    between atoms: C_29  and  O_31
REMARK   12  A    between atoms: O_31  and  C_32
REMARK   13  A    between atoms: C_32  and  C_33
REMARK                            x       y       z     vdW  Elec       q    Type
REMARK                         _______ _______ _______ _____ _____    ______ ____
ROOT
ATOM      1  C   UNL     1       7.353  -4.612  23.155  0.00  0.00    +0.162 C 
ATOM      2  N   UNL     1       6.220  -5.249  23.840  0.00  0.00    -0.288 N 
ATOM      3  C   UNL     1       6.032  -5.449  25.198  0.00  0.00    +0.236 C 
ATOM      4  O   UNL     1       5.218  -6.302  25.572  0.00  0.00    -0.274 OA
ATOM      5  C   UNL     1       5.473  -6.081  22.902  0.00  0.00    +0.109 C 
ATOM      6  C   UNL     1       6.083  -5.801  21.535  0.00  0.00    +0.021 C 
ATOM      7  C   UNL     1       7.525  -5.456  21.885  0.00  0.00    +0.033 C 
ENDROOT
BRANCH   1  10
ATOM      8  N   UNL     1       8.057  -2.262  23.033  0.00  0.00    -0.308 N 
ATOM      9  H   UNL     1       8.792  -2.590  23.656  0.00  0.00    +0.149 HD
ATOM     10  C   UNL     1       7.084  -3.166  22.696  0.00  0.00    +0.234 C 
ATOM     11  O   UNL     1       6.068  -2.900  22.061  0.00  0.00    -0.274 OA
BRANCH   8  12
ATOM     12  C   UNL     1       8.147  -0.837  22.678  0.00  0.00    +0.105 C 
BRANCH  12  13
ATOM     13  C   UNL     1       9.595  -0.492  22.226  0.00  0.00    +0.132 C 
ATOM     14  C   UNL     1      10.613  -0.352  23.351  0.00  0.00    +0.039 C 
BRANCH  13  15
ATOM     15  O   UNL     1      10.040  -1.531  21.341  0.00  0.00    -0.390 OA
ATOM     16  H   UNL     1      10.857  -1.913  21.712  0.00  0.00    +0.210 HD
ENDBRANCH  13  15
ENDBRANCH  12  13
BRANCH  12  17
ATOM     17  C   UNL     1       7.564   0.191  23.680  0.00  0.00    +0.060 C 
BRANCH  17  18
ATOM     18  C   UNL     1       7.448   1.633  23.206  0.00  0.00    -0.046 A 
ATOM     19  C   UNL     1       6.347   2.114  22.489  0.00  0.00    +0.004 A 
ATOM     20  C   UNL     1       6.249   3.456  22.117  0.00  0.00    +0.000 A 
ATOM     21  C   UNL     1       7.274   4.341  22.433  0.00  0.00    +0.000 A 
ATOM     22  C   UNL     1       8.393   3.880  23.121  0.00  0.00    +0.000 A 
ATOM     23  C   UNL     1       8.483   2.537  23.498  0.00  0.00    +0.004 A 
ENDBRANCH  17  18
ENDBRANCH  12  17
ENDBRANCH   8  12
ENDBRANCH   1  10
BRANCH   3  24
ATOM     24  C   UNL     1       6.913  -4.691  26.231  0.00  0.00    +0.159 C 
ATOM     25  C   UNL     1       7.153  -5.568  27.467  0.00  0.00    +0.038 C 
BRANCH  24  26
ATOM     26  N   UNL     1       6.436  -3.350  26.563  0.00  0.00    -0.270 N 
ATOM     27  H   UNL     1       5.507  -3.227  26.949  0.00  0.00    +0.153 HD
ATOM     28  C   UNL     1       7.183  -2.209  26.526  0.00  0.00    +0.401 C 
ATOM     29  O   UNL     1       8.354  -2.125  26.201  0.00  0.00    -0.226 OA
BRANCH  28  30
ATOM     30  O   UNL     1       6.416  -1.164  26.915  0.00  0.00    -0.446 OA
BRANCH  30  31
ATOM     31  C   UNL     1       7.109  -0.005  27.399  0.00  0.00    +0.269 C 
BRANCH  31  32
ATOM     32  C   UNL     1       6.458   1.245  26.866  0.00  0.00    -0.010 A 
ATOM     33  C   UNL     1       5.184   1.176  26.294  0.00  0.00    +0.007 A 
ATOM     34  C   UNL     1       4.582   2.317  25.754  0.00  0.00    +0.000 A 
ATOM     35  C   UNL     1       5.244   3.543  25.804  0.00  0.00    +0.000 A 
ATOM     36  C   UNL     1       6.505   3.627  26.386  0.00  0.00    +0.000 A 
ATOM     37  C   UNL     1       7.108   2.487  26.921  0.00  0.00    +0.007 A 
ENDBRANCH  31  32
ENDBRANCH  30  31
ENDBRANCH  28  30
ENDBRANCH  24  26
ENDBRANCH   3  24
TORSDOF 11
ENDMDL
MODEL 6
REMARK VINA RESULT:      -6.3      2.100      7.319
REMARK  Name = 
REMARK  13 active torsions:
REMARK  status: ('A' for Active; 'I' for Inactive)
REMARK    1  A    between atoms: C_2  and  C_3
REMARK    2  A    between atoms: C_2  and  O_4
REMARK    3  A    between atoms: C_2  and  C_5
REMARK    4  A    between atoms: C_5  and  C_7
REMARK    5  A    between atoms: C_5  and  N_14
REMARK    6  A    between atoms: C_7  and  C_8
REMARK    7  A    between atoms: C_15  and  C_17
REMARK    8  A    between atoms: C_23  and  C_25
REMARK    9  A    between atoms: C_25  and  C_27
REMARK   10  A    between atoms: C_25  and  N_28
REMARK   11  A    between atoms: C_29  and  O_31
REMARK   12  A    between atoms: O_31  and  C_32
REMARK   13  A    between atoms: C_32  and  C_33
REMARK                            x       y       z     vdW  Elec       q    Type
REMARK                         _______ _______ _______ _____ _____    ______ ____
ROOT
ATOM      1  C   UNL     1       7.534   1.711  23.870  0.00  0.00    +0.162 C 
ATOM      2  N   UNL     1       8.119   2.678  24.808  0.00  0.00    -0.288 N 
ATOM      3  C   UNL     1       7.527   3.289  25.903  0.00  0.00    +0.236 C 
ATOM      4  O   UNL     1       8.029   4.323  26.357  0.00  0.00    -0.274 OA
ATOM      5  C   UNL     1       9.295   3.304  24.213  0.00  0.00    +0.109 C 
ATOM      6  C   UNL     1       9.539   2.553  22.911  0.00  0.00    +0.021 C 
ATOM      7  C   UNL     1       8.134   2.117  22.517  0.00  0.00    +0.033 C 
ENDROOT
BRANCH   1  10
ATOM      8  N   UNL     1       7.591  -0.635  23.142  0.00  0.00    -0.308 N 
ATOM      9  H   UNL     1       6.978  -0.282  22.411  0.00  0.00    +0.149 HD
ATOM     10  C   UNL     1       7.953   0.250  24.124  0.00  0.00    +0.234 C 
ATOM     11  O   UNL     1       8.581  -0.044  25.137  0.00  0.00    -0.274 OA
BRANCH   8  12
ATOM     12  C   UNL     1       7.906  -2.067  23.037  0.00  0.00    +0.105 C 
BRANCH  12  13
ATOM     13  C   UNL     1       9.385  -2.256  22.593  0.00  0.00    +0.132 C 
ATOM     14  C   UNL     1       9.974  -1.110  21.782  0.00  0.00    +0.039 C 
BRANCH  13  15
ATOM     15  O   UNL     1      10.181  -2.430  23.776  0.00  0.00    -0.390 OA
ATOM     16  H   UNL     1       9.789  -3.155  24.297  0.00  0.00    +0.210 HD
ENDBRANCH  13  15
ENDBRANCH  12  13
BRANCH  12  17
ATOM     17  C   UNL     1       6.918  -2.964  22.249  0.00  0.00    +0.060 C 
BRANCH  17  18
ATOM     18  C   UNL     1       5.964  -3.828  23.063  0.00  0.00    -0.046 A 
ATOM     19  C   UNL     1       4.803  -3.326  23.661  0.00  0.00    +0.004 A 
ATOM     20  C   UNL     1       3.923  -4.159  24.355  0.00  0.00    +0.000 A 
ATOM     21  C   UNL     1       4.207  -5.513  24.488  0.00  0.00    +0.000 A 
ATOM     22  C   UNL     1       5.371  -6.031  23.926  0.00  0.00    +0.000 A 
ATOM     23  C   UNL     1       6.245  -5.194  23.226  0.00  0.00    +0.004 A 
ENDBRANCH  17  18
ENDBRANCH  12  17
ENDBRANCH   8  12
ENDBRANCH   1  10
BRANCH   3  24
ATOM     24  C   UNL     1       6.190   2.741  26.476  0.00  0.00    +0.159 C 
ATOM     25  C   UNL     1       5.554   3.774  27.417  0.00  0.00    +0.038 C 
BRANCH  24  26
ATOM     26  N   UNL     1       6.287   1.409  27.069  0.00  0.00    -0.270 N 
ATOM     27  H   UNL     1       6.915   1.249  27.848  0.00  0.00    +0.153 HD
ATOM     28  C   UNL     1       5.497   0.341  26.756  0.00  0.00    +0.401 C 
ATOM     29  O   UNL     1       4.602   0.324  25.931  0.00  0.00    -0.226 OA
BRANCH  28  30
ATOM     30  O   UNL     1       5.862  -0.718  27.517  0.00  0.00    -0.446 OA
BRANCH  30  31
ATOM     31  C   UNL     1       5.102  -1.922  27.346  0.00  0.00    +0.269 C 
BRANCH  31  32
ATOM     32  C   UNL     1       6.030  -3.097  27.167  0.00  0.00    -0.010 A 
ATOM     33  C   UNL     1       7.230  -2.934  26.469  0.00  0.00    +0.007 A 
ATOM     34  C   UNL     1       8.083  -4.021  26.255  0.00  0.00    +0.000 A 
ATOM     35  C   UNL     1       7.750  -5.278  26.758  0.00  0.00    +0.000 A 
ATOM     36  C   UNL     1       6.565  -5.448  27.469  0.00  0.00    +0.000 A 
ATOM     37  C   UNL     1       5.712  -4.363  27.679  0.00  0.00    +0.007 A 
ENDBRANCH  31  32
ENDBRANCH  30  31
ENDBRANCH  28  30
ENDBRANCH  24  26
ENDBRANCH   3  24
TORSDOF 11
ENDMDL
MODEL 7
REMARK VINA RESULT:      -6.3      2.149      6.594
REMARK  Name = 
REMARK  13 active torsions:
REMARK  status: ('A' for Active; 'I' for Inactive)
REMARK    1  A    between atoms: C_2  and  C_3
REMARK    2  A    between atoms: C_2  and  O_4
REMARK    3  A    between atoms: C_2  and  C_5
REMARK    4  A    between atoms: C_5  and  C_7
REMARK    5  A    between atoms: C_5  and  N_14
REMARK    6  A    between atoms: C_7  and  C_8
REMARK    7  A    between atoms: C_15  and  C_17
REMARK    8  A    between atoms: C_23  and  C_25
REMARK    9  A    between atoms: C_25  and  C_27
REMARK   10  A    between atoms: C_25  and  N_28
REMARK   11  A    between atoms: C_29  and  O_31
REMARK   12  A    between atoms: O_31  and  C_32
REMARK   13  A    between atoms: C_32  and  C_33
REMARK                            x       y       z     vdW  Elec       q    Type
REMARK                         _______ _______ _______ _____ _____    ______ ____
ROOT
ATOM      1  C   UNL     1       7.319   0.926  26.630  0.00  0.00    +0.162 C 
ATOM      2  N   UNL     1       7.490   2.205  25.929  0.00  0.00    -0.288 N 
ATOM      3  C   UNL     1       8.472   2.571  25.022  0.00  0.00    +0.236 C 
ATOM      4  O   UNL     1       8.675   3.772  24.809  0.00  0.00    -0.274 OA
ATOM      5  C   UNL     1       6.758   3.258  26.626  0.00  0.00    +0.109 C 
ATOM      6  C   UNL     1       5.960   2.548  27.711  0.00  0.00    +0.021 C 
ATOM      7  C   UNL     1       6.837   1.343  28.026  0.00  0.00    +0.033 C 
ENDROOT
BRANCH   1  10
ATOM      8  N   UNL     1       5.985  -1.134  26.735  0.00  0.00    -0.308 N 
ATOM      9  H   UNL     1       6.622  -1.348  27.499  0.00  0.00    +0.149 HD
ATOM     10  C   UNL     1       6.227   0.017  26.033  0.00  0.00    +0.234 C 
ATOM     11  O   UNL     1       5.634   0.356  25.013  0.00  0.00    -0.274 OA
BRANCH   8  12
ATOM     12  C   UNL     1       4.963  -2.162  26.486  0.00  0.00    +0.105 C 
BRANCH  12  13
ATOM     13  C   UNL     1       3.707  -1.888  27.363  0.00  0.00    +0.132 C 
ATOM     14  C   UNL     1       3.979  -1.189  28.689  0.00  0.00    +0.039 C 
BRANCH  13  15
ATOM     15  O   UNL     1       2.805  -1.073  26.598  0.00  0.00    -0.390 OA
ATOM     16  H   UNL     1       2.043  -1.627  26.346  0.00  0.00    +0.210 HD
ENDBRANCH  13  15
ENDBRANCH  12  13
BRANCH  12  17
ATOM     17  C   UNL     1       5.412  -3.645  26.519  0.00  0.00    +0.060 C 
BRANCH  17  18
ATOM     18  C   UNL     1       4.795  -4.580  25.488  0.00  0.00    -0.046 A 
ATOM     19  C   UNL     1       5.063  -5.952  25.445  0.00  0.00    +0.004 A 
ATOM     20  C   UNL     1       4.437  -6.789  24.519  0.00  0.00    +0.000 A 
ATOM     21  C   UNL     1       3.546  -6.257  23.595  0.00  0.00    +0.000 A 
ATOM     22  C   UNL     1       3.283  -4.890  23.599  0.00  0.00    +0.000 A 
ATOM     23  C   UNL     1       3.908  -4.058  24.532  0.00  0.00    +0.004 A 
ENDBRANCH  17  18
ENDBRANCH  12  17
ENDBRANCH   8  12
ENDBRANCH   1  10
BRANCH   3  24
ATOM     24  C   UNL     1       9.377   1.488  24.369  0.00  0.00    +0.159 C 
ATOM     25  C   UNL     1      10.589   2.146  23.695  0.00  0.00    +0.038 C 
BRANCH  24  26
ATOM     26  N   UNL     1       8.669   0.557  23.493  0.00  0.00    -0.270 N 
ATOM     27  H   UNL     1       7.952   0.902  22.865  0.00  0.00    +0.153 HD
ATOM     28  C   UNL     1       8.967  -0.765  23.330  0.00  0.00    +0.401 C 
ATOM     29  O   UNL     1       9.856  -1.377  23.894  0.00  0.00    -0.226 OA
BRANCH  28  30
ATOM     30  O   UNL     1       8.114  -1.304  22.428  0.00  0.00    -0.446 OA
BRANCH  30  31
ATOM     31  C   UNL     1       6.936  -1.929  22.954  0.00  0.00    +0.269 C 
BRANCH  31  32
ATOM     32  C   UNL     1       6.924  -3.393  22.596  0.00  0.00    -0.010 A 
ATOM     33  C   UNL     1       7.706  -4.293  23.325  0.00  0.00    +0.007 A 
ATOM     34  C   UNL     1       7.742  -5.648  22.980  0.00  0.00    +0.000 A 
ATOM     35  C   UNL     1       6.975  -6.116  21.914  0.00  0.00    +0.000 A 
ATOM     36  C   UNL     1       6.180  -5.231  21.192  0.00  0.00    +0.000 A 
ATOM     37  C   UNL     1       6.147  -3.878  21.534  0.00  0.00    +0.007 A 
ENDBRANCH  31  32
ENDBRANCH  30  31
ENDBRANCH  28  30
ENDBRANCH  24  26
ENDBRANCH   3  24
TORSDOF 11
ENDMDL
MODEL 8
REMARK VINA RESULT:      -6.2      1.497      4.774
REMARK  Name = 
REMARK  13 active torsions:
REMARK  status: ('A' for Active; 'I' for Inactive)
REMARK    1  A    between atoms: C_2  and  C_3
REMARK    2  A    between atoms: C_2  and  O_4
REMARK    3  A    between atoms: C_2  and  C_5
REMARK    4  A    between atoms: C_5  and  C_7
REMARK    5  A    between atoms: C_5  and  N_14
REMARK    6  A    between atoms: C_7  and  C_8
REMARK    7  A    between atoms: C_15  and  C_17
REMARK    8  A    between atoms: C_23  and  C_25
REMARK    9  A    between atoms: C_25  and  C_27
REMARK   10  A    between atoms: C_25  and  N_28
REMARK   11  A    between atoms: C_29  and  O_31
REMARK   12  A    between atoms: O_31  and  C_32
REMARK   13  A    between atoms: C_32  and  C_33
REMARK                            x       y       z     vdW  Elec       q    Type
REMARK                         _______ _______ _______ _____ _____    ______ ____
ROOT
ATOM      1  C   UNL     1       8.037  -3.363  26.293  0.00  0.00    +0.162 C 
ATOM      2  N   UNL     1       6.627  -3.062  26.573  0.00  0.00    -0.288 N 
ATOM      3  C   UNL     1       6.074  -1.897  27.083  0.00  0.00    +0.236 C 
ATOM      4  O   UNL     1       4.945  -1.938  27.586  0.00  0.00    -0.274 OA
ATOM      5  C   UNL     1       5.864  -4.302  26.685  0.00  0.00    +0.109 C 
ATOM      6  C   UNL     1       6.828  -5.409  26.281  0.00  0.00    +0.021 C 
ATOM      7  C   UNL     1       8.177  -4.836  26.697  0.00  0.00    +0.033 C 
ENDROOT
BRANCH   1  10
ATOM      8  N   UNL     1       7.489  -2.664  24.003  0.00  0.00    -0.308 N 
ATOM      9  H   UNL     1       6.588  -2.451  24.427  0.00  0.00    +0.149 HD
ATOM     10  C   UNL     1       8.420  -3.270  24.803  0.00  0.00    +0.234 C 
ATOM     11  O   UNL     1       9.502  -3.703  24.418  0.00  0.00    -0.274 OA
BRANCH   8  12
ATOM     12  C   UNL     1       7.579  -2.344  22.570  0.00  0.00    +0.105 C 
BRANCH  12  13
ATOM     13  C   UNL     1       6.914  -3.471  21.730  0.00  0.00    +0.132 C 
ATOM     14  C   UNL     1       7.126  -4.885  22.252  0.00  0.00    +0.039 C 
BRANCH  13  15
ATOM     15  O   UNL     1       5.502  -3.212  21.685  0.00  0.00    -0.390 OA
ATOM     16  H   UNL     1       5.148  -3.326  22.587  0.00  0.00    +0.210 HD
ENDBRANCH  13  15
ENDBRANCH  12  13
BRANCH  12  17
ATOM     17  C   UNL     1       8.961  -1.910  22.017  0.00  0.00    +0.060 C 
BRANCH  17  18
ATOM     18  C   UNL     1       9.462  -0.527  22.407  0.00  0.00    -0.046 A 
ATOM     19  C   UNL     1      10.083  -0.258  23.631  0.00  0.00    +0.004 A 
ATOM     20  C   UNL     1      10.578   1.012  23.934  0.00  0.00    +0.000 A 
ATOM     21  C   UNL     1      10.433   2.050  23.020  0.00  0.00    +0.000 A 
ATOM     22  C   UNL     1       9.793   1.814  21.807  0.00  0.00    +0.000 A 
ATOM     23  C   UNL     1       9.305   0.539  21.506  0.00  0.00    +0.004 A 
ENDBRANCH  17  18
ENDBRANCH  12  17
ENDBRANCH   8  12
ENDBRANCH   1  10
BRANCH   3  24
ATOM     24  C   UNL     1       6.909  -0.586  27.120  0.00  0.00    +0.159 C 
ATOM     25  C   UNL     1       6.352   0.366  28.187  0.00  0.00    +0.038 C 
BRANCH  24  26
ATOM     26  N   UNL     1       7.090   0.053  25.818  0.00  0.00    -0.270 N 
ATOM     27  H   UNL     1       8.019   0.142  25.425  0.00  0.00    +0.153 HD
ATOM     28  C   UNL     1       6.086   0.448  24.982  0.00  0.00    +0.401 C 
ATOM     29  O   UNL     1       4.891   0.342  25.190  0.00  0.00    -0.226 OA
BRANCH  28  30
ATOM     30  O   UNL     1       6.628   0.982  23.862  0.00  0.00    -0.446 OA
BRANCH  30  31
ATOM     31  C   UNL     1       5.993   2.157  23.340  0.00  0.00    +0.269 C 
BRANCH  31  32
ATOM     32  C   UNL     1       6.912   3.344  23.478  0.00  0.00    -0.010 A 
ATOM     33  C   UNL     1       7.626   3.536  24.664  0.00  0.00    +0.007 A 
ATOM     34  C   UNL     1       8.451   4.654  24.827  0.00  0.00    +0.000 A 
ATOM     35  C   UNL     1       8.582   5.579  23.792  0.00  0.00    +0.000 A 
ATOM     36  C   UNL     1       7.888   5.389  22.600  0.00  0.00    +0.000 A 
ATOM     37  C   UNL     1       7.062   4.275  22.439  0.00  0.00    +0.007 A 
ENDBRANCH  31  32
ENDBRANCH  30  31
ENDBRANCH  28  30
ENDBRANCH  24  26
ENDBRANCH   3  24
TORSDOF 11
ENDMDL
MODEL 9
REMARK VINA RESULT:      -6.2      1.640      4.790
REMARK  Name = 
REMARK  13 active torsions:
REMARK  status: ('A' for Active; 'I' for Inactive)
REMARK    1  A    between atoms: C_2  and  C_3
REMARK    2  A    between atoms: C_2  and  O_4
REMARK    3  A    between atoms: C_2  and  C_5
REMARK    4  A    between atoms: C_5  and  C_7
REMARK    5  A    between atoms: C_5  and  N_14
REMARK    6  A    between atoms: C_7  and  C_8
REMARK    7  A    between atoms: C_15  and  C_17
REMARK    8  A    between atoms: C_23  and  C_25
REMARK    9  A    between atoms: C_25  and  C_27
REMARK   10  A    between atoms: C_25  and  N_28
REMARK   11  A    between atoms: C_29  and  O_31
REMARK   12  A    between atoms: O_31  and  C_32
REMARK   13  A    between atoms: C_32  and  C_33
REMARK                            x       y       z     vdW  Elec       q    Type
REMARK                         _______ _______ _______ _____ _____    ______ ____
ROOT
ATOM      1  C   UNL     1       5.532  -4.953  26.333  0.00  0.00    +0.162 C 
ATOM      2  N   UNL     1       4.268  -4.227  26.149  0.00  0.00    -0.288 N 
ATOM      3  C   UNL     1       3.829  -3.077  26.788  0.00  0.00    +0.236 C 
ATOM      4  O   UNL     1       2.622  -2.810  26.780  0.00  0.00    -0.274 OA
ATOM      5  C   UNL     1       3.279  -5.097  25.522  0.00  0.00    +0.109 C 
ATOM      6  C   UNL     1       4.032  -6.366  25.149  0.00  0.00    +0.021 C 
ATOM      7  C   UNL     1       5.119  -6.426  26.214  0.00  0.00    +0.033 C 
ENDROOT
BRANCH   1  10
ATOM      8  N   UNL     1       6.228  -3.737  24.315  0.00  0.00    -0.308 N 
ATOM      9  H   UNL     1       5.274  -3.385  24.362  0.00  0.00    +0.149 HD
ATOM     10  C   UNL     1       6.579  -4.692  25.233  0.00  0.00    +0.234 C 
ATOM     11  O   UNL     1       7.641  -5.307  25.235  0.00  0.00    -0.274 OA
BRANCH   8  12
ATOM     12  C   UNL     1       7.025  -3.197  23.203  0.00  0.00    +0.105 C 
BRANCH  12  13
ATOM     13  C   UNL     1       6.706  -3.972  21.893  0.00  0.00    +0.132 C 
ATOM     14  C   UNL     1       7.167  -5.423  21.865  0.00  0.00    +0.039 C 
BRANCH  13  15
ATOM     15  O   UNL     1       5.282  -3.946  21.702  0.00  0.00    -0.390 OA
ATOM     16  H   UNL     1       4.989  -3.019  21.769  0.00  0.00    +0.210 HD
ENDBRANCH  13  15
ENDBRANCH  12  13
BRANCH  12  17
ATOM     17  C   UNL     1       8.545  -3.002  23.437  0.00  0.00    +0.060 C 
BRANCH  17  18
ATOM     18  C   UNL     1       9.129  -1.636  23.104  0.00  0.00    -0.046 A 
ATOM     19  C   UNL     1       9.892  -0.892  24.011  0.00  0.00    +0.004 A 
ATOM     20  C   UNL     1      10.456   0.334  23.654  0.00  0.00    +0.000 A 
ATOM     21  C   UNL     1      10.242   0.853  22.382  0.00  0.00    +0.000 A 
ATOM     22  C   UNL     1       9.463   0.145  21.471  0.00  0.00    +0.000 A 
ATOM     23  C   UNL     1       8.906  -1.086  21.832  0.00  0.00    +0.004 A 
ENDBRANCH  17  18
ENDBRANCH  12  17
ENDBRANCH   8  12
ENDBRANCH   1  10
BRANCH   3  24
ATOM     24  C   UNL     1       4.828  -2.200  27.594  0.00  0.00    +0.159 C 
ATOM     25  C   UNL     1       4.125  -1.577  28.808  0.00  0.00    +0.038 C 
BRANCH  24  26
ATOM     26  N   UNL     1       5.560  -1.223  26.791  0.00  0.00    -0.270 N 
ATOM     27  H   UNL     1       5.099  -0.374  26.487  0.00  0.00    +0.153 HD
ATOM     28  C   UNL     1       6.892  -1.274  26.498  0.00  0.00    +0.401 C 
ATOM     29  O   UNL     1       7.674  -2.140  26.846  0.00  0.00    -0.226 OA
BRANCH  28  30
ATOM     30  O   UNL     1       7.223  -0.194  25.751  0.00  0.00    -0.446 OA
BRANCH  30  31
ATOM     31  C   UNL     1       6.235   0.268  24.821  0.00  0.00    +0.269 C 
BRANCH  31  32
ATOM     32  C   UNL     1       6.757   1.465  24.066  0.00  0.00    -0.010 A 
ATOM     33  C   UNL     1       6.404   1.649  22.726  0.00  0.00    +0.007 A 
ATOM     34  C   UNL     1       6.913   2.729  21.997  0.00  0.00    +0.000 A 
ATOM     35  C   UNL     1       7.763   3.646  22.613  0.00  0.00    +0.000 A 
ATOM     36  C   UNL     1       8.107   3.482  23.952  0.00  0.00    +0.000 A 
ATOM     37  C   UNL     1       7.602   2.402  24.678  0.00  0.00    +0.007 A 
ENDBRANCH  31  32
ENDBRANCH  30  31
ENDBRANCH  28  30
ENDBRANCH  24  26
ENDBRANCH   3  24
TORSDOF 11
ENDMDL
