MODEL 1
REMARK VINA RESULT:      -7.5      0.000      0.000
REMARK  Name = 
REMARK  6 active torsions:
REMARK  status: ('A' for Active; 'I' for Inactive)
REMARK    1  A    between atoms: C_1  and  C_2
REMARK    2  A    between atoms: C_2  and  C_3
REMARK    3  A    between atoms: C_2  and  C_4
REMARK    4  A    between atoms: C_2  and  C_5
REMARK    5  A    between atoms: C_8  and  S_9
REMARK    6  A    between atoms: S_9  and  C_10
REMARK                            x       y       z     vdW  Elec       q    Type
REMARK                         _______ _______ _______ _____ _____    ______ ____
ROOT
ATOM      1  C   UNL     1       7.769  -4.429  23.965  0.00  0.00    +0.025 A 
ATOM      2  C   UNL     1       6.770  -5.205  24.652  0.00  0.00    +0.054 A 
ATOM      3  C   UNL     1       6.755  -5.659  25.990  0.00  0.00    +0.130 A 
ATOM      4  N   UNL     1       5.763  -6.392  26.524  0.00  0.00    -0.199 NA
ATOM      5  C   UNL     1       4.739  -6.687  25.732  0.00  0.00    +0.215 A 
ATOM      6  N   UNL     1       4.644  -6.340  24.455  0.00  0.00    -0.215 NA
ATOM      7  N   UNL     1       3.708  -7.433  26.264  0.00  0.00    -0.327 N 
ATOM      8  H   UNL     1       3.230  -7.940  25.533  0.00  0.00    +0.145 HD
ATOM      9  H   UNL     1       4.024  -7.950  27.071  0.00  0.00    +0.145 HD
ATOM     10  N   UNL     1       7.734  -5.305  26.920  0.00  0.00    -0.342 N 
ATOM     11  H   UNL     1       7.554  -5.816  27.782  0.00  0.00    +0.144 HD
ATOM     12  H   UNL     1       8.673  -5.438  26.560  0.00  0.00    +0.144 HD
ATOM     13  C   UNL     1       5.627  -5.598  23.939  0.00  0.00    +0.079 A 
ATOM     14  C   UNL     1       5.473  -5.210  22.616  0.00  0.00    +0.028 A 
ATOM     15  C   UNL     1       6.417  -4.427  21.959  0.00  0.00    +0.003 A 
ATOM     16  C   UNL     1       7.568  -4.049  22.629  0.00  0.00    +0.016 A 
ENDROOT
BRANCH   1  17
ATOM     17  S   UNL     1       9.378  -4.024  24.665  0.00  0.00    -0.089 S 
BRANCH  17  21
ATOM     18  C   UNL     1       9.451   0.524  23.836  0.00  0.00    -0.042 A 
ATOM     19  C   UNL     1       8.746  -0.007  24.932  0.00  0.00    +0.005 A 
ATOM     20  C   UNL     1       8.740  -1.382  25.200  0.00  0.00    +0.015 A 
ATOM     21  C   UNL     1       9.463  -2.264  24.396  0.00  0.00    +0.013 A 
ATOM     22  C   UNL     1      10.193  -1.754  23.325  0.00  0.00    +0.015 A 
ATOM     23  C   UNL     1      10.188  -0.381  23.050  0.00  0.00    +0.005 A 
BRANCH  18  25
ATOM     24  C   UNL     1      10.767   2.692  23.360  0.00  0.00    +0.015 C 
ATOM     25  C   UNL     1       9.380   2.029  23.521  0.00  0.00    -0.013 C 
ATOM     26  C   UNL     1       8.618   2.254  22.196  0.00  0.00    +0.015 C 
ATOM     27  C   UNL     1       8.641   2.773  24.654  0.00  0.00    +0.015 C 
ENDBRANCH  18  25
ENDBRANCH  17  21
ENDBRANCH   1  17
TORSDOF 3
ENDMDL
MODEL 2
REMARK VINA RESULT:      -7.5      1.598      2.758
REMARK  Name = 
REMARK  6 active torsions:
REMARK  status: ('A' for Active; 'I' for Inactive)
REMARK    1  A    between atoms: C_1  and  C_2
REMARK    2  A    between atoms: C_2  and  C_3
REMARK    3  A    between atoms: C_2  and  C_4
REMARK    4  A    between atoms: C_2  and  C_5
REMARK    5  A    between atoms: C_8  and  S_9
REMARK    6  A    between atoms: S_9  and  C_10
REMARK                            x       y       z     vdW  Elec       q    Type
REMARK                         _______ _______ _______ _____ _____    ______ ____
ROOT
ATOM      1  C   UNL     1       7.629  -4.548  24.035  0.00  0.00    +0.025 A 
ATOM      2  C   UNL     1       6.692  -5.264  24.861  0.00  0.00    +0.054 A 
ATOM      3  C   UNL     1       5.439  -5.819  24.518  0.00  0.00    +0.130 A 
ATOM      4  N   UNL     1       4.639  -6.464  25.384  0.00  0.00    -0.199 NA
ATOM      5  C   UNL     1       5.077  -6.586  26.631  0.00  0.00    +0.215 A 
ATOM      6  N   UNL     1       6.222  -6.092  27.084  0.00  0.00    -0.215 NA
ATOM      7  N   UNL     1       4.272  -7.251  27.533  0.00  0.00    -0.327 N 
ATOM      8  H   UNL     1       4.465  -6.934  28.473  0.00  0.00    +0.145 HD
ATOM      9  H   UNL     1       3.313  -7.249  27.220  0.00  0.00    +0.145 HD
ATOM     10  N   UNL     1       4.952  -5.832  23.209  0.00  0.00    -0.342 N 
ATOM     11  H   UNL     1       4.005  -6.207  23.226  0.00  0.00    +0.144 HD
ATOM     12  H   UNL     1       5.019  -4.924  22.764  0.00  0.00    +0.144 HD
ATOM     13  C   UNL     1       7.017  -5.467  26.211  0.00  0.00    +0.079 A 
ATOM     14  C   UNL     1       8.229  -5.008  26.706  0.00  0.00    +0.028 A 
ATOM     15  C   UNL     1       9.154  -4.349  25.903  0.00  0.00    +0.003 A 
ATOM     16  C   UNL     1       8.849  -4.110  24.574  0.00  0.00    +0.016 A 
ENDROOT
BRANCH   1  17
ATOM     17  S   UNL     1       7.279  -4.024  22.349  0.00  0.00    -0.089 S 
BRANCH  17  21
ATOM     18  C   UNL     1       8.414   0.445  22.689  0.00  0.00    -0.042 A 
ATOM     19  C   UNL     1       9.235  -0.467  21.999  0.00  0.00    +0.005 A 
ATOM     20  C   UNL     1       8.884  -1.817  21.874  0.00  0.00    +0.015 A 
ATOM     21  C   UNL     1       7.685  -2.290  22.411  0.00  0.00    +0.013 A 
ATOM     22  C   UNL     1       6.844  -1.397  23.069  0.00  0.00    +0.015 A 
ATOM     23  C   UNL     1       7.203  -0.050  23.206  0.00  0.00    +0.005 A 
BRANCH  18  25
ATOM     24  C   UNL     1       9.002   2.323  24.357  0.00  0.00    +0.015 C 
ATOM     25  C   UNL     1       8.861   1.906  22.875  0.00  0.00    -0.013 C 
ATOM     26  C   UNL     1      10.240   2.124  22.214  0.00  0.00    +0.015 C 
ATOM     27  C   UNL     1       7.838   2.860  22.222  0.00  0.00    +0.015 C 
ENDBRANCH  18  25
ENDBRANCH  17  21
ENDBRANCH   1  17
TORSDOF 3
ENDMDL
MODEL 3
REMARK VINA RESULT:      -7.5      0.884      1.250
REMARK  Name = 
REMARK  6 active torsions:
REMARK  status: ('A' for Active; 'I' for Inactive)
REMARK    1  A    between atoms: C_1  and  C_2
REMARK    2  A    between atoms: C_2  and  C_3
REMARK    3  A    between atoms: C_2  and  C_4
REMARK    4  A    between atoms: C_2  and  C_5
REMARK    5  A    between atoms: C_8  and  S_9
REMARK    6  A    between atoms: S_9  and  C_10
REMARK                            x       y       z     vdW  Elec       q    Type
REMARK                         _______ _______ _______ _____ _____    ______ ____
ROOT
ATOM      1  C   UNL     1       8.025  -3.842  23.958  0.00  0.00    +0.025 A 
ATOM      2  C   UNL     1       7.288  -4.694  24.855  0.00  0.00    +0.054 A 
ATOM      3  C   UNL     1       7.673  -5.221  26.108  0.00  0.00    +0.130 A 
ATOM      4  N   UNL     1       6.897  -6.020  26.859  0.00  0.00    -0.199 NA
ATOM      5  C   UNL     1       5.693  -6.312  26.381  0.00  0.00    +0.215 A 
ATOM      6  N   UNL     1       5.223  -5.900  25.211  0.00  0.00    -0.215 NA
ATOM      7  N   UNL     1       4.880  -7.126  27.141  0.00  0.00    -0.327 N 
ATOM      8  H   UNL     1       4.221  -7.612  26.548  0.00  0.00    +0.145 HD
ATOM      9  H   UNL     1       5.429  -7.674  27.786  0.00  0.00    +0.145 HD
ATOM     10  N   UNL     1       8.874  -4.879  26.734  0.00  0.00    -0.342 N 
ATOM     11  H   UNL     1       8.964  -5.443  27.578  0.00  0.00    +0.144 HD
ATOM     12  H   UNL     1       9.669  -4.955  26.110  0.00  0.00    +0.144 HD
ATOM     13  C   UNL     1       5.995  -5.092  24.480  0.00  0.00    +0.079 A 
ATOM     14  C   UNL     1       5.453  -4.639  23.286  0.00  0.00    +0.028 A 
ATOM     15  C   UNL     1       6.146  -3.786  22.435  0.00  0.00    +0.003 A 
ATOM     16  C   UNL     1       7.434  -3.399  22.765  0.00  0.00    +0.016 A 
ENDROOT
BRANCH   1  17
ATOM     17  S   UNL     1       9.758  -3.412  24.186  0.00  0.00    -0.089 S 
BRANCH  17  21
ATOM     18  C   UNL     1       9.475   1.184  23.771  0.00  0.00    -0.042 A 
ATOM     19  C   UNL     1       9.027   0.526  24.932  0.00  0.00    +0.005 A 
ATOM     20  C   UNL     1       9.132  -0.864  25.072  0.00  0.00    +0.015 A 
ATOM     21  C   UNL     1       9.715  -1.635  24.065  0.00  0.00    +0.013 A 
ATOM     22  C   UNL     1      10.193  -0.999  22.922  0.00  0.00    +0.015 A 
ATOM     23  C   UNL     1      10.076   0.389  22.778  0.00  0.00    +0.005 A 
BRANCH  18  25
ATOM     24  C   UNL     1       8.664   3.378  24.860  0.00  0.00    +0.015 C 
ATOM     25  C   UNL     1       9.280   2.702  23.613  0.00  0.00    -0.013 C 
ATOM     26  C   UNL     1      10.642   3.386  23.360  0.00  0.00    +0.015 C 
ATOM     27  C   UNL     1       8.345   2.995  22.420  0.00  0.00    +0.015 C 
ENDBRANCH  18  25
ENDBRANCH  17  21
ENDBRANCH   1  17
TORSDOF 3
ENDMDL
MODEL 4
REMARK VINA RESULT:      -6.9      3.006      4.602
REMARK  Name = 
REMARK  6 active torsions:
REMARK  status: ('A' for Active; 'I' for Inactive)
REMARK    1  A    between atoms: C_1  and  C_2
REMARK    2  A    between atoms: C_2  and  C_3
REMARK    3  A    between atoms: C_2  and  C_4
REMARK    4  A    between atoms: C_2  and  C_5
REMARK    5  A    between atoms: C_8  and  S_9
REMARK    6  A    between atoms: S_9  and  C_10
REMARK                            x       y       z     vdW  Elec       q    Type
REMARK                         _______ _______ _______ _____ _____    ______ ____
ROOT
ATOM      1  C   UNL     1       7.589  -0.886  23.505  0.00  0.00    +0.025 A 
ATOM      2  C   UNL     1       8.297  -2.025  24.029  0.00  0.00    +0.054 A 
ATOM      3  C   UNL     1       9.565  -2.534  23.668  0.00  0.00    +0.130 A 
ATOM      4  N   UNL     1      10.126  -3.620  24.225  0.00  0.00    -0.199 NA
ATOM      5  C   UNL     1       9.435  -4.233  25.179  0.00  0.00    +0.215 A 
ATOM      6  N   UNL     1       8.228  -3.868  25.592  0.00  0.00    -0.215 NA
ATOM      7  N   UNL     1       9.997  -5.346  25.767  0.00  0.00    -0.327 N 
ATOM      8  H   UNL     1       9.274  -5.950  26.133  0.00  0.00    +0.145 HD
ATOM      9  H   UNL     1      10.693  -5.753  25.162  0.00  0.00    +0.145 HD
ATOM     10  N   UNL     1      10.404  -1.892  22.755  0.00  0.00    -0.342 N 
ATOM     11  H   UNL     1      11.217  -2.486  22.599  0.00  0.00    +0.144 HD
ATOM     12  H   UNL     1       9.921  -1.636  21.902  0.00  0.00    +0.144 HD
ATOM     13  C   UNL     1       7.686  -2.777  25.044  0.00  0.00    +0.079 A 
ATOM     14  C   UNL     1       6.446  -2.395  25.535  0.00  0.00    +0.028 A 
ATOM     15  C   UNL     1       5.775  -1.274  25.059  0.00  0.00    +0.003 A 
ATOM     16  C   UNL     1       6.341  -0.528  24.038  0.00  0.00    +0.016 A 
ENDROOT
BRANCH   1  17
ATOM     17  S   UNL     1       8.132   0.056  22.071  0.00  0.00    -0.089 S 
BRANCH  17  21
ATOM     18  C   UNL     1       8.993   4.275  23.754  0.00  0.00    -0.042 A 
ATOM     19  C   UNL     1       7.923   4.046  22.868  0.00  0.00    +0.005 A 
ATOM     20  C   UNL     1       7.645   2.765  22.374  0.00  0.00    +0.015 A 
ATOM     21  C   UNL     1       8.411   1.670  22.774  0.00  0.00    +0.013 A 
ATOM     22  C   UNL     1       9.454   1.870  23.674  0.00  0.00    +0.015 A 
ATOM     23  C   UNL     1       9.741   3.154  24.157  0.00  0.00    +0.005 A 
BRANCH  18  25
ATOM     24  C   UNL     1       8.526   6.797  23.474  0.00  0.00    +0.015 C 
ATOM     25  C   UNL     1       9.322   5.704  24.223  0.00  0.00    -0.013 C 
ATOM     26  C   UNL     1       8.990   5.855  25.724  0.00  0.00    +0.015 C 
ATOM     27  C   UNL     1      10.823   5.998  24.012  0.00  0.00    +0.015 C 
ENDBRANCH  18  25
ENDBRANCH  17  21
ENDBRANCH   1  17
TORSDOF 3
ENDMDL
MODEL 5
REMARK VINA RESULT:      -6.9      2.059      3.175
REMARK  Name = 
REMARK  6 active torsions:
REMARK  status: ('A' for Active; 'I' for Inactive)
REMARK    1  A    between atoms: C_1  and  C_2
REMARK    2  A    between atoms: C_2  and  C_3
REMARK    3  A    between atoms: C_2  and  C_4
REMARK    4  A    between atoms: C_2  and  C_5
REMARK    5  A    between atoms: C_8  and  S_9
REMARK    6  A    between atoms: S_9  and  C_10
REMARK                            x       y       z     vdW  Elec       q    Type
REMARK                         _______ _______ _______ _____ _____    ______ ____
ROOT
ATOM      1  C   UNL     1       6.446  -5.089  24.779  0.00  0.00    +0.025 A 
ATOM      2  C   UNL     1       5.105  -5.203  24.267  0.00  0.00    +0.054 A 
ATOM      3  C   UNL     1       4.669  -5.591  22.980  0.00  0.00    +0.130 A 
ATOM      4  N   UNL     1       3.379  -5.652  22.610  0.00  0.00    -0.199 NA
ATOM      5  C   UNL     1       2.473  -5.334  23.527  0.00  0.00    +0.215 A 
ATOM      6  N   UNL     1       2.754  -4.933  24.761  0.00  0.00    -0.215 NA
ATOM      7  N   UNL     1       1.144  -5.397  23.168  0.00  0.00    -0.327 N 
ATOM      8  H   UNL     1       0.598  -4.766  23.739  0.00  0.00    +0.145 HD
ATOM      9  H   UNL     1       1.044  -5.335  22.167  0.00  0.00    +0.145 HD
ATOM     10  N   UNL     1       5.544  -6.044  21.991  0.00  0.00    -0.342 N 
ATOM     11  H   UNL     1       5.010  -6.185  21.134  0.00  0.00    +0.144 HD
ATOM     12  H   UNL     1       6.343  -5.432  21.873  0.00  0.00    +0.144 HD
ATOM     13  C   UNL     1       4.039  -4.893  25.124  0.00  0.00    +0.079 A 
ATOM     14  C   UNL     1       4.294  -4.519  26.436  0.00  0.00    +0.028 A 
ATOM     15  C   UNL     1       5.585  -4.445  26.946  0.00  0.00    +0.003 A 
ATOM     16  C   UNL     1       6.659  -4.718  26.115  0.00  0.00    +0.016 A 
ENDROOT
BRANCH   1  17
ATOM     17  S   UNL     1       7.922  -5.247  23.760  0.00  0.00    -0.089 S 
BRANCH  17  21
ATOM     18  C   UNL     1       9.034  -0.780  23.330  0.00  0.00    -0.042 A 
ATOM     19  C   UNL     1       9.818  -1.656  24.102  0.00  0.00    +0.005 A 
ATOM     20  C   UNL     1       9.498  -3.015  24.217  0.00  0.00    +0.015 A 
ATOM     21  C   UNL     1       8.399  -3.544  23.538  0.00  0.00    +0.013 A 
ATOM     22  C   UNL     1       7.629  -2.699  22.743  0.00  0.00    +0.015 A 
ATOM     23  C   UNL     1       7.942  -1.338  22.640  0.00  0.00    +0.005 A 
BRANCH  18  25
ATOM     24  C   UNL     1       8.171   1.630  23.658  0.00  0.00    +0.015 C 
ATOM     25  C   UNL     1       9.365   0.723  23.282  0.00  0.00    -0.013 C 
ATOM     26  C   UNL     1      10.503   1.044  24.276  0.00  0.00    +0.015 C 
ATOM     27  C   UNL     1       9.817   1.121  21.860  0.00  0.00    +0.015 C 
ENDBRANCH  18  25
ENDBRANCH  17  21
ENDBRANCH   1  17
TORSDOF 3
ENDMDL
MODEL 6
REMARK VINA RESULT:      -6.9      1.948      2.636
REMARK  Name = 
REMARK  6 active torsions:
REMARK  status: ('A' for Active; 'I' for Inactive)
REMARK    1  A    between atoms: C_1  and  C_2
REMARK    2  A    between atoms: C_2  and  C_3
REMARK    3  A    between atoms: C_2  and  C_4
REMARK    4  A    between atoms: C_2  and  C_5
REMARK    5  A    between atoms: C_8  and  S_9
REMARK    6  A    between atoms: S_9  and  C_10
REMARK                            x       y       z     vdW  Elec       q    Type
REMARK                         _______ _______ _______ _____ _____    ______ ____
ROOT
ATOM      1  C   UNL     1       6.472  -3.530  25.531  0.00  0.00    +0.025 A 
ATOM      2  C   UNL     1       6.414  -4.298  24.314  0.00  0.00    +0.054 A 
ATOM      3  C   UNL     1       7.440  -5.017  23.661  0.00  0.00    +0.130 A 
ATOM      4  N   UNL     1       7.270  -5.695  22.513  0.00  0.00    -0.199 NA
ATOM      5  C   UNL     1       6.053  -5.685  21.982  0.00  0.00    +0.215 A 
ATOM      6  N   UNL     1       5.013  -5.031  22.485  0.00  0.00    -0.215 NA
ATOM      7  N   UNL     1       5.857  -6.380  20.808  0.00  0.00    -0.327 N 
ATOM      8  H   UNL     1       5.085  -5.983  20.291  0.00  0.00    +0.145 HD
ATOM      9  H   UNL     1       6.732  -6.512  20.324  0.00  0.00    +0.145 HD
ATOM     10  N   UNL     1       8.718  -5.171  24.202  0.00  0.00    -0.342 N 
ATOM     11  H   UNL     1       9.297  -5.653  23.518  0.00  0.00    +0.144 HD
ATOM     12  H   UNL     1       9.111  -4.292  24.518  0.00  0.00    +0.144 HD
ATOM     13  C   UNL     1       5.189  -4.374  23.634  0.00  0.00    +0.079 A 
ATOM     14  C   UNL     1       4.069  -3.744  24.158  0.00  0.00    +0.028 A 
ATOM     15  C   UNL     1       4.110  -3.034  25.353  0.00  0.00    +0.003 A 
ATOM     16  C   UNL     1       5.313  -2.917  26.031  0.00  0.00    +0.016 A 
ENDROOT
BRANCH   1  17
ATOM     17  S   UNL     1       8.000  -3.160  26.408  0.00  0.00    -0.089 S 
BRANCH  17  21
ATOM     18  C   UNL     1       9.281   0.654  24.132  0.00  0.00    -0.042 A 
ATOM     19  C   UNL     1       8.398   0.719  25.226  0.00  0.00    +0.005 A 
ATOM     20  C   UNL     1       8.025  -0.432  25.932  0.00  0.00    +0.015 A 
ATOM     21  C   UNL     1       8.547  -1.678  25.584  0.00  0.00    +0.013 A 
ATOM     22  C   UNL     1       9.447  -1.758  24.525  0.00  0.00    +0.015 A 
ATOM     23  C   UNL     1       9.809  -0.609  23.809  0.00  0.00    +0.005 A 
BRANCH  18  25
ATOM     24  C   UNL     1      10.961   2.570  23.725  0.00  0.00    +0.015 C 
ATOM     25  C   UNL     1       9.615   1.923  23.326  0.00  0.00    -0.013 C 
ATOM     26  C   UNL     1       9.708   1.583  21.822  0.00  0.00    +0.015 C 
ATOM     27  C   UNL     1       8.513   2.985  23.530  0.00  0.00    +0.015 C 
ENDBRANCH  18  25
ENDBRANCH  17  21
ENDBRANCH   1  17
TORSDOF 3
ENDMDL
MODEL 7
REMARK VINA RESULT:      -6.8      4.044      7.632
REMARK  Name = 
REMARK  6 active torsions:
REMARK  status: ('A' for Active; 'I' for Inactive)
REMARK    1  A    between atoms: C_1  and  C_2
REMARK    2  A    between atoms: C_2  and  C_3
REMARK    3  A    between atoms: C_2  and  C_4
REMARK    4  A    between atoms: C_2  and  C_5
REMARK    5  A    between atoms: C_8  and  S_9
REMARK    6  A    between atoms: S_9  and  C_10
REMARK                            x       y       z     vdW  Elec       q    Type
REMARK                         _______ _______ _______ _____ _____    ______ ____
ROOT
ATOM      1  C   UNL     1       9.136  -0.535  24.427  0.00  0.00    +0.025 A 
ATOM      2  C   UNL     1       8.862   0.828  24.053  0.00  0.00    +0.054 A 
ATOM      3  C   UNL     1       8.273   1.864  24.812  0.00  0.00    +0.130 A 
ATOM      4  N   UNL     1       8.057   3.107  24.350  0.00  0.00    -0.199 NA
ATOM      5  C   UNL     1       8.437   3.360  23.104  0.00  0.00    +0.215 A 
ATOM      6  N   UNL     1       8.980   2.471  22.282  0.00  0.00    -0.215 NA
ATOM      7  N   UNL     1       8.229   4.632  22.613  0.00  0.00    -0.327 N 
ATOM      8  H   UNL     1       8.147   4.609  21.607  0.00  0.00    +0.145 HD
ATOM      9  H   UNL     1       7.505   5.100  23.137  0.00  0.00    +0.145 HD
ATOM     10  N   UNL     1       7.943   1.717  26.162  0.00  0.00    -0.342 N 
ATOM     11  H   UNL     1       7.463   2.562  26.465  0.00  0.00    +0.144 HD
ATOM     12  H   UNL     1       7.420   0.868  26.340  0.00  0.00    +0.144 HD
ATOM     13  C   UNL     1       9.206   1.243  22.757  0.00  0.00    +0.079 A 
ATOM     14  C   UNL     1       9.821   0.353  21.888  0.00  0.00    +0.028 A 
ATOM     15  C   UNL     1      10.122  -0.953  22.258  0.00  0.00    +0.003 A 
ATOM     16  C   UNL     1       9.769  -1.399  23.521  0.00  0.00    +0.016 A 
ENDROOT
BRANCH   1  17
ATOM     17  S   UNL     1       8.574  -1.281  25.966  0.00  0.00    -0.089 S 
BRANCH  17  21
ATOM     18  C   UNL     1       5.663  -4.445  24.266  0.00  0.00    -0.042 A 
ATOM     19  C   UNL     1       6.838  -4.823  24.942  0.00  0.00    +0.005 A 
ATOM     20  C   UNL     1       7.711  -3.868  25.478  0.00  0.00    +0.015 A 
ATOM     21  C   UNL     1       7.419  -2.506  25.380  0.00  0.00    +0.013 A 
ATOM     22  C   UNL     1       6.246  -2.114  24.743  0.00  0.00    +0.015 A 
ATOM     23  C   UNL     1       5.380  -3.069  24.195  0.00  0.00    +0.005 A 
BRANCH  18  25
ATOM     24  C   UNL     1       4.566  -6.769  24.501  0.00  0.00    +0.015 C 
ATOM     25  C   UNL     1       4.760  -5.513  23.621  0.00  0.00    -0.013 C 
ATOM     26  C   UNL     1       3.354  -4.926  23.360  0.00  0.00    +0.015 C 
ATOM     27  C   UNL     1       5.364  -5.977  22.279  0.00  0.00    +0.015 C 
ENDBRANCH  18  25
ENDBRANCH  17  21
ENDBRANCH   1  17
TORSDOF 3
ENDMDL
MODEL 8
REMARK VINA RESULT:      -6.7      5.031      8.352
REMARK  Name = 
REMARK  6 active torsions:
REMARK  status: ('A' for Active; 'I' for Inactive)
REMARK    1  A    between atoms: C_1  and  C_2
REMARK    2  A    between atoms: C_2  and  C_3
REMARK    3  A    between atoms: C_2  and  C_4
REMARK    4  A    between atoms: C_2  and  C_5
REMARK    5  A    between atoms: C_8  and  S_9
REMARK    6  A    between atoms: S_9  and  C_10
REMARK                            x       y       z     vdW  Elec       q    Type
REMARK                         _______ _______ _______ _____ _____    ______ ____
ROOT
ATOM      1  C   UNL     1       9.112   1.328  24.539  0.00  0.00    +0.025 A 
ATOM      2  C   UNL     1       9.137   2.766  24.473  0.00  0.00    +0.054 A 
ATOM      3  C   UNL     1       9.924   3.611  23.659  0.00  0.00    +0.130 A 
ATOM      4  N   UNL     1       9.867   4.953  23.691  0.00  0.00    -0.199 NA
ATOM      5  C   UNL     1       9.005   5.499  24.540  0.00  0.00    +0.215 A 
ATOM      6  N   UNL     1       8.227   4.818  25.372  0.00  0.00    -0.215 NA
ATOM      7  N   UNL     1       8.928   6.875  24.583  0.00  0.00    -0.327 N 
ATOM      8  H   UNL     1       8.599   7.179  25.489  0.00  0.00    +0.145 HD
ATOM      9  H   UNL     1       9.775   7.289  24.224  0.00  0.00    +0.145 HD
ATOM     10  N   UNL     1      10.775   3.123  22.666  0.00  0.00    -0.342 N 
ATOM     11  H   UNL     1      11.291   3.910  22.274  0.00  0.00    +0.144 HD
ATOM     12  H   UNL     1      11.372   2.376  23.002  0.00  0.00    +0.144 HD
ATOM     13  C   UNL     1       8.278   3.485  25.320  0.00  0.00    +0.079 A 
ATOM     14  C   UNL     1       7.416   2.804  26.167  0.00  0.00    +0.028 A 
ATOM     15  C   UNL     1       7.361   1.415  26.207  0.00  0.00    +0.003 A 
ATOM     16  C   UNL     1       8.216   0.680  25.403  0.00  0.00    +0.016 A 
ENDROOT
BRANCH   1  17
ATOM     17  S   UNL     1      10.285   0.267  23.680  0.00  0.00    -0.089 S 
BRANCH  17  21
ATOM     18  C   UNL     1       7.679  -3.518  23.176  0.00  0.00    -0.042 A 
ATOM     19  C   UNL     1       7.470  -2.376  22.380  0.00  0.00    +0.005 A 
ATOM     20  C   UNL     1       8.272  -1.235  22.514  0.00  0.00    +0.015 A 
ATOM     21  C   UNL     1       9.326  -1.214  23.428  0.00  0.00    +0.013 A 
ATOM     22  C   UNL     1       9.569  -2.345  24.202  0.00  0.00    +0.015 A 
ATOM     23  C   UNL     1       8.758  -3.481  24.078  0.00  0.00    +0.005 A 
BRANCH  18  25
ATOM     24  C   UNL     1       7.281  -5.850  22.146  0.00  0.00    +0.015 C 
ATOM     25  C   UNL     1       6.736  -4.729  23.061  0.00  0.00    -0.013 C 
ATOM     26  C   UNL     1       6.513  -5.358  24.455  0.00  0.00    +0.015 C 
ATOM     27  C   UNL     1       5.372  -4.287  22.490  0.00  0.00    +0.015 C 
ENDBRANCH  18  25
ENDBRANCH  17  21
ENDBRANCH   1  17
TORSDOF 3
ENDMDL
MODEL 9
REMARK VINA RESULT:      -6.7      2.999      4.907
REMARK  Name = 
REMARK  6 active torsions:
REMARK  status: ('A' for Active; 'I' for Inactive)
REMARK    1  A    between atoms: C_1  and  C_2
REMARK    2  A    between atoms: C_2  and  C_3
REMARK    3  A    between atoms: C_2  and  C_4
REMARK    4  A    between atoms: C_2  and  C_5
REMARK    5  A    between atoms: C_8  and  S_9
REMARK    6  A    between atoms: S_9  and  C_10
REMARK                            x       y       z     vdW  Elec       q    Type
REMARK                         _______ _______ _______ _____ _____    ______ ____
ROOT
ATOM      1  C   UNL     1       9.485  -0.573  24.406  0.00  0.00    +0.025 A 
ATOM      2  C   UNL     1       8.599  -1.559  23.844  0.00  0.00    +0.054 A 
ATOM      3  C   UNL     1       8.491  -2.007  22.509  0.00  0.00    +0.130 A 
ATOM      4  N   UNL     1       7.611  -2.935  22.095  0.00  0.00    -0.199 NA
ATOM      5  C   UNL     1       6.812  -3.459  23.016  0.00  0.00    +0.215 A 
ATOM      6  N   UNL     1       6.799  -3.109  24.296  0.00  0.00    -0.215 NA
ATOM      7  N   UNL     1       5.907  -4.418  22.612  0.00  0.00    -0.327 N 
ATOM      8  H   UNL     1       5.112  -4.434  23.236  0.00  0.00    +0.145 HD
ATOM      9  H   UNL     1       5.730  -4.344  21.622  0.00  0.00    +0.145 HD
ATOM     10  N   UNL     1       9.361  -1.590  21.499  0.00  0.00    -0.342 N 
ATOM     11  H   UNL     1       9.035  -1.981  20.617  0.00  0.00    +0.144 HD
ATOM     12  H   UNL     1       9.474  -0.583  21.479  0.00  0.00    +0.144 HD
ATOM     13  C   UNL     1       7.688  -2.198  24.700  0.00  0.00    +0.079 A 
ATOM     14  C   UNL     1       7.682  -1.893  26.053  0.00  0.00    +0.028 A 
ATOM     15  C   UNL     1       8.562  -0.969  26.608  0.00  0.00    +0.003 A 
ATOM     16  C   UNL     1       9.453  -0.302  25.783  0.00  0.00    +0.016 A 
ENDROOT
BRANCH   1  17
ATOM     17  S   UNL     1      10.561   0.482  23.421  0.00  0.00    -0.089 S 
BRANCH  17  21
ATOM     18  C   UNL     1       7.836   4.195  23.024  0.00  0.00    -0.042 A 
ATOM     19  C   UNL     1       8.976   4.211  23.849  0.00  0.00    +0.005 A 
ATOM     20  C   UNL     1       9.817   3.096  23.954  0.00  0.00    +0.015 A 
ATOM     21  C   UNL     1       9.558   1.941  23.215  0.00  0.00    +0.013 A 
ATOM     22  C   UNL     1       8.453   1.916  22.370  0.00  0.00    +0.015 A 
ATOM     23  C   UNL     1       7.604   3.027  22.275  0.00  0.00    +0.005 A 
BRANCH  18  25
ATOM     24  C   UNL     1       5.406   5.024  22.768  0.00  0.00    +0.015 C 
ATOM     25  C   UNL     1       6.888   5.407  22.985  0.00  0.00    -0.013 C 
ATOM     26  C   UNL     1       6.961   6.177  24.323  0.00  0.00    +0.015 C 
ATOM     27  C   UNL     1       7.292   6.359  21.839  0.00  0.00    +0.015 C 
ENDBRANCH  18  25
ENDBRANCH  17  21
ENDBRANCH   1  17
TORSDOF 3
ENDMDL
