MODEL 1
REMARK VINA RESULT:      -4.8      0.000      0.000
REMARK  Name = 
REMARK  7 active torsions:
REMARK  status: ('A' for Active; 'I' for Inactive)
REMARK    1  A    between atoms: C_1  and  O_2
REMARK    2  A    between atoms: O_2  and  C_3
REMARK    3  A    between atoms: C_5  and  O_7
REMARK    4  A    between atoms: C_8  and  O_10
REMARK    5  A    between atoms: C_11  and  O_13
REMARK    6  A    between atoms: C_15  and  C_17
REMARK    7  A    between atoms: C_17  and  O_18
REMARK                            x       y       z     vdW  Elec       q    Type
REMARK                         _______ _______ _______ _____ _____    ______ ____
ROOT
ATOM      1  C   UNL     1       8.787   0.743  24.161  0.00  0.00    +0.189 C 
ATOM      2  C   UNL     1       9.850  -0.372  24.089  0.00  0.00    +0.260 C 
ATOM      3  O   UNL     1      10.632  -0.334  22.893  0.00  0.00    -0.332 OA
ATOM      4  C   UNL     1       9.918  -0.217  21.669  0.00  0.00    +0.280 C 
ATOM      5  C   UNL     1       8.869   0.905  21.642  0.00  0.00    +0.201 C 
ATOM      6  C   UNL     1       7.950   0.780  22.867  0.00  0.00    +0.180 C 
ENDROOT
BRANCH   1   8
ATOM      7  C   UNL     1       8.592   3.031  24.886  0.00  0.00    +0.194 C 
ATOM      8  O   UNL     1       9.414   2.045  24.272  0.00  0.00    -0.374 OA
ENDBRANCH   1   8
BRANCH   2   9
ATOM      9  C   UNL     1       9.255  -1.730  24.485  0.00  0.00    +0.337 C 
ATOM     10  O   UNL     1       8.258  -1.861  25.186  0.00  0.00    -0.248 OA
BRANCH   9  11
ATOM     11  O   UNL     1       9.962  -2.792  24.041  0.00  0.00    -0.479 OA
ATOM     12  H   UNL     1       9.364  -3.464  23.638  0.00  0.00    +0.295 HD
ENDBRANCH   9  11
ENDBRANCH   2   9
BRANCH   4  13
ATOM     13  O   UNL     1       9.312  -1.477  21.408  0.00  0.00    -0.365 OA
ATOM     14  H   UNL     1      10.008  -2.147  21.563  0.00  0.00    +0.213 HD
ENDBRANCH   4  13
BRANCH   5  15
ATOM     15  O   UNL     1       9.511   2.182  21.583  0.00  0.00    -0.384 OA
ATOM     16  H   UNL     1      10.152   2.155  20.838  0.00  0.00    +0.210 HD
ENDBRANCH   5  15
BRANCH   6  17
ATOM     17  O   UNL     1       7.085  -0.353  22.766  0.00  0.00    -0.386 OA
ATOM     18  H   UNL     1       6.324  -0.255  23.372  0.00  0.00    +0.210 HD
ENDBRANCH   6  17
TORSDOF 6
ENDMDL
MODEL 2
REMARK VINA RESULT:      -4.7      1.512      3.081
REMARK  Name = 
REMARK  7 active torsions:
REMARK  status: ('A' for Active; 'I' for Inactive)
REMARK    1  A    between atoms: C_1  and  O_2
REMARK    2  A    between atoms: O_2  and  C_3
REMARK    3  A    between atoms: C_5  and  O_7
REMARK    4  A    between atoms: C_8  and  O_10
REMARK    5  A    between atoms: C_11  and  O_13
REMARK    6  A    between atoms: C_15  and  C_17
REMARK    7  A    between atoms: C_17  and  O_18
REMARK                            x       y       z     vdW  Elec       q    Type
REMARK                         _______ _______ _______ _____ _____    ______ ____
ROOT
ATOM      1  C   UNL     1       8.156   1.051  22.480  0.00  0.00    +0.189 C 
ATOM      2  C   UNL     1       8.744  -0.242  23.082  0.00  0.00    +0.260 C 
ATOM      3  O   UNL     1       9.249  -0.072  24.408  0.00  0.00    -0.332 OA
ATOM      4  C   UNL     1      10.110   1.039  24.623  0.00  0.00    +0.280 C 
ATOM      5  C   UNL     1       9.575   2.379  24.094  0.00  0.00    +0.201 C 
ATOM      6  C   UNL     1       9.152   2.219  22.625  0.00  0.00    +0.180 C 
ENDROOT
BRANCH   1   8
ATOM      7  C   UNL     1       6.151   2.386  22.485  0.00  0.00    +0.194 C 
ATOM      8  O   UNL     1       6.960   1.452  23.192  0.00  0.00    -0.374 OA
ENDBRANCH   1   8
BRANCH   2   9
ATOM      9  C   UNL     1       9.660  -0.953  22.077  0.00  0.00    +0.337 C 
ATOM     10  O   UNL     1      10.574  -1.705  22.399  0.00  0.00    -0.248 OA
BRANCH   9  11
ATOM     11  O   UNL     1       9.415  -0.636  20.788  0.00  0.00    -0.479 OA
ATOM     12  H   UNL     1       9.774  -1.328  20.184  0.00  0.00    +0.295 HD
ENDBRANCH   9  11
ENDBRANCH   2   9
BRANCH   4  13
ATOM     13  O   UNL     1      11.363   0.728  24.027  0.00  0.00    -0.365 OA
ATOM     14  H   UNL     1      11.289  -0.193  23.709  0.00  0.00    +0.213 HD
ENDBRANCH   4  13
BRANCH   5  15
ATOM     15  O   UNL     1       8.498   2.841  24.914  0.00  0.00    -0.384 OA
ATOM     16  H   UNL     1       7.671   2.752  24.390  0.00  0.00    +0.210 HD
ENDBRANCH   5  15
BRANCH   6  17
ATOM     17  O   UNL     1      10.281   2.059  21.763  0.00  0.00    -0.386 OA
ATOM     18  H   UNL     1      10.514   1.114  21.680  0.00  0.00    +0.210 HD
ENDBRANCH   6  17
TORSDOF 6
ENDMDL
MODEL 3
REMARK VINA RESULT:      -4.6      1.162      3.691
REMARK  Name = 
REMARK  7 active torsions:
REMARK  status: ('A' for Active; 'I' for Inactive)
REMARK    1  A    between atoms: C_1  and  O_2
REMARK    2  A    between atoms: O_2  and  C_3
REMARK    3  A    between atoms: C_5  and  O_7
REMARK    4  A    between atoms: C_8  and  O_10
REMARK    5  A    between atoms: C_11  and  O_13
REMARK    6  A    between atoms: C_15  and  C_17
REMARK    7  A    between atoms: C_17  and  O_18
REMARK                            x       y       z     vdW  Elec       q    Type
REMARK                         _______ _______ _______ _____ _____    ______ ____
ROOT
ATOM      1  C   UNL     1       8.873  -0.355  24.144  0.00  0.00    +0.189 C 
ATOM      2  C   UNL     1       7.971   0.729  23.519  0.00  0.00    +0.260 C 
ATOM      3  O   UNL     1       8.003   0.738  22.090  0.00  0.00    -0.332 OA
ATOM      4  C   UNL     1       9.288   0.719  21.482  0.00  0.00    +0.280 C 
ATOM      5  C   UNL     1      10.235  -0.366  22.016  0.00  0.00    +0.201 C 
ATOM      6  C   UNL     1      10.295  -0.287  23.550  0.00  0.00    +0.180 C 
ENDROOT
BRANCH   1   8
ATOM      7  C   UNL     1       8.788  -2.682  24.760  0.00  0.00    +0.194 C 
ATOM      8  O   UNL     1       8.373  -1.680  23.838  0.00  0.00    -0.374 OA
ENDBRANCH   1   8
BRANCH   2   9
ATOM      9  C   UNL     1       8.157   2.078  24.226  0.00  0.00    +0.337 C 
ATOM     10  O   UNL     1       8.005   3.163  23.677  0.00  0.00    -0.248 OA
BRANCH   9  11
ATOM     11  O   UNL     1       8.567   1.976  25.509  0.00  0.00    -0.479 OA
ATOM     12  H   UNL     1       8.064   1.271  25.980  0.00  0.00    +0.295 HD
ENDBRANCH   9  11
ENDBRANCH   2   9
BRANCH   4  13
ATOM     13  O   UNL     1       9.859   2.011  21.650  0.00  0.00    -0.365 OA
ATOM     14  H   UNL     1       9.840   2.190  22.612  0.00  0.00    +0.213 HD
ENDBRANCH   4  13
BRANCH   5  15
ATOM     15  O   UNL     1       9.816  -1.657  21.563  0.00  0.00    -0.384 OA
ATOM     16  H   UNL     1       9.026  -1.911  22.090  0.00  0.00    +0.210 HD
ENDBRANCH   5  15
BRANCH   6  17
ATOM     17  O   UNL     1      10.996   0.876  23.993  0.00  0.00    -0.386 OA
ATOM     18  H   UNL     1      11.961   0.722  23.968  0.00  0.00    +0.210 HD
ENDBRANCH   6  17
TORSDOF 6
ENDMDL
MODEL 4
REMARK VINA RESULT:      -4.6      1.461      4.065
REMARK  Name = 
REMARK  7 active torsions:
REMARK  status: ('A' for Active; 'I' for Inactive)
REMARK    1  A    between atoms: C_1  and  O_2
REMARK    2  A    between atoms: O_2  and  C_3
REMARK    3  A    between atoms: C_5  and  O_7
REMARK    4  A    between atoms: C_8  and  O_10
REMARK    5  A    between atoms: C_11  and  O_13
REMARK    6  A    between atoms: C_15  and  C_17
REMARK    7  A    between atoms: C_17  and  O_18
REMARK                            x       y       z     vdW  Elec       q    Type
REMARK                         _______ _______ _______ _____ _____    ______ ____
ROOT
ATOM      1  C   UNL     1       8.310  -0.760  22.568  0.00  0.00    +0.189 C 
ATOM      2  C   UNL     1       9.593   0.031  22.238  0.00  0.00    +0.260 C 
ATOM      3  O   UNL     1      10.608  -0.094  23.237  0.00  0.00    -0.332 OA
ATOM      4  C   UNL     1      10.203   0.112  24.585  0.00  0.00    +0.280 C 
ATOM      5  C   UNL     1       8.956  -0.679  25.008  0.00  0.00    +0.201 C 
ATOM      6  C   UNL     1       7.826  -0.439  23.996  0.00  0.00    +0.180 C 
ENDROOT
BRANCH   1   8
ATOM      7  C   UNL     1       7.404  -2.976  22.304  0.00  0.00    +0.194 C 
ATOM      8  O   UNL     1       8.564  -2.186  22.541  0.00  0.00    -0.374 OA
ENDBRANCH   1   8
BRANCH   2   9
ATOM      9  C   UNL     1       9.260   1.450  21.761  0.00  0.00    +0.337 C 
ATOM     10  O   UNL     1       8.149   1.800  21.379  0.00  0.00    -0.248 OA
BRANCH   9  11
ATOM     11  O   UNL     1      10.320   2.286  21.737  0.00  0.00    -0.479 OA
ATOM     12  H   UNL     1      10.162   3.066  22.318  0.00  0.00    +0.295 HD
ENDBRANCH   9  11
ENDBRANCH   2   9
BRANCH   4  13
ATOM     13  O   UNL     1       9.995   1.508  24.759  0.00  0.00    -0.365 OA
ATOM     14  H   UNL     1       9.060   1.610  25.026  0.00  0.00    +0.213 HD
ENDBRANCH   4  13
BRANCH   5  15
ATOM     15  O   UNL     1       9.271  -2.069  25.138  0.00  0.00    -0.384 OA
ATOM     16  H   UNL     1       8.730  -2.556  24.478  0.00  0.00    +0.210 HD
ENDBRANCH   5  15
BRANCH   6  17
ATOM     17  O   UNL     1       7.304   0.889  24.089  0.00  0.00    -0.386 OA
ATOM     18  H   UNL     1       7.973   1.538  23.795  0.00  0.00    +0.210 HD
ENDBRANCH   6  17
TORSDOF 6
ENDMDL
MODEL 5
REMARK VINA RESULT:      -4.6      1.440      2.382
REMARK  Name = 
REMARK  7 active torsions:
REMARK  status: ('A' for Active; 'I' for Inactive)
REMARK    1  A    between atoms: C_1  and  O_2
REMARK    2  A    between atoms: O_2  and  C_3
REMARK    3  A    between atoms: C_5  and  O_7
REMARK    4  A    between atoms: C_8  and  O_10
REMARK    5  A    between atoms: C_11  and  O_13
REMARK    6  A    between atoms: C_15  and  C_17
REMARK    7  A    between atoms: C_17  and  O_18
REMARK                            x       y       z     vdW  Elec       q    Type
REMARK                         _______ _______ _______ _____ _____    ______ ____
ROOT
ATOM      1  C   UNL     1       8.337  -0.133  24.319  0.00  0.00    +0.189 C 
ATOM      2  C   UNL     1       9.590  -0.564  23.531  0.00  0.00    +0.260 C 
ATOM      3  O   UNL     1      10.498   0.511  23.279  0.00  0.00    -0.332 OA
ATOM      4  C   UNL     1       9.938   1.707  22.751  0.00  0.00    +0.280 C 
ATOM      5  C   UNL     1       8.710   2.231  23.510  0.00  0.00    +0.201 C 
ATOM      6  C   UNL     1       7.681   1.100  23.666  0.00  0.00    +0.180 C 
ENDROOT
BRANCH   1   8
ATOM      7  C   UNL     1       8.782  -0.818  26.585  0.00  0.00    +0.194 C 
ATOM      8  O   UNL     1       8.688   0.266  25.667  0.00  0.00    -0.374 OA
ENDBRANCH   1   8
BRANCH   2   9
ATOM      9  C   UNL     1       9.215  -1.449  22.335  0.00  0.00    +0.337 C 
ATOM     10  O   UNL     1       8.160  -2.068  22.248  0.00  0.00    -0.248 OA
BRANCH   9  11
ATOM     11  O   UNL     1      10.179  -1.542  21.395  0.00  0.00    -0.479 OA
ATOM     12  H   UNL     1      10.659  -2.400  21.472  0.00  0.00    +0.295 HD
ENDBRANCH   9  11
ENDBRANCH   2   9
BRANCH   4  13
ATOM     13  O   UNL     1       9.618   1.462  21.387  0.00  0.00    -0.365 OA
ATOM     14  H   UNL     1       8.642   1.467  21.334  0.00  0.00    +0.213 HD
ENDBRANCH   4  13
BRANCH   5  15
ATOM     15  O   UNL     1       9.103   2.774  24.774  0.00  0.00    -0.384 OA
ATOM     16  H   UNL     1      10.085   2.772  24.801  0.00  0.00    +0.210 HD
ENDBRANCH   5  15
BRANCH   6  17
ATOM     17  O   UNL     1       7.064   0.771  22.420  0.00  0.00    -0.386 OA
ATOM     18  H   UNL     1       7.060   1.547  21.826  0.00  0.00    +0.210 HD
ENDBRANCH   6  17
TORSDOF 6
ENDMDL
MODEL 6
REMARK VINA RESULT:      -4.5      3.415      5.519
REMARK  Name = 
REMARK  7 active torsions:
REMARK  status: ('A' for Active; 'I' for Inactive)
REMARK    1  A    between atoms: C_1  and  O_2
REMARK    2  A    between atoms: O_2  and  C_3
REMARK    3  A    between atoms: C_5  and  O_7
REMARK    4  A    between atoms: C_8  and  O_10
REMARK    5  A    between atoms: C_11  and  O_13
REMARK    6  A    between atoms: C_15  and  C_17
REMARK    7  A    between atoms: C_17  and  O_18
REMARK                            x       y       z     vdW  Elec       q    Type
REMARK                         _______ _______ _______ _____ _____    ______ ____
ROOT
ATOM      1  C   UNL     1       8.423  -3.359  24.067  0.00  0.00    +0.189 C 
ATOM      2  C   UNL     1       8.062  -2.690  25.409  0.00  0.00    +0.260 C 
ATOM      3  O   UNL     1       8.720  -3.282  26.532  0.00  0.00    -0.332 OA
ATOM      4  C   UNL     1       8.666  -4.699  26.627  0.00  0.00    +0.280 C 
ATOM      5  C   UNL     1       9.058  -5.445  25.342  0.00  0.00    +0.201 C 
ATOM      6  C   UNL     1       8.252  -4.889  24.159  0.00  0.00    +0.180 C 
ENDROOT
BRANCH   1   8
ATOM      7  C   UNL     1      10.068  -1.862  23.142  0.00  0.00    +0.194 C 
ATOM      8  O   UNL     1       9.816  -3.130  23.736  0.00  0.00    -0.374 OA
ENDBRANCH   1   8
BRANCH   2   9
ATOM      9  C   UNL     1       6.549  -2.471  25.528  0.00  0.00    +0.337 C 
ATOM     10  O   UNL     1       5.790  -2.406  24.567  0.00  0.00    -0.248 OA
BRANCH   9  11
ATOM     11  O   UNL     1       6.116  -2.292  26.795  0.00  0.00    -0.479 OA
ATOM     12  H   UNL     1       5.771  -3.137  27.167  0.00  0.00    +0.295 HD
ENDBRANCH   9  11
ENDBRANCH   2   9
BRANCH   4  13
ATOM     13  O   UNL     1       7.347  -5.049  27.028  0.00  0.00    -0.365 OA
ATOM     14  H   UNL     1       7.402  -5.965  27.365  0.00  0.00    +0.213 HD
ENDBRANCH   4  13
BRANCH   5  15
ATOM     15  O   UNL     1      10.468  -5.346  25.123  0.00  0.00    -0.384 OA
ATOM     16  H   UNL     1      10.877  -5.050  25.967  0.00  0.00    +0.210 HD
ENDBRANCH   5  15
BRANCH   6  17
ATOM     17  O   UNL     1       6.874  -5.261  24.235  0.00  0.00    -0.386 OA
ATOM     18  H   UNL     1       6.390  -4.935  23.450  0.00  0.00    +0.210 HD
ENDBRANCH   6  17
TORSDOF 6
ENDMDL
MODEL 7
REMARK VINA RESULT:      -4.5      3.917      5.662
REMARK  Name = 
REMARK  7 active torsions:
REMARK  status: ('A' for Active; 'I' for Inactive)
REMARK    1  A    between atoms: C_1  and  O_2
REMARK    2  A    between atoms: O_2  and  C_3
REMARK    3  A    between atoms: C_5  and  O_7
REMARK    4  A    between atoms: C_8  and  O_10
REMARK    5  A    between atoms: C_11  and  O_13
REMARK    6  A    between atoms: C_15  and  C_17
REMARK    7  A    between atoms: C_17  and  O_18
REMARK                            x       y       z     vdW  Elec       q    Type
REMARK                         _______ _______ _______ _____ _____    ______ ____
ROOT
ATOM      1  C   UNL     1       7.693  -5.051  23.719  0.00  0.00    +0.189 C 
ATOM      2  C   UNL     1       7.578  -4.668  22.229  0.00  0.00    +0.260 C 
ATOM      3  O   UNL     1       7.542  -3.256  22.009  0.00  0.00    -0.332 OA
ATOM      4  C   UNL     1       6.634  -2.510  22.809  0.00  0.00    +0.280 C 
ATOM      5  C   UNL     1       6.717  -2.799  24.316  0.00  0.00    +0.201 C 
ATOM      6  C   UNL     1       6.627  -4.314  24.554  0.00  0.00    +0.180 C 
ENDROOT
BRANCH   1   8
ATOM      7  C   UNL     1       9.386  -5.390  25.398  0.00  0.00    +0.194 C 
ATOM      8  O   UNL     1       8.976  -4.645  24.257  0.00  0.00    -0.374 OA
ENDBRANCH   1   8
BRANCH   2   9
ATOM      9  C   UNL     1       6.505  -5.507  21.523  0.00  0.00    +0.337 C 
ATOM     10  O   UNL     1       5.862  -5.119  20.554  0.00  0.00    -0.248 OA
BRANCH   9  11
ATOM     11  O   UNL     1       6.277  -6.707  22.100  0.00  0.00    -0.479 OA
ATOM     12  H   UNL     1       6.737  -6.768  22.970  0.00  0.00    +0.295 HD
ENDBRANCH   9  11
ENDBRANCH   2   9
BRANCH   4  13
ATOM     13  O   UNL     1       5.323  -2.768  22.320  0.00  0.00    -0.365 OA
ATOM     14  H   UNL     1       5.143  -3.709  22.518  0.00  0.00    +0.213 HD
ENDBRANCH   4  13
BRANCH   5  15
ATOM     15  O   UNL     1       7.917  -2.242  24.861  0.00  0.00    -0.384 OA
ATOM     16  H   UNL     1       7.949  -2.488  25.812  0.00  0.00    +0.210 HD
ENDBRANCH   5  15
BRANCH   6  17
ATOM     17  O   UNL     1       5.314  -4.814  24.291  0.00  0.00    -0.386 OA
ATOM     18  H   UNL     1       4.827  -4.201  23.707  0.00  0.00    +0.210 HD
ENDBRANCH   6  17
TORSDOF 6
ENDMDL
MODEL 8
REMARK VINA RESULT:      -4.5      3.185      5.678
REMARK  Name = 
REMARK  7 active torsions:
REMARK  status: ('A' for Active; 'I' for Inactive)
REMARK    1  A    between atoms: C_1  and  O_2
REMARK    2  A    between atoms: O_2  and  C_3
REMARK    3  A    between atoms: C_5  and  O_7
REMARK    4  A    between atoms: C_8  and  O_10
REMARK    5  A    between atoms: C_11  and  O_13
REMARK    6  A    between atoms: C_15  and  C_17
REMARK    7  A    between atoms: C_17  and  O_18
REMARK                            x       y       z     vdW  Elec       q    Type
REMARK                         _______ _______ _______ _____ _____    ______ ____
ROOT
ATOM      1  C   UNL     1       7.238  -3.180  24.962  0.00  0.00    +0.189 C 
ATOM      2  C   UNL     1       8.182  -3.531  23.793  0.00  0.00    +0.260 C 
ATOM      3  O   UNL     1       8.522  -4.918  23.736  0.00  0.00    -0.332 OA
ATOM      4  C   UNL     1       8.955  -5.518  24.951  0.00  0.00    +0.280 C 
ATOM      5  C   UNL     1       8.041  -5.255  26.158  0.00  0.00    +0.201 C 
ATOM      6  C   UNL     1       7.784  -3.746  26.289  0.00  0.00    +0.180 C 
ENDROOT
BRANCH   1   8
ATOM      7  C   UNL     1       5.305  -3.429  23.547  0.00  0.00    +0.194 C 
ATOM      8  O   UNL     1       5.936  -3.786  24.772  0.00  0.00    -0.374 OA
ENDBRANCH   1   8
BRANCH   2   9
ATOM      9  C   UNL     1       9.339  -2.528  23.697  0.00  0.00    +0.337 C 
ATOM     10  O   UNL     1      10.444  -2.803  23.243  0.00  0.00    -0.248 OA
BRANCH   9  11
ATOM     11  O   UNL     1       9.060  -1.313  24.215  0.00  0.00    -0.479 OA
ATOM     12  H   UNL     1       9.669  -1.105  24.962  0.00  0.00    +0.295 HD
ENDBRANCH   9  11
ENDBRANCH   2   9
BRANCH   4  13
ATOM     13  O   UNL     1      10.274  -5.053  25.208  0.00  0.00    -0.365 OA
ATOM     14  H   UNL     1      10.242  -4.627  26.088  0.00  0.00    +0.213 HD
ENDBRANCH   4  13
BRANCH   5  15
ATOM     15  O   UNL     1       6.825  -5.997  26.029  0.00  0.00    -0.384 OA
ATOM     16  H   UNL     1       7.028  -6.934  26.245  0.00  0.00    +0.210 HD
ENDBRANCH   5  15
BRANCH   6  17
ATOM     17  O   UNL     1       8.951  -3.045  26.721  0.00  0.00    -0.386 OA
ATOM     18  H   UNL     1       8.787  -2.607  27.579  0.00  0.00    +0.210 HD
ENDBRANCH   6  17
TORSDOF 6
ENDMDL
MODEL 9
REMARK VINA RESULT:      -4.5      4.699      5.834
REMARK  Name = 
REMARK  7 active torsions:
REMARK  status: ('A' for Active; 'I' for Inactive)
REMARK    1  A    between atoms: C_1  and  O_2
REMARK    2  A    between atoms: O_2  and  C_3
REMARK    3  A    between atoms: C_5  and  O_7
REMARK    4  A    between atoms: C_8  and  O_10
REMARK    5  A    between atoms: C_11  and  O_13
REMARK    6  A    between atoms: C_15  and  C_17
REMARK    7  A    between atoms: C_17  and  O_18
REMARK                            x       y       z     vdW  Elec       q    Type
REMARK                         _______ _______ _______ _____ _____    ______ ____
ROOT
ATOM      1  C   UNL     1       5.098  -3.488  23.336  0.00  0.00    +0.189 C 
ATOM      2  C   UNL     1       5.287  -4.859  24.018  0.00  0.00    +0.260 C 
ATOM      3  O   UNL     1       6.656  -5.179  24.275  0.00  0.00    -0.332 OA
ATOM      4  C   UNL     1       7.564  -5.006  23.194  0.00  0.00    +0.280 C 
ATOM      5  C   UNL     1       7.472  -3.644  22.489  0.00  0.00    +0.201 C 
ATOM      6  C   UNL     1       6.012  -3.364  22.101  0.00  0.00    +0.180 C 
ENDROOT
BRANCH   1   8
ATOM      7  C   UNL     1       4.763  -2.399  25.458  0.00  0.00    +0.194 C 
ATOM      8  O   UNL     1       5.480  -2.413  24.229  0.00  0.00    -0.374 OA
ENDBRANCH   1   8
BRANCH   2   9
ATOM      9  C   UNL     1       4.439  -5.939  23.333  0.00  0.00    +0.337 C 
ATOM     10  O   UNL     1       3.451  -5.699  22.647  0.00  0.00    -0.248 OA
BRANCH   9  11
ATOM     11  O   UNL     1       4.837  -7.201  23.598  0.00  0.00    -0.479 OA
ATOM     12  H   UNL     1       5.713  -7.385  23.185  0.00  0.00    +0.295 HD
ENDBRANCH   9  11
ENDBRANCH   2   9
BRANCH   4  13
ATOM     13  O   UNL     1       7.336  -6.065  22.272  0.00  0.00    -0.365 OA
ATOM     14  H   UNL     1       6.550  -6.544  22.602  0.00  0.00    +0.213 HD
ENDBRANCH   4  13
BRANCH   5  15
ATOM     15  O   UNL     1       8.010  -2.616  23.326  0.00  0.00    -0.384 OA
ATOM     16  H   UNL     1       8.935  -2.454  23.034  0.00  0.00    +0.210 HD
ENDBRANCH   5  15
BRANCH   6  17
ATOM     17  O   UNL     1       5.575  -4.210  21.035  0.00  0.00    -0.386 OA
ATOM     18  H   UNL     1       4.639  -4.461  21.161  0.00  0.00    +0.210 HD
ENDBRANCH   6  17
TORSDOF 6
ENDMDL
