MODEL 1
REMARK VINA RESULT:      -3.9      0.000      0.000
REMARK  Name = 
REMARK  7 active torsions:
REMARK  status: ('A' for Active; 'I' for Inactive)
REMARK    1  A    between atoms: C_1  and  O_2
REMARK    2  A    between atoms: O_2  and  C_3
REMARK    3  A    between atoms: C_3  and  C_5
REMARK    4  A    between atoms: C_5  and  C_6
REMARK    5  A    between atoms: C_6  and  C_7
REMARK    6  A    between atoms: C_7  and  C_9
REMARK    7  A    between atoms: C_9  and  N_10
REMARK                            x       y       z     vdW  Elec       q    Type
REMARK                         _______ _______ _______ _____ _____    ______ ____
ROOT
ATOM      1  C   UNL     1      10.759   0.592  24.500  0.00  0.00    +0.087 C 
ENDROOT
BRANCH   1   2
ATOM      2  C   UNL     1       9.986   1.861  24.212  0.00  0.00    +0.147 C 
ATOM      3  O   UNL     1       8.974   2.173  24.844  0.00  0.00    -0.296 OA
BRANCH   2   4
ATOM      4  C   UNL     1      10.490   2.695  23.032  0.00  0.00    +0.152 C 
BRANCH   4   5
ATOM      5  N   UNL     1      10.075   2.086  21.766  0.00  0.00    -0.324 NA
ATOM      6  H   UNL     1      10.897   1.834  21.221  0.00  0.00    +0.119 HD
ATOM      7  H   UNL     1       9.582   1.215  21.977  0.00  0.00    +0.119 HD
ENDBRANCH   4   5
ENDBRANCH   2   4
ENDBRANCH   1   2
BRANCH   1   8
ATOM      8  C   UNL     1       9.871  -0.647  24.474  0.00  0.00    +0.128 C 
BRANCH   8   9
ATOM      9  C   UNL     1      10.119  -1.459  23.229  0.00  0.00    +0.307 C 
ATOM     10  O   UNL     1      10.139  -1.011  22.090  0.00  0.00    -0.251 OA
BRANCH   9  12
ATOM     11  C   UNL     1       9.294  -3.311  24.398  0.00  0.00    +0.280 C 
ATOM     12  O   UNL     1      10.314  -2.765  23.561  0.00  0.00    -0.468 OA
ENDBRANCH   9  12
ENDBRANCH   8   9
ENDBRANCH   1   8
TORSDOF 6
ENDMDL
MODEL 2
REMARK VINA RESULT:      -3.8      5.521      6.358
REMARK  Name = 
REMARK  7 active torsions:
REMARK  status: ('A' for Active; 'I' for Inactive)
REMARK    1  A    between atoms: C_1  and  O_2
REMARK    2  A    between atoms: O_2  and  C_3
REMARK    3  A    between atoms: C_3  and  C_5
REMARK    4  A    between atoms: C_5  and  C_6
REMARK    5  A    between atoms: C_6  and  C_7
REMARK    6  A    between atoms: C_7  and  C_9
REMARK    7  A    between atoms: C_9  and  N_10
REMARK                            x       y       z     vdW  Elec       q    Type
REMARK                         _______ _______ _______ _____ _____    ______ ____
ROOT
ATOM      1  C   UNL     1       6.914  -5.345  25.359  0.00  0.00    +0.087 C 
ENDROOT
BRANCH   1   2
ATOM      2  C   UNL     1       7.867  -5.335  26.535  0.00  0.00    +0.147 C 
ATOM      3  O   UNL     1       7.522  -5.691  27.664  0.00  0.00    -0.296 OA
BRANCH   2   4
ATOM      4  C   UNL     1       9.264  -4.777  26.255  0.00  0.00    +0.152 C 
BRANCH   4   5
ATOM      5  N   UNL     1       9.972  -5.636  25.304  0.00  0.00    -0.324 NA
ATOM      6  H   UNL     1       9.746  -6.612  25.488  0.00  0.00    +0.119 HD
ATOM      7  H   UNL     1       9.626  -5.426  24.364  0.00  0.00    +0.119 HD
ENDBRANCH   4   5
ENDBRANCH   2   4
ENDBRANCH   1   2
BRANCH   1   8
ATOM      8  C   UNL     1       6.875  -4.006  24.631  0.00  0.00    +0.128 C 
BRANCH   8   9
ATOM      9  C   UNL     1       7.392  -4.144  23.223  0.00  0.00    +0.307 C 
ATOM     10  O   UNL     1       7.526  -3.222  22.430  0.00  0.00    -0.251 OA
BRANCH   9  12
ATOM     11  C   UNL     1       7.079  -5.954  21.771  0.00  0.00    +0.280 C 
ATOM     12  O   UNL     1       7.682  -5.449  22.964  0.00  0.00    -0.468 OA
ENDBRANCH   9  12
ENDBRANCH   8   9
ENDBRANCH   1   8
TORSDOF 6
ENDMDL
MODEL 3
REMARK VINA RESULT:      -3.8      1.659      4.079
REMARK  Name = 
REMARK  7 active torsions:
REMARK  status: ('A' for Active; 'I' for Inactive)
REMARK    1  A    between atoms: C_1  and  O_2
REMARK    2  A    between atoms: O_2  and  C_3
REMARK    3  A    between atoms: C_3  and  C_5
REMARK    4  A    between atoms: C_5  and  C_6
REMARK    5  A    between atoms: C_6  and  C_7
REMARK    6  A    between atoms: C_7  and  C_9
REMARK    7  A    between atoms: C_9  and  N_10
REMARK                            x       y       z     vdW  Elec       q    Type
REMARK                         _______ _______ _______ _____ _____    ______ ____
ROOT
ATOM      1  C   UNL     1       9.217  -1.038  24.731  0.00  0.00    +0.087 C 
ENDROOT
BRANCH   1   2
ATOM      2  C   UNL     1       9.497  -2.139  23.731  0.00  0.00    +0.147 C 
ATOM      3  O   UNL     1      10.183  -3.125  24.013  0.00  0.00    -0.296 OA
BRANCH   2   4
ATOM      4  C   UNL     1       8.946  -1.915  22.322  0.00  0.00    +0.152 C 
BRANCH   4   5
ATOM      5  N   UNL     1      10.016  -1.483  21.420  0.00  0.00    -0.324 NA
ATOM      6  H   UNL     1       9.691  -0.705  20.849  0.00  0.00    +0.119 HD
ATOM      7  H   UNL     1      10.789  -1.128  21.989  0.00  0.00    +0.119 HD
ENDBRANCH   4   5
ENDBRANCH   2   4
ENDBRANCH   1   2
BRANCH   1   8
ATOM      8  C   UNL     1      10.341  -0.010  24.792  0.00  0.00    +0.128 C 
BRANCH   8   9
ATOM      9  C   UNL     1       9.911   1.292  24.168  0.00  0.00    +0.307 C 
ATOM     10  O   UNL     1       9.344   2.202  24.759  0.00  0.00    -0.251 OA
BRANCH   9  12
ATOM     11  C   UNL     1       9.272   1.932  22.009  0.00  0.00    +0.280 C 
ATOM     12  O   UNL     1      10.242   1.303  22.847  0.00  0.00    -0.468 OA
ENDBRANCH   9  12
ENDBRANCH   8   9
ENDBRANCH   1   8
TORSDOF 6
ENDMDL
MODEL 4
REMARK VINA RESULT:      -3.7      2.048      3.889
REMARK  Name = 
REMARK  7 active torsions:
REMARK  status: ('A' for Active; 'I' for Inactive)
REMARK    1  A    between atoms: C_1  and  O_2
REMARK    2  A    between atoms: O_2  and  C_3
REMARK    3  A    between atoms: C_3  and  C_5
REMARK    4  A    between atoms: C_5  and  C_6
REMARK    5  A    between atoms: C_6  and  C_7
REMARK    6  A    between atoms: C_7  and  C_9
REMARK    7  A    between atoms: C_9  and  N_10
REMARK                            x       y       z     vdW  Elec       q    Type
REMARK                         _______ _______ _______ _____ _____    ______ ____
ROOT
ATOM      1  C   UNL     1      10.540   0.199  24.487  0.00  0.00    +0.087 C 
ENDROOT
BRANCH   1   2
ATOM      2  C   UNL     1       9.664  -0.960  24.062  0.00  0.00    +0.147 C 
ATOM      3  O   UNL     1       8.548  -1.154  24.550  0.00  0.00    -0.296 OA
BRANCH   2   4
ATOM      4  C   UNL     1      10.282  -1.926  23.049  0.00  0.00    +0.152 C 
BRANCH   4   5
ATOM      5  N   UNL     1      10.135  -1.398  21.691  0.00  0.00    -0.324 NA
ATOM      6  H   UNL     1      10.020  -2.167  21.034  0.00  0.00    +0.119 HD
ATOM      7  H   UNL     1       9.274  -0.847  21.653  0.00  0.00    +0.119 HD
ENDBRANCH   4   5
ENDBRANCH   2   4
ENDBRANCH   1   2
BRANCH   1   8
ATOM      8  C   UNL     1       9.834   1.542  24.344  0.00  0.00    +0.128 C 
BRANCH   8   9
ATOM      9  C   UNL     1      10.412   2.333  23.199  0.00  0.00    +0.307 C 
ATOM     10  O   UNL     1      11.135   3.314  23.316  0.00  0.00    -0.251 OA
BRANCH   9  12
ATOM     11  C   UNL     1       8.599   1.886  21.788  0.00  0.00    +0.280 C 
ATOM     12  O   UNL     1      10.006   1.797  22.015  0.00  0.00    -0.468 OA
ENDBRANCH   9  12
ENDBRANCH   8   9
ENDBRANCH   1   8
TORSDOF 6
ENDMDL
MODEL 5
REMARK VINA RESULT:      -3.7      3.352      5.366
REMARK  Name = 
REMARK  7 active torsions:
REMARK  status: ('A' for Active; 'I' for Inactive)
REMARK    1  A    between atoms: C_1  and  O_2
REMARK    2  A    between atoms: O_2  and  C_3
REMARK    3  A    between atoms: C_3  and  C_5
REMARK    4  A    between atoms: C_5  and  C_6
REMARK    5  A    between atoms: C_6  and  C_7
REMARK    6  A    between atoms: C_7  and  C_9
REMARK    7  A    between atoms: C_9  and  N_10
REMARK                            x       y       z     vdW  Elec       q    Type
REMARK                         _______ _______ _______ _____ _____    ______ ____
ROOT
ATOM      1  C   UNL     1       8.785  -3.094  24.230  0.00  0.00    +0.087 C 
ENDROOT
BRANCH   1   2
ATOM      2  C   UNL     1       9.335  -4.158  25.154  0.00  0.00    +0.147 C 
ATOM      3  O   UNL     1      10.259  -4.905  24.822  0.00  0.00    -0.296 OA
BRANCH   2   4
ATOM      4  C   UNL     1       8.621  -4.307  26.499  0.00  0.00    +0.152 C 
BRANCH   4   5
ATOM      5  N   UNL     1       8.263  -5.708  26.731  0.00  0.00    -0.324 NA
ATOM      6  H   UNL     1       7.300  -5.767  27.058  0.00  0.00    +0.119 HD
ATOM      7  H   UNL     1       8.300  -6.200  25.835  0.00  0.00    +0.119 HD
ENDBRANCH   4   5
ENDBRANCH   2   4
ENDBRANCH   1   2
BRANCH   1   8
ATOM      8  C   UNL     1       9.385  -1.720  24.503  0.00  0.00    +0.128 C 
BRANCH   8   9
ATOM      9  C   UNL     1      10.177  -1.234  23.317  0.00  0.00    +0.307 C 
ATOM     10  O   UNL     1      10.568  -1.940  22.397  0.00  0.00    -0.251 OA
BRANCH   9  12
ATOM     11  C   UNL     1      10.744   0.534  24.743  0.00  0.00    +0.280 C 
ATOM     12  O   UNL     1      10.398   0.105  23.425  0.00  0.00    -0.468 OA
ENDBRANCH   9  12
ENDBRANCH   8   9
ENDBRANCH   1   8
TORSDOF 6
ENDMDL
MODEL 6
REMARK VINA RESULT:      -3.6      5.604      6.647
REMARK  Name = 
REMARK  7 active torsions:
REMARK  status: ('A' for Active; 'I' for Inactive)
REMARK    1  A    between atoms: C_1  and  O_2
REMARK    2  A    between atoms: O_2  and  C_3
REMARK    3  A    between atoms: C_3  and  C_5
REMARK    4  A    between atoms: C_5  and  C_6
REMARK    5  A    between atoms: C_6  and  C_7
REMARK    6  A    between atoms: C_7  and  C_9
REMARK    7  A    between atoms: C_9  and  N_10
REMARK                            x       y       z     vdW  Elec       q    Type
REMARK                         _______ _______ _______ _____ _____    ______ ____
ROOT
ATOM      1  C   UNL     1       8.129  -3.945  24.178  0.00  0.00    +0.087 C 
ENDROOT
BRANCH   1   2
ATOM      2  C   UNL     1       9.158  -4.459  25.162  0.00  0.00    +0.147 C 
ATOM      3  O   UNL     1      10.277  -4.838  24.806  0.00  0.00    -0.296 OA
BRANCH   2   4
ATOM      4  C   UNL     1       8.697  -4.559  26.617  0.00  0.00    +0.152 C 
BRANCH   4   5
ATOM      5  N   UNL     1       7.994  -5.824  26.841  0.00  0.00    -0.324 NA
ATOM      6  H   UNL     1       7.291  -5.960  26.117  0.00  0.00    +0.119 HD
ATOM      7  H   UNL     1       8.669  -6.587  26.743  0.00  0.00    +0.119 HD
ENDBRANCH   4   5
ENDBRANCH   2   4
ENDBRANCH   1   2
BRANCH   1   8
ATOM      8  C   UNL     1       7.644  -5.031  23.225  0.00  0.00    +0.128 C 
BRANCH   8   9
ATOM      9  C   UNL     1       6.253  -5.481  23.588  0.00  0.00    +0.307 C 
ATOM     10  O   UNL     1       5.745  -5.372  24.696  0.00  0.00    -0.251 OA
BRANCH   9  12
ATOM     11  C   UNL     1       6.271  -5.707  21.258  0.00  0.00    +0.280 C 
ATOM     12  O   UNL     1       5.647  -6.033  22.500  0.00  0.00    -0.468 OA
ENDBRANCH   9  12
ENDBRANCH   8   9
ENDBRANCH   1   8
TORSDOF 6
ENDMDL
MODEL 7
REMARK VINA RESULT:      -3.6      2.007      2.306
REMARK  Name = 
REMARK  7 active torsions:
REMARK  status: ('A' for Active; 'I' for Inactive)
REMARK    1  A    between atoms: C_1  and  O_2
REMARK    2  A    between atoms: O_2  and  C_3
REMARK    3  A    between atoms: C_3  and  C_5
REMARK    4  A    between atoms: C_5  and  C_6
REMARK    5  A    between atoms: C_6  and  C_7
REMARK    6  A    between atoms: C_7  and  C_9
REMARK    7  A    between atoms: C_9  and  N_10
REMARK                            x       y       z     vdW  Elec       q    Type
REMARK                         _______ _______ _______ _____ _____    ______ ____
ROOT
ATOM      1  C   UNL     1       9.895   1.094  21.906  0.00  0.00    +0.087 C 
ENDROOT
BRANCH   1   2
ATOM      2  C   UNL     1       9.317   1.334  23.284  0.00  0.00    +0.147 C 
ATOM      3  O   UNL     1       8.103   1.442  23.478  0.00  0.00    -0.296 OA
BRANCH   2   4
ATOM      4  C   UNL     1      10.335   1.516  24.411  0.00  0.00    +0.152 C 
BRANCH   4   5
ATOM      5  N   UNL     1      10.335   0.344  25.289  0.00  0.00    -0.324 NA
ATOM      6  H   UNL     1      11.294   0.060  25.483  0.00  0.00    +0.119 HD
ATOM      7  H   UNL     1       9.922   0.615  26.185  0.00  0.00    +0.119 HD
ENDBRANCH   4   5
ENDBRANCH   2   4
ENDBRANCH   1   2
BRANCH   1   8
ATOM      8  C   UNL     1       9.289  -0.129  21.227  0.00  0.00    +0.128 C 
BRANCH   8   9
ATOM      9  C   UNL     1       9.578  -1.379  22.016  0.00  0.00    +0.307 C 
ATOM     10  O   UNL     1      10.695  -1.778  22.316  0.00  0.00    -0.251 OA
BRANCH   9  12
ATOM     11  C   UNL     1       8.309  -2.368  23.716  0.00  0.00    +0.280 C 
ATOM     12  O   UNL     1       8.411  -2.001  22.340  0.00  0.00    -0.468 OA
ENDBRANCH   9  12
ENDBRANCH   8   9
ENDBRANCH   1   8
TORSDOF 6
ENDMDL
MODEL 8
REMARK VINA RESULT:      -3.5      6.199      7.019
REMARK  Name = 
REMARK  7 active torsions:
REMARK  status: ('A' for Active; 'I' for Inactive)
REMARK    1  A    between atoms: C_1  and  O_2
REMARK    2  A    between atoms: O_2  and  C_3
REMARK    3  A    between atoms: C_3  and  C_5
REMARK    4  A    between atoms: C_5  and  C_6
REMARK    5  A    between atoms: C_6  and  C_7
REMARK    6  A    between atoms: C_7  and  C_9
REMARK    7  A    between atoms: C_9  and  N_10
REMARK                            x       y       z     vdW  Elec       q    Type
REMARK                         _______ _______ _______ _____ _____    ______ ____
ROOT
ATOM      1  C   UNL     1       7.813  -5.126  23.349  0.00  0.00    +0.087 C 
ENDROOT
BRANCH   1   2
ATOM      2  C   UNL     1       8.445  -5.149  24.724  0.00  0.00    +0.147 C 
ATOM      3  O   UNL     1       9.667  -5.189  24.886  0.00  0.00    -0.296 OA
BRANCH   2   4
ATOM      4  C   UNL     1       7.472  -5.202  25.903  0.00  0.00    +0.152 C 
BRANCH   4   5
ATOM      5  N   UNL     1       8.162  -5.661  27.111  0.00  0.00    -0.324 NA
ATOM      6  H   UNL     1       8.838  -6.382  26.867  0.00  0.00    +0.119 HD
ATOM      7  H   UNL     1       8.695  -4.876  27.494  0.00  0.00    +0.119 HD
ENDBRANCH   4   5
ENDBRANCH   2   4
ENDBRANCH   1   2
BRANCH   1   8
ATOM      8  C   UNL     1       6.332  -5.484  23.385  0.00  0.00    +0.128 C 
BRANCH   8   9
ATOM      9  C   UNL     1       5.638  -5.023  22.129  0.00  0.00    +0.307 C 
ATOM     10  O   UNL     1       5.917  -5.393  20.996  0.00  0.00    -0.251 OA
BRANCH   9  12
ATOM     11  C   UNL     1       4.197  -4.222  23.790  0.00  0.00    +0.280 C 
ATOM     12  O   UNL     1       4.660  -4.129  22.443  0.00  0.00    -0.468 OA
ENDBRANCH   9  12
ENDBRANCH   8   9
ENDBRANCH   1   8
TORSDOF 6
ENDMDL
MODEL 9
REMARK VINA RESULT:      -3.5      2.985      4.509
REMARK  Name = 
REMARK  7 active torsions:
REMARK  status: ('A' for Active; 'I' for Inactive)
REMARK    1  A    between atoms: C_1  and  O_2
REMARK    2  A    between atoms: O_2  and  C_3
REMARK    3  A    between atoms: C_3  and  C_5
REMARK    4  A    between atoms: C_5  and  C_6
REMARK    5  A    between atoms: C_6  and  C_7
REMARK    6  A    between atoms: C_7  and  C_9
REMARK    7  A    between atoms: C_9  and  N_10
REMARK                            x       y       z     vdW  Elec       q    Type
REMARK                         _______ _______ _______ _____ _____    ______ ____
ROOT
ATOM      1  C   UNL     1       7.934  -2.549  23.466  0.00  0.00    +0.087 C 
ENDROOT
BRANCH   1   2
ATOM      2  C   UNL     1       9.424  -2.295  23.390  0.00  0.00    +0.147 C 
ATOM      3  O   UNL     1      10.249  -3.069  23.881  0.00  0.00    -0.296 OA
BRANCH   2   4
ATOM      4  C   UNL     1       9.842  -0.976  22.739  0.00  0.00    +0.152 C 
BRANCH   4   5
ATOM      5  N   UNL     1       9.790  -1.091  21.279  0.00  0.00    -0.324 NA
ATOM      6  H   UNL     1      10.471  -0.461  20.860  0.00  0.00    +0.119 HD
ATOM      7  H   UNL     1      10.070  -2.041  21.023  0.00  0.00    +0.119 HD
ENDBRANCH   4   5
ENDBRANCH   2   4
ENDBRANCH   1   2
BRANCH   1   8
ATOM      8  C   UNL     1       7.478  -3.624  22.487  0.00  0.00    +0.128 C 
BRANCH   8   9
ATOM      9  C   UNL     1       7.491  -4.983  23.137  0.00  0.00    +0.307 C 
ATOM     10  O   UNL     1       7.612  -5.186  24.338  0.00  0.00    -0.251 OA
BRANCH   9  12
ATOM     11  C   UNL     1       6.401  -5.640  21.173  0.00  0.00    +0.280 C 
ATOM     12  O   UNL     1       7.355  -5.951  22.189  0.00  0.00    -0.468 OA
ENDBRANCH   9  12
ENDBRANCH   8   9
ENDBRANCH   1   8
TORSDOF 6
ENDMDL
