MODEL 1
REMARK VINA RESULT:      -6.8      0.000      0.000
REMARK  Name = 
REMARK  7 active torsions:
REMARK  status: ('A' for Active; 'I' for Inactive)
REMARK    1  A    between atoms: C_2  and  O_3
REMARK    2  A    between atoms: C_2  and  C_4
REMARK    3  A    between atoms: C_2  and  C_10
REMARK    4  A    between atoms: C_13  and  O_14
REMARK    5  A    between atoms: O_14  and  C_15
REMARK    6  A    between atoms: C_15  and  C_16
REMARK    7  A    between atoms: C_16  and  N_17
REMARK                            x       y       z     vdW  Elec       q    Type
REMARK                         _______ _______ _______ _____ _____    ______ ____
ROOT
ATOM      1  C   UNL     1       9.690   1.930  23.334  0.00  0.00    -0.015 A 
ATOM      2  C   UNL     1      10.022   1.210  24.495  0.00  0.00    +0.010 A 
ATOM      3  C   UNL     1      10.240  -0.176  24.438  0.00  0.00    +0.046 A 
ATOM      4  C   UNL     1      10.140  -0.856  23.224  0.00  0.00    +0.121 A 
ATOM      5  C   UNL     1       9.893  -0.123  22.059  0.00  0.00    +0.046 A 
ATOM      6  C   UNL     1       9.664   1.247  22.114  0.00  0.00    +0.010 A 
ENDROOT
BRANCH   1   7
ATOM      7  C   UNL     1       9.231   3.375  23.409  0.00  0.00    +0.175 C 
BRANCH   7   8
ATOM      8  C   UNL     1      10.339   4.386  23.682  0.00  0.00    -0.012 A 
ATOM      9  C   UNL     1      10.036   5.552  24.393  0.00  0.00    +0.026 A 
ATOM     10  C   UNL     1      11.041   6.469  24.652  0.00  0.00    +0.111 A 
ATOM     11  N   UNL     1      12.322   6.315  24.250  0.00  0.00    -0.263 NA
ATOM     12  C   UNL     1      12.601   5.193  23.558  0.00  0.00    +0.111 A 
ATOM     13  C   UNL     1      11.663   4.217  23.256  0.00  0.00    +0.026 A 
ENDBRANCH   7   8
BRANCH   7  14
ATOM     14  O   UNL     1       8.242   3.489  24.441  0.00  0.00    -0.383 OA
ATOM     15  H   UNL     1       7.594   2.780  24.289  0.00  0.00    +0.211 HD
ENDBRANCH   7  14
ENDBRANCH   1   7
BRANCH   4  16
ATOM     16  O   UNL     1      10.264  -2.228  23.259  0.00  0.00    -0.491 OA
BRANCH  16  17
ATOM     17  C   UNL     1       9.429  -2.836  24.255  0.00  0.00    +0.244 C 
BRANCH  17  18
ATOM     18  C   UNL     1       7.955  -2.911  23.851  0.00  0.00    +0.125 C 
BRANCH  18  19
ATOM     19  N   UNL     1       7.760  -3.877  22.755  0.00  0.00    -0.299 NA
ATOM     20  C   UNL     1       6.550  -3.649  21.956  0.00  0.00    +0.084 C 
ATOM     21  C   UNL     1       6.141  -5.017  21.425  0.00  0.00    +0.017 C 
ATOM     22  C   UNL     1       7.150  -5.989  22.014  0.00  0.00    +0.017 C 
ATOM     23  C   UNL     1       7.698  -5.257  23.225  0.00  0.00    +0.084 C 
ENDBRANCH  18  19
ENDBRANCH  17  18
ENDBRANCH  16  17
ENDBRANCH   4  16
TORSDOF 7
ENDMDL
MODEL 2
REMARK VINA RESULT:      -6.8      2.458      3.282
REMARK  Name = 
REMARK  7 active torsions:
REMARK  status: ('A' for Active; 'I' for Inactive)
REMARK    1  A    between atoms: C_2  and  O_3
REMARK    2  A    between atoms: C_2  and  C_4
REMARK    3  A    between atoms: C_2  and  C_10
REMARK    4  A    between atoms: C_13  and  O_14
REMARK    5  A    between atoms: O_14  and  C_15
REMARK    6  A    between atoms: C_15  and  C_16
REMARK    7  A    between atoms: C_16  and  N_17
REMARK                            x       y       z     vdW  Elec       q    Type
REMARK                         _______ _______ _______ _____ _____    ______ ____
ROOT
ATOM      1  C   UNL     1       9.647   0.726  23.084  0.00  0.00    -0.015 A 
ATOM      2  C   UNL     1       9.858  -0.235  22.080  0.00  0.00    +0.010 A 
ATOM      3  C   UNL     1       9.990  -1.594  22.407  0.00  0.00    +0.046 A 
ATOM      4  C   UNL     1       9.902  -2.011  23.736  0.00  0.00    +0.121 A 
ATOM      5  C   UNL     1       9.609  -1.062  24.721  0.00  0.00    +0.046 A 
ATOM      6  C   UNL     1       9.490   0.285  24.402  0.00  0.00    +0.010 A 
ENDROOT
BRANCH   1   7
ATOM      7  C   UNL     1       9.729   2.211  22.781  0.00  0.00    +0.175 C 
BRANCH   7   8
ATOM      8  C   UNL     1       8.391   2.941  22.788  0.00  0.00    -0.012 A 
ATOM      9  C   UNL     1       8.300   4.189  23.412  0.00  0.00    +0.026 A 
ATOM     10  C   UNL     1       7.089   4.862  23.412  0.00  0.00    +0.111 A 
ATOM     11  N   UNL     1       5.962   4.381  22.845  0.00  0.00    -0.263 NA
ATOM     12  C   UNL     1       6.058   3.173  22.253  0.00  0.00    +0.111 A 
ATOM     13  C   UNL     1       7.227   2.430  22.198  0.00  0.00    +0.026 A 
ENDBRANCH   7   8
BRANCH   7  14
ATOM     14  O   UNL     1      10.340   2.385  21.495  0.00  0.00    -0.383 OA
ATOM     15  H   UNL     1      10.133   1.588  20.976  0.00  0.00    +0.211 HD
ENDBRANCH   7  14
ENDBRANCH   1   7
BRANCH   4  16
ATOM     16  O   UNL     1      10.144  -3.342  23.996  0.00  0.00    -0.491 OA
BRANCH  16  17
ATOM     17  C   UNL     1       9.159  -3.928  24.859  0.00  0.00    +0.244 C 
BRANCH  17  18
ATOM     18  C   UNL     1       8.329  -5.021  24.183  0.00  0.00    +0.125 C 
BRANCH  18  19
ATOM     19  N   UNL     1       7.038  -4.486  23.714  0.00  0.00    -0.299 NA
ATOM     20  C   UNL     1       7.058  -3.979  22.337  0.00  0.00    +0.084 C 
ATOM     21  C   UNL     1       5.993  -2.890  22.280  0.00  0.00    +0.017 C 
ATOM     22  C   UNL     1       5.441  -2.802  23.694  0.00  0.00    +0.017 C 
ATOM     23  C   UNL     1       6.540  -3.400  24.553  0.00  0.00    +0.084 C 
ENDBRANCH  18  19
ENDBRANCH  17  18
ENDBRANCH  16  17
ENDBRANCH   4  16
TORSDOF 7
ENDMDL
MODEL 3
REMARK VINA RESULT:      -6.7      2.385      3.124
REMARK  Name = 
REMARK  7 active torsions:
REMARK  status: ('A' for Active; 'I' for Inactive)
REMARK    1  A    between atoms: C_2  and  O_3
REMARK    2  A    between atoms: C_2  and  C_4
REMARK    3  A    between atoms: C_2  and  C_10
REMARK    4  A    between atoms: C_13  and  O_14
REMARK    5  A    between atoms: O_14  and  C_15
REMARK    6  A    between atoms: C_15  and  C_16
REMARK    7  A    between atoms: C_16  and  N_17
REMARK                            x       y       z     vdW  Elec       q    Type
REMARK                         _______ _______ _______ _____ _____    ______ ____
ROOT
ATOM      1  C   UNL     1       9.720   0.729  23.126  0.00  0.00    -0.015 A 
ATOM      2  C   UNL     1      10.048  -0.216  22.138  0.00  0.00    +0.010 A 
ATOM      3  C   UNL     1      10.128  -1.581  22.454  0.00  0.00    +0.046 A 
ATOM      4  C   UNL     1       9.873  -2.021  23.754  0.00  0.00    +0.121 A 
ATOM      5  C   UNL     1       9.467  -1.088  24.712  0.00  0.00    +0.046 A 
ATOM      6  C   UNL     1       9.398   0.266  24.406  0.00  0.00    +0.010 A 
ENDROOT
BRANCH   1   7
ATOM      7  C   UNL     1       9.849   2.219  22.864  0.00  0.00    +0.175 C 
BRANCH   7   8
ATOM      8  C   UNL     1       8.553   3.009  23.006  0.00  0.00    -0.012 A 
ATOM      9  C   UNL     1       7.506   2.764  22.112  0.00  0.00    +0.026 A 
ATOM     10  C   UNL     1       6.322   3.471  22.243  0.00  0.00    +0.111 A 
ATOM     11  N   UNL     1       6.108   4.409  23.192  0.00  0.00    -0.263 NA
ATOM     12  C   UNL     1       7.126   4.644  24.043  0.00  0.00    +0.111 A 
ATOM     13  C   UNL     1       8.344   3.982  23.992  0.00  0.00    +0.026 A 
ENDBRANCH   7   8
BRANCH   7  14
ATOM     14  O   UNL     1      10.359   2.409  21.537  0.00  0.00    -0.383 OA
ATOM     15  H   UNL     1      10.958   1.663  21.357  0.00  0.00    +0.211 HD
ENDBRANCH   7  14
ENDBRANCH   1   7
BRANCH   4  16
ATOM     16  O   UNL     1      10.072  -3.359  24.016  0.00  0.00    -0.491 OA
BRANCH  16  17
ATOM     17  C   UNL     1       9.109  -3.894  24.936  0.00  0.00    +0.244 C 
BRANCH  17  18
ATOM     18  C   UNL     1       8.443  -5.180  24.442  0.00  0.00    +0.125 C 
BRANCH  18  19
ATOM     19  N   UNL     1       7.507  -4.896  23.339  0.00  0.00    -0.299 NA
ATOM     20  C   UNL     1       6.106  -4.760  23.754  0.00  0.00    +0.084 C 
ATOM     21  C   UNL     1       5.273  -5.187  22.552  0.00  0.00    +0.017 C 
ATOM     22  C   UNL     1       6.286  -5.605  21.498  0.00  0.00    +0.017 C 
ATOM     23  C   UNL     1       7.538  -5.917  22.297  0.00  0.00    +0.084 C 
ENDBRANCH  18  19
ENDBRANCH  17  18
ENDBRANCH  16  17
ENDBRANCH   4  16
TORSDOF 7
ENDMDL
MODEL 4
REMARK VINA RESULT:      -6.6      1.378      2.176
REMARK  Name = 
REMARK  7 active torsions:
REMARK  status: ('A' for Active; 'I' for Inactive)
REMARK    1  A    between atoms: C_2  and  O_3
REMARK    2  A    between atoms: C_2  and  C_4
REMARK    3  A    between atoms: C_2  and  C_10
REMARK    4  A    between atoms: C_13  and  O_14
REMARK    5  A    between atoms: O_14  and  C_15
REMARK    6  A    between atoms: C_15  and  C_16
REMARK    7  A    between atoms: C_16  and  N_17
REMARK                            x       y       z     vdW  Elec       q    Type
REMARK                         _______ _______ _______ _____ _____    ______ ____
ROOT
ATOM      1  C   UNL     1       9.709   2.192  23.200  0.00  0.00    -0.015 A 
ATOM      2  C   UNL     1      10.246   1.419  24.244  0.00  0.00    +0.010 A 
ATOM      3  C   UNL     1      10.516   0.054  24.058  0.00  0.00    +0.046 A 
ATOM      4  C   UNL     1      10.264  -0.552  22.826  0.00  0.00    +0.121 A 
ATOM      5  C   UNL     1       9.809   0.239  21.766  0.00  0.00    +0.046 A 
ATOM      6  C   UNL     1       9.529   1.587  21.951  0.00  0.00    +0.010 A 
ENDROOT
BRANCH   1   7
ATOM      7  C   UNL     1       9.201   3.601  23.445  0.00  0.00    +0.175 C 
BRANCH   7   8
ATOM      8  C   UNL     1      10.280   4.619  23.797  0.00  0.00    -0.012 A 
ATOM      9  C   UNL     1       9.949   5.706  24.613  0.00  0.00    +0.026 A 
ATOM     10  C   UNL     1      10.928   6.628  24.945  0.00  0.00    +0.111 A 
ATOM     11  N   UNL     1      12.208   6.553  24.518  0.00  0.00    -0.263 NA
ATOM     12  C   UNL     1      12.514   5.506  23.725  0.00  0.00    +0.111 A 
ATOM     13  C   UNL     1      11.603   4.532  23.346  0.00  0.00    +0.026 A 
ENDBRANCH   7   8
BRANCH   7  14
ATOM     14  O   UNL     1       8.240   3.565  24.508  0.00  0.00    -0.383 OA
ATOM     15  H   UNL     1       8.234   4.449  24.913  0.00  0.00    +0.211 HD
ENDBRANCH   7  14
ENDBRANCH   1   7
BRANCH   4  16
ATOM     16  O   UNL     1      10.454  -1.915  22.745  0.00  0.00    -0.491 OA
BRANCH  16  17
ATOM     17  C   UNL     1       9.746  -2.636  23.763  0.00  0.00    +0.244 C 
BRANCH  17  18
ATOM     18  C   UNL     1       8.351  -3.091  23.328  0.00  0.00    +0.125 C 
BRANCH  18  19
ATOM     19  N   UNL     1       7.307  -2.313  24.020  0.00  0.00    -0.299 NA
ATOM     20  C   UNL     1       6.790  -1.175  23.250  0.00  0.00    +0.084 C 
ATOM     21  C   UNL     1       6.337  -0.148  24.281  0.00  0.00    +0.017 C 
ATOM     22  C   UNL     1       6.681  -0.762  25.628  0.00  0.00    +0.017 C 
ATOM     23  C   UNL     1       7.757  -1.781  25.302  0.00  0.00    +0.084 C 
ENDBRANCH  18  19
ENDBRANCH  17  18
ENDBRANCH  16  17
ENDBRANCH   4  16
TORSDOF 7
ENDMDL
MODEL 5
REMARK VINA RESULT:      -6.5      2.274      7.859
REMARK  Name = 
REMARK  7 active torsions:
REMARK  status: ('A' for Active; 'I' for Inactive)
REMARK    1  A    between atoms: C_2  and  O_3
REMARK    2  A    between atoms: C_2  and  C_4
REMARK    3  A    between atoms: C_2  and  C_10
REMARK    4  A    between atoms: C_13  and  O_14
REMARK    5  A    between atoms: O_14  and  C_15
REMARK    6  A    between atoms: C_15  and  C_16
REMARK    7  A    between atoms: C_16  and  N_17
REMARK                            x       y       z     vdW  Elec       q    Type
REMARK                         _______ _______ _______ _____ _____    ______ ____
ROOT
ATOM      1  C   UNL     1       8.887  -3.291  24.700  0.00  0.00    -0.015 A 
ATOM      2  C   UNL     1       9.817  -2.638  23.872  0.00  0.00    +0.010 A 
ATOM      3  C   UNL     1      10.164  -1.298  24.106  0.00  0.00    +0.046 A 
ATOM      4  C   UNL     1       9.598  -0.598  25.173  0.00  0.00    +0.121 A 
ATOM      5  C   UNL     1       8.738  -1.276  26.042  0.00  0.00    +0.046 A 
ATOM      6  C   UNL     1       8.383  -2.599  25.806  0.00  0.00    +0.010 A 
ENDROOT
BRANCH   1   7
ATOM      7  C   UNL     1       8.329  -4.655  24.334  0.00  0.00    +0.175 C 
BRANCH   7   8
ATOM      8  C   UNL     1       7.433  -4.671  23.102  0.00  0.00    -0.012 A 
ATOM      9  C   UNL     1       7.365  -5.832  22.325  0.00  0.00    +0.026 A 
ATOM     10  C   UNL     1       6.543  -5.856  21.210  0.00  0.00    +0.111 A 
ATOM     11  N   UNL     1       5.792  -4.808  20.807  0.00  0.00    -0.263 NA
ATOM     12  C   UNL     1       5.871  -3.691  21.558  0.00  0.00    +0.111 A 
ATOM     13  C   UNL     1       6.660  -3.576  22.692  0.00  0.00    +0.026 A 
ENDBRANCH   7   8
BRANCH   7  14
ATOM     14  O   UNL     1       7.585  -5.161  25.450  0.00  0.00    -0.383 OA
ATOM     15  H   UNL     1       6.839  -4.553  25.590  0.00  0.00    +0.211 HD
ENDBRANCH   7  14
ENDBRANCH   1   7
BRANCH   4  16
ATOM     16  O   UNL     1       9.904   0.741  25.280  0.00  0.00    -0.491 OA
BRANCH  16  17
ATOM     17  C   UNL     1      10.843   1.177  24.287  0.00  0.00    +0.244 C 
BRANCH  17  18
ATOM     18  C   UNL     1      10.549   2.578  23.745  0.00  0.00    +0.125 C 
BRANCH  18  19
ATOM     19  N   UNL     1       9.564   2.521  22.650  0.00  0.00    -0.299 NA
ATOM     20  C   UNL     1       8.166   2.608  23.088  0.00  0.00    +0.084 C 
ATOM     21  C   UNL     1       7.356   1.848  22.045  0.00  0.00    +0.017 C 
ATOM     22  C   UNL     1       8.383   1.310  21.062  0.00  0.00    +0.017 C 
ATOM     23  C   UNL     1       9.678   1.304  21.853  0.00  0.00    +0.084 C 
ENDBRANCH  18  19
ENDBRANCH  17  18
ENDBRANCH  16  17
ENDBRANCH   4  16
TORSDOF 7
ENDMDL
MODEL 6
REMARK VINA RESULT:      -6.5      1.742      2.355
REMARK  Name = 
REMARK  7 active torsions:
REMARK  status: ('A' for Active; 'I' for Inactive)
REMARK    1  A    between atoms: C_2  and  O_3
REMARK    2  A    between atoms: C_2  and  C_4
REMARK    3  A    between atoms: C_2  and  C_10
REMARK    4  A    between atoms: C_13  and  O_14
REMARK    5  A    between atoms: O_14  and  C_15
REMARK    6  A    between atoms: C_15  and  C_16
REMARK    7  A    between atoms: C_16  and  N_17
REMARK                            x       y       z     vdW  Elec       q    Type
REMARK                         _______ _______ _______ _____ _____    ______ ____
ROOT
ATOM      1  C   UNL     1      10.487   2.031  23.181  0.00  0.00    -0.015 A 
ATOM      2  C   UNL     1      10.700   0.890  23.975  0.00  0.00    +0.010 A 
ATOM      3  C   UNL     1      10.228  -0.366  23.563  0.00  0.00    +0.046 A 
ATOM      4  C   UNL     1       9.549  -0.501  22.351  0.00  0.00    +0.121 A 
ATOM      5  C   UNL     1       9.413   0.620  21.526  0.00  0.00    +0.046 A 
ATOM      6  C   UNL     1       9.869   1.867  21.937  0.00  0.00    +0.010 A 
ENDROOT
BRANCH   1   7
ATOM      7  C   UNL     1      10.785   3.423  23.708  0.00  0.00    +0.175 C 
BRANCH   7   8
ATOM      8  C   UNL     1       9.555   4.275  23.997  0.00  0.00    -0.012 A 
ATOM      9  C   UNL     1       9.549   5.617  23.602  0.00  0.00    +0.026 A 
ATOM     10  C   UNL     1       8.430   6.393  23.853  0.00  0.00    +0.111 A 
ATOM     11  N   UNL     1       7.321   5.936  24.475  0.00  0.00    -0.263 NA
ATOM     12  C   UNL     1       7.340   4.644  24.859  0.00  0.00    +0.111 A 
ATOM     13  C   UNL     1       8.412   3.790  24.646  0.00  0.00    +0.026 A 
ENDBRANCH   7   8
BRANCH   7  14
ATOM     14  O   UNL     1      11.605   4.109  22.753  0.00  0.00    -0.383 OA
ATOM     15  H   UNL     1      12.364   3.530  22.566  0.00  0.00    +0.211 HD
ENDBRANCH   7  14
ENDBRANCH   1   7
BRANCH   4  16
ATOM     16  O   UNL     1       9.023  -1.741  22.059  0.00  0.00    -0.491 OA
BRANCH  16  17
ATOM     17  C   UNL     1       8.586  -2.448  23.228  0.00  0.00    +0.244 C 
BRANCH  17  18
ATOM     18  C   UNL     1       7.063  -2.551  23.343  0.00  0.00    +0.125 C 
BRANCH  18  19
ATOM     19  N   UNL     1       6.600  -3.905  22.988  0.00  0.00    -0.299 NA
ATOM     20  C   UNL     1       7.600  -4.959  23.191  0.00  0.00    +0.084 C 
ATOM     21  C   UNL     1       7.271  -6.045  22.175  0.00  0.00    +0.017 C 
ATOM     22  C   UNL     1       6.088  -5.505  21.388  0.00  0.00    +0.017 C 
ATOM     23  C   UNL     1       6.163  -4.004  21.599  0.00  0.00    +0.084 C 
ENDBRANCH  18  19
ENDBRANCH  17  18
ENDBRANCH  16  17
ENDBRANCH   4  16
TORSDOF 7
ENDMDL
MODEL 7
REMARK VINA RESULT:      -6.5      1.966      2.884
REMARK  Name = 
REMARK  7 active torsions:
REMARK  status: ('A' for Active; 'I' for Inactive)
REMARK    1  A    between atoms: C_2  and  O_3
REMARK    2  A    between atoms: C_2  and  C_4
REMARK    3  A    between atoms: C_2  and  C_10
REMARK    4  A    between atoms: C_13  and  O_14
REMARK    5  A    between atoms: O_14  and  C_15
REMARK    6  A    between atoms: C_15  and  C_16
REMARK    7  A    between atoms: C_16  and  N_17
REMARK                            x       y       z     vdW  Elec       q    Type
REMARK                         _______ _______ _______ _____ _____    ______ ____
ROOT
ATOM      1  C   UNL     1      10.478   2.299  23.393  0.00  0.00    -0.015 A 
ATOM      2  C   UNL     1       9.992   1.908  22.133  0.00  0.00    +0.010 A 
ATOM      3  C   UNL     1       9.781   0.552  21.838  0.00  0.00    +0.046 A 
ATOM      4  C   UNL     1      10.041  -0.427  22.798  0.00  0.00    +0.121 A 
ATOM      5  C   UNL     1      10.444  -0.027  24.075  0.00  0.00    +0.046 A 
ATOM      6  C   UNL     1      10.666   1.313  24.367  0.00  0.00    +0.010 A 
ENDROOT
BRANCH   1   7
ATOM      7  C   UNL     1      10.925   3.726  23.655  0.00  0.00    +0.175 C 
BRANCH   7   8
ATOM      8  C   UNL     1       9.795   4.712  23.930  0.00  0.00    -0.012 A 
ATOM      9  C   UNL     1       8.674   4.278  24.644  0.00  0.00    +0.026 A 
ATOM     10  C   UNL     1       7.649   5.172  24.907  0.00  0.00    +0.111 A 
ATOM     11  N   UNL     1       7.654   6.462  24.505  0.00  0.00    -0.263 NA
ATOM     12  C   UNL     1       8.736   6.867  23.810  0.00  0.00    +0.111 A 
ATOM     13  C   UNL     1       9.811   6.047  23.505  0.00  0.00    +0.026 A 
ENDBRANCH   7   8
BRANCH   7  14
ATOM     14  O   UNL     1      11.672   4.189  22.522  0.00  0.00    -0.383 OA
ATOM     15  H   UNL     1      11.164   4.921  22.130  0.00  0.00    +0.211 HD
ENDBRANCH   7  14
ENDBRANCH   1   7
BRANCH   4  16
ATOM     16  O   UNL     1       9.912  -1.742  22.406  0.00  0.00    -0.491 OA
BRANCH  16  17
ATOM     17  C   UNL     1       8.552  -2.109  22.132  0.00  0.00    +0.244 C 
BRANCH  17  18
ATOM     18  C   UNL     1       7.720  -2.353  23.393  0.00  0.00    +0.125 C 
BRANCH  18  19
ATOM     19  N   UNL     1       8.322  -3.415  24.220  0.00  0.00    -0.299 NA
ATOM     20  C   UNL     1       7.494  -4.618  24.358  0.00  0.00    +0.084 C 
ATOM     21  C   UNL     1       7.866  -5.227  25.704  0.00  0.00    +0.017 C 
ATOM     22  C   UNL     1       8.888  -4.272  26.300  0.00  0.00    +0.017 C 
ATOM     23  C   UNL     1       8.635  -2.965  25.573  0.00  0.00    +0.084 C 
ENDBRANCH  18  19
ENDBRANCH  17  18
ENDBRANCH  16  17
ENDBRANCH   4  16
TORSDOF 7
ENDMDL
MODEL 8
REMARK VINA RESULT:      -6.3      1.545      1.963
REMARK  Name = 
REMARK  7 active torsions:
REMARK  status: ('A' for Active; 'I' for Inactive)
REMARK    1  A    between atoms: C_2  and  O_3
REMARK    2  A    between atoms: C_2  and  C_4
REMARK    3  A    between atoms: C_2  and  C_10
REMARK    4  A    between atoms: C_13  and  O_14
REMARK    5  A    between atoms: O_14  and  C_15
REMARK    6  A    between atoms: C_15  and  C_16
REMARK    7  A    between atoms: C_16  and  N_17
REMARK                            x       y       z     vdW  Elec       q    Type
REMARK                         _______ _______ _______ _____ _____    ______ ____
ROOT
ATOM      1  C   UNL     1       9.644   1.330  23.717  0.00  0.00    -0.015 A 
ATOM      2  C   UNL     1       8.307   1.030  23.401  0.00  0.00    +0.010 A 
ATOM      3  C   UNL     1       7.604   0.053  24.124  0.00  0.00    +0.046 A 
ATOM      4  C   UNL     1       8.222  -0.626  25.176  0.00  0.00    +0.121 A 
ATOM      5  C   UNL     1       9.523  -0.265  25.539  0.00  0.00    +0.046 A 
ATOM      6  C   UNL     1      10.225   0.693  24.818  0.00  0.00    +0.010 A 
ENDROOT
BRANCH   1   7
ATOM      7  C   UNL     1      10.487   2.210  22.812  0.00  0.00    +0.175 C 
BRANCH   7   8
ATOM      8  C   UNL     1      10.702   3.632  23.320  0.00  0.00    -0.012 A 
ATOM      9  C   UNL     1       9.622   4.326  23.875  0.00  0.00    +0.026 A 
ATOM     10  C   UNL     1       9.815   5.614  24.348  0.00  0.00    +0.111 A 
ATOM     11  N   UNL     1      10.998   6.263  24.301  0.00  0.00    -0.263 NA
ATOM     12  C   UNL     1      12.030   5.589  23.756  0.00  0.00    +0.111 A 
ATOM     13  C   UNL     1      11.934   4.296  23.263  0.00  0.00    +0.026 A 
ENDBRANCH   7   8
BRANCH   7  14
ATOM     14  O   UNL     1       9.864   2.273  21.522  0.00  0.00    -0.383 OA
ATOM     15  H   UNL     1       8.906   2.182  21.668  0.00  0.00    +0.211 HD
ENDBRANCH   7  14
ENDBRANCH   1   7
BRANCH   4  16
ATOM     16  O   UNL     1       7.508  -1.643  25.773  0.00  0.00    -0.491 OA
BRANCH  16  17
ATOM     17  C   UNL     1       7.099  -2.655  24.843  0.00  0.00    +0.244 C 
BRANCH  17  18
ATOM     18  C   UNL     1       8.256  -3.518  24.332  0.00  0.00    +0.125 C 
BRANCH  18  19
ATOM     19  N   UNL     1       7.929  -4.113  23.024  0.00  0.00    -0.299 NA
ATOM     20  C   UNL     1       6.897  -3.391  22.272  0.00  0.00    +0.084 C 
ATOM     21  C   UNL     1       6.209  -4.437  21.403  0.00  0.00    +0.017 C 
ATOM     22  C   UNL     1       6.882  -5.752  21.760  0.00  0.00    +0.017 C 
ATOM     23  C   UNL     1       7.479  -5.497  23.131  0.00  0.00    +0.084 C 
ENDBRANCH  18  19
ENDBRANCH  17  18
ENDBRANCH  16  17
ENDBRANCH   4  16
TORSDOF 7
ENDMDL
MODEL 9
REMARK VINA RESULT:      -6.3      2.676      4.320
REMARK  Name = 
REMARK  7 active torsions:
REMARK  status: ('A' for Active; 'I' for Inactive)
REMARK    1  A    between atoms: C_2  and  O_3
REMARK    2  A    between atoms: C_2  and  C_4
REMARK    3  A    between atoms: C_2  and  C_10
REMARK    4  A    between atoms: C_13  and  O_14
REMARK    5  A    between atoms: O_14  and  C_15
REMARK    6  A    between atoms: C_15  and  C_16
REMARK    7  A    between atoms: C_16  and  N_17
REMARK                            x       y       z     vdW  Elec       q    Type
REMARK                         _______ _______ _______ _____ _____    ______ ____
ROOT
ATOM      1  C   UNL     1       9.590  -1.769  24.118  0.00  0.00    -0.015 A 
ATOM      2  C   UNL     1       9.578  -3.167  23.971  0.00  0.00    +0.010 A 
ATOM      3  C   UNL     1       9.048  -3.987  24.980  0.00  0.00    +0.046 A 
ATOM      4  C   UNL     1       8.514  -3.422  26.140  0.00  0.00    +0.121 A 
ATOM      5  C   UNL     1       8.453  -2.029  26.244  0.00  0.00    +0.046 A 
ATOM      6  C   UNL     1       8.988  -1.216  25.253  0.00  0.00    +0.010 A 
ENDROOT
BRANCH   1   7
ATOM      7  C   UNL     1      10.357  -0.883  23.153  0.00  0.00    +0.175 C 
BRANCH   7   8
ATOM      8  C   UNL     1       9.695   0.456  22.847  0.00  0.00    -0.012 A 
ATOM      9  C   UNL     1      10.134   1.600  23.521  0.00  0.00    +0.026 A 
ATOM     10  C   UNL     1       9.543   2.821  23.239  0.00  0.00    +0.111 A 
ATOM     11  N   UNL     1       8.544   2.985  22.344  0.00  0.00    -0.263 NA
ATOM     12  C   UNL     1       8.123   1.874  21.707  0.00  0.00    +0.111 A 
ATOM     13  C   UNL     1       8.658   0.612  21.919  0.00  0.00    +0.026 A 
ENDBRANCH   7   8
BRANCH   7  14
ATOM     14  O   UNL     1      10.541  -1.596  21.922  0.00  0.00    -0.383 OA
ATOM     15  H   UNL     1      10.159  -1.044  21.218  0.00  0.00    +0.211 HD
ENDBRANCH   7  14
ENDBRANCH   1   7
BRANCH   4  16
ATOM     16  O   UNL     1       8.106  -4.289  27.131  0.00  0.00    -0.491 OA
BRANCH  16  17
ATOM     17  C   UNL     1       7.211  -5.301  26.650  0.00  0.00    +0.244 C 
BRANCH  17  18
ATOM     18  C   UNL     1       5.740  -4.882  26.688  0.00  0.00    +0.125 C 
BRANCH  18  19
ATOM     19  N   UNL     1       5.200  -4.736  25.324  0.00  0.00    -0.299 NA
ATOM     20  C   UNL     1       5.866  -5.572  24.318  0.00  0.00    +0.084 C 
ATOM     21  C   UNL     1       5.727  -4.822  22.998  0.00  0.00    +0.017 C 
ATOM     22  C   UNL     1       5.006  -3.532  23.351  0.00  0.00    +0.017 C 
ATOM     23  C   UNL     1       5.265  -3.362  24.837  0.00  0.00    +0.084 C 
ENDBRANCH  18  19
ENDBRANCH  17  18
ENDBRANCH  16  17
ENDBRANCH   4  16
TORSDOF 7
ENDMDL
