MODEL 1
REMARK VINA RESULT:      -4.0      0.000      0.000
REMARK  Name = 
REMARK  10 active torsions:
REMARK  status: ('A' for Active; 'I' for Inactive)
REMARK    1  A    between atoms: O_1  and  C_2
REMARK    2  A    between atoms: C_2  and  C_4
REMARK    3  A    between atoms: C_2  and  C_10
REMARK    4  A    between atoms: C_4  and  O_5
REMARK    5  A    between atoms: O_5  and  P_6
REMARK    6  A    between atoms: P_6  and  O_7
REMARK    7  A    between atoms: P_6  and  O_8
REMARK    8  A    between atoms: C_10  and  O_12
REMARK    9  A    between atoms: C_10  and  C_13
REMARK   10  A    between atoms: C_13  and  O_14
REMARK                            x       y       z     vdW  Elec       q    Type
REMARK                         _______ _______ _______ _____ _____    ______ ____
ROOT
ATOM      1  C   UNL     1       6.518  -3.558  25.585  0.00  0.00    +0.180 C 
ENDROOT
BRANCH   1   2
ATOM      2  O   UNL     1       6.710  -3.007  26.895  0.00  0.00    -0.386 OA
ATOM      3  H   UNL     1       7.446  -2.370  26.855  0.00  0.00    +0.210 HD
ENDBRANCH   1   2
BRANCH   1   4
ATOM      4  C   UNL     1       7.047  -4.999  25.526  0.00  0.00    +0.253 C 
BRANCH   4   5
ATOM      5  C   UNL     1       7.864  -5.291  26.779  0.00  0.00    +0.336 C 
ATOM      6  O   UNL     1       7.435  -5.839  27.786  0.00  0.00    -0.248 OA
BRANCH   5   7
ATOM      7  O   UNL     1       9.157  -4.888  26.645  0.00  0.00    -0.479 OA
ATOM      8  H   UNL     1       9.708  -5.593  27.067  0.00  0.00    +0.295 HD
ENDBRANCH   5   7
ENDBRANCH   4   5
BRANCH   4   9
ATOM      9  O   UNL     1       7.884  -5.238  24.375  0.00  0.00    -0.378 OA
ATOM     10  H   UNL     1       8.255  -6.134  24.483  0.00  0.00    +0.211 HD
ENDBRANCH   4   9
ENDBRANCH   1   4
BRANCH   1  11
ATOM     11  C   UNL     1       7.232  -2.646  24.592  0.00  0.00    +0.206 C 
BRANCH  11  12
ATOM     12  O   UNL     1       8.537  -2.301  25.042  0.00  0.00    -0.284 OA
BRANCH  12  13
ATOM     13  P   UNL     1       9.617  -2.107  23.704  0.00  0.00    +0.472 P 
ATOM     14  O   UNL     1      10.585  -1.934  22.508  0.00  0.00    -0.228 OA
BRANCH  13  15
ATOM     15  O   UNL     1       8.401  -2.750  22.817  0.00  0.00    -0.303 OA
ATOM     16  H   UNL     1       7.590  -2.860  23.342  0.00  0.00    +0.222 HD
ENDBRANCH  13  15
BRANCH  13  17
ATOM     17  O   UNL     1      10.202  -3.572  24.151  0.00  0.00    -0.303 OA
ATOM     18  H   UNL     1      10.927  -3.759  23.524  0.00  0.00    +0.222 HD
ENDBRANCH  13  17
ENDBRANCH  12  13
ENDBRANCH  11  12
ENDBRANCH   1  11
TORSDOF 10
ENDMDL
MODEL 2
REMARK VINA RESULT:      -4.0      4.161      6.113
REMARK  Name = 
REMARK  10 active torsions:
REMARK  status: ('A' for Active; 'I' for Inactive)
REMARK    1  A    between atoms: O_1  and  C_2
REMARK    2  A    between atoms: C_2  and  C_4
REMARK    3  A    between atoms: C_2  and  C_10
REMARK    4  A    between atoms: C_4  and  O_5
REMARK    5  A    between atoms: O_5  and  P_6
REMARK    6  A    between atoms: P_6  and  O_7
REMARK    7  A    between atoms: P_6  and  O_8
REMARK    8  A    between atoms: C_10  and  O_12
REMARK    9  A    between atoms: C_10  and  C_13
REMARK   10  A    between atoms: C_13  and  O_14
REMARK                            x       y       z     vdW  Elec       q    Type
REMARK                         _______ _______ _______ _____ _____    ______ ____
ROOT
ATOM      1  C   UNL     1       8.988   1.518  21.726  0.00  0.00    +0.180 C 
ENDROOT
BRANCH   1   2
ATOM      2  O   UNL     1      10.234   2.226  21.666  0.00  0.00    -0.386 OA
ATOM      3  H   UNL     1      10.565   2.341  22.575  0.00  0.00    +0.210 HD
ENDBRANCH   1   2
BRANCH   1   4
ATOM      4  C   UNL     1       8.192   1.939  22.971  0.00  0.00    +0.253 C 
BRANCH   4   5
ATOM      5  C   UNL     1       9.116   2.664  23.942  0.00  0.00    +0.336 C 
ATOM      6  O   UNL     1       9.272   3.877  23.991  0.00  0.00    -0.248 OA
BRANCH   5   7
ATOM      7  O   UNL     1       9.743   1.799  24.785  0.00  0.00    -0.479 OA
ATOM      8  H   UNL     1      10.480   1.395  24.263  0.00  0.00    +0.295 HD
ENDBRANCH   5   7
ENDBRANCH   4   5
BRANCH   4   9
ATOM      9  O   UNL     1       7.603   0.816  23.660  0.00  0.00    -0.378 OA
ATOM     10  H   UNL     1       7.685   0.049  23.063  0.00  0.00    +0.211 HD
ENDBRANCH   4   9
ENDBRANCH   1   4
BRANCH   1  11
ATOM     11  C   UNL     1       9.304   0.026  21.727  0.00  0.00    +0.206 C 
BRANCH  11  12
ATOM     12  O   UNL     1      10.312  -0.296  22.679  0.00  0.00    -0.284 OA
BRANCH  12  13
ATOM     13  P   UNL     1      10.058  -1.877  23.333  0.00  0.00    +0.472 P 
ATOM     14  O   UNL     1       9.832  -3.292  23.918  0.00  0.00    -0.228 OA
BRANCH  13  15
ATOM     15  O   UNL     1       8.589  -1.778  22.619  0.00  0.00    -0.303 OA
ATOM     16  H   UNL     1       8.204  -0.888  22.706  0.00  0.00    +0.222 HD
ENDBRANCH  13  15
BRANCH  13  17
ATOM     17  O   UNL     1       9.570  -1.084  24.681  0.00  0.00    -0.303 OA
ATOM     18  H   UNL     1      10.296  -1.203  25.324  0.00  0.00    +0.222 HD
ENDBRANCH  13  17
ENDBRANCH  12  13
ENDBRANCH  11  12
ENDBRANCH   1  11
TORSDOF 10
ENDMDL
MODEL 3
REMARK VINA RESULT:      -3.9      2.752      5.439
REMARK  Name = 
REMARK  10 active torsions:
REMARK  status: ('A' for Active; 'I' for Inactive)
REMARK    1  A    between atoms: O_1  and  C_2
REMARK    2  A    between atoms: C_2  and  C_4
REMARK    3  A    between atoms: C_2  and  C_10
REMARK    4  A    between atoms: C_4  and  O_5
REMARK    5  A    between atoms: O_5  and  P_6
REMARK    6  A    between atoms: P_6  and  O_7
REMARK    7  A    between atoms: P_6  and  O_8
REMARK    8  A    between atoms: C_10  and  O_12
REMARK    9  A    between atoms: C_10  and  C_13
REMARK   10  A    between atoms: C_13  and  O_14
REMARK                            x       y       z     vdW  Elec       q    Type
REMARK                         _______ _______ _______ _____ _____    ______ ____
ROOT
ATOM      1  C   UNL     1       9.310  -1.101  23.815  0.00  0.00    +0.180 C 
ENDROOT
BRANCH   1   2
ATOM      2  O   UNL     1       8.166  -0.235  23.815  0.00  0.00    -0.386 OA
ATOM      3  H   UNL     1       7.382  -0.763  24.048  0.00  0.00    +0.210 HD
ENDBRANCH   1   2
BRANCH   1   4
ATOM      4  C   UNL     1      10.280  -0.710  22.690  0.00  0.00    +0.253 C 
BRANCH   4   5
ATOM      5  C   UNL     1       9.918   0.675  22.168  0.00  0.00    +0.336 C 
ATOM      6  O   UNL     1      10.266   1.732  22.678  0.00  0.00    -0.248 OA
BRANCH   5   7
ATOM      7  O   UNL     1       9.169   0.608  21.034  0.00  0.00    -0.479 OA
ATOM      8  H   UNL     1       9.134   1.529  20.674  0.00  0.00    +0.295 HD
ENDBRANCH   5   7
ENDBRANCH   4   5
BRANCH   4   9
ATOM      9  O   UNL     1      10.247  -1.634  21.582  0.00  0.00    -0.378 OA
ATOM     10  H   UNL     1       9.435  -1.436  21.079  0.00  0.00    +0.211 HD
ENDBRANCH   4   9
ENDBRANCH   1   4
BRANCH   1  11
ATOM     11  C   UNL     1       8.805  -2.533  23.663  0.00  0.00    +0.206 C 
BRANCH  11  12
ATOM     12  O   UNL     1       9.758  -3.477  24.136  0.00  0.00    -0.284 OA
BRANCH  12  13
ATOM     13  P   UNL     1       9.005  -4.648  25.163  0.00  0.00    +0.472 P 
ATOM     14  O   UNL     1       8.330  -5.696  26.082  0.00  0.00    -0.228 OA
BRANCH  13  15
ATOM     15  O   UNL     1      10.467  -5.385  25.150  0.00  0.00    -0.303 OA
ATOM     16  H   UNL     1      10.858  -5.395  24.260  0.00  0.00    +0.222 HD
ENDBRANCH  13  15
BRANCH  13  17
ATOM     17  O   UNL     1       8.524  -5.353  23.764  0.00  0.00    -0.303 OA
ATOM     18  H   UNL     1       8.563  -4.642  23.095  0.00  0.00    +0.222 HD
ENDBRANCH  13  17
ENDBRANCH  12  13
ENDBRANCH  11  12
ENDBRANCH   1  11
TORSDOF 10
ENDMDL
MODEL 4
REMARK VINA RESULT:      -3.9      2.961      4.839
REMARK  Name = 
REMARK  10 active torsions:
REMARK  status: ('A' for Active; 'I' for Inactive)
REMARK    1  A    between atoms: O_1  and  C_2
REMARK    2  A    between atoms: C_2  and  C_4
REMARK    3  A    between atoms: C_2  and  C_10
REMARK    4  A    between atoms: C_4  and  O_5
REMARK    5  A    between atoms: O_5  and  P_6
REMARK    6  A    between atoms: P_6  and  O_7
REMARK    7  A    between atoms: P_6  and  O_8
REMARK    8  A    between atoms: C_10  and  O_12
REMARK    9  A    between atoms: C_10  and  C_13
REMARK   10  A    between atoms: C_13  and  O_14
REMARK                            x       y       z     vdW  Elec       q    Type
REMARK                         _______ _______ _______ _____ _____    ______ ____
ROOT
ATOM      1  C   UNL     1       6.082  -3.935  23.243  0.00  0.00    +0.180 C 
ENDROOT
BRANCH   1   2
ATOM      2  O   UNL     1       4.784  -3.970  22.635  0.00  0.00    -0.386 OA
ATOM      3  H   UNL     1       4.117  -3.822  23.329  0.00  0.00    +0.210 HD
ENDBRANCH   1   2
BRANCH   1   4
ATOM      4  C   UNL     1       7.072  -4.799  22.446  0.00  0.00    +0.253 C 
BRANCH   4   5
ATOM      5  C   UNL     1       6.299  -5.734  21.524  0.00  0.00    +0.336 C 
ATOM      6  O   UNL     1       5.987  -5.483  20.367  0.00  0.00    -0.248 OA
BRANCH   5   7
ATOM      7  O   UNL     1       6.007  -6.916  22.132  0.00  0.00    -0.479 OA
ATOM      8  H   UNL     1       6.743  -7.084  22.772  0.00  0.00    +0.295 HD
ENDBRANCH   5   7
ENDBRANCH   4   5
BRANCH   4   9
ATOM      9  O   UNL     1       7.920  -5.599  23.294  0.00  0.00    -0.378 OA
ATOM     10  H   UNL     1       8.701  -5.053  23.502  0.00  0.00    +0.211 HD
ENDBRANCH   4   9
ENDBRANCH   1   4
BRANCH   1  11
ATOM     11  C   UNL     1       5.932  -4.419  24.682  0.00  0.00    +0.206 C 
BRANCH  11  12
ATOM     12  O   UNL     1       7.108  -4.170  25.444  0.00  0.00    -0.284 OA
BRANCH  12  13
ATOM     13  P   UNL     1       7.143  -5.161  26.862  0.00  0.00    +0.472 P 
ATOM     14  O   UNL     1       7.173  -6.047  28.131  0.00  0.00    -0.228 OA
BRANCH  13  15
ATOM     15  O   UNL     1       8.540  -5.746  26.241  0.00  0.00    -0.303 OA
ATOM     16  H   UNL     1       8.568  -5.661  25.272  0.00  0.00    +0.222 HD
ENDBRANCH  13  15
BRANCH  13  17
ATOM     17  O   UNL     1       6.207  -6.187  25.992  0.00  0.00    -0.303 OA
ATOM     18  H   UNL     1       6.460  -7.081  26.295  0.00  0.00    +0.222 HD
ENDBRANCH  13  17
ENDBRANCH  12  13
ENDBRANCH  11  12
ENDBRANCH   1  11
TORSDOF 10
ENDMDL
MODEL 5
REMARK VINA RESULT:      -3.9      3.170      5.881
REMARK  Name = 
REMARK  10 active torsions:
REMARK  status: ('A' for Active; 'I' for Inactive)
REMARK    1  A    between atoms: O_1  and  C_2
REMARK    2  A    between atoms: C_2  and  C_4
REMARK    3  A    between atoms: C_2  and  C_10
REMARK    4  A    between atoms: C_4  and  O_5
REMARK    5  A    between atoms: O_5  and  P_6
REMARK    6  A    between atoms: P_6  and  O_7
REMARK    7  A    between atoms: P_6  and  O_8
REMARK    8  A    between atoms: C_10  and  O_12
REMARK    9  A    between atoms: C_10  and  C_13
REMARK   10  A    between atoms: C_13  and  O_14
REMARK                            x       y       z     vdW  Elec       q    Type
REMARK                         _______ _______ _______ _____ _____    ______ ____
ROOT
ATOM      1  C   UNL     1       8.938  -0.112  22.197  0.00  0.00    +0.180 C 
ENDROOT
BRANCH   1   2
ATOM      2  O   UNL     1       9.871  -0.858  21.404  0.00  0.00    -0.386 OA
ATOM      3  H   UNL     1      10.696  -0.344  21.339  0.00  0.00    +0.210 HD
ENDBRANCH   1   2
BRANCH   1   4
ATOM      4  C   UNL     1       9.675   0.695  23.277  0.00  0.00    +0.253 C 
BRANCH   4   5
ATOM      5  C   UNL     1      10.152   2.016  22.685  0.00  0.00    +0.336 C 
ATOM      6  O   UNL     1      10.770   2.878  23.296  0.00  0.00    -0.248 OA
BRANCH   5   7
ATOM      7  O   UNL     1       9.831   2.125  21.367  0.00  0.00    -0.479 OA
ATOM      8  H   UNL     1      10.307   2.925  21.034  0.00  0.00    +0.295 HD
ENDBRANCH   5   7
ENDBRANCH   4   5
BRANCH   4   9
ATOM      9  O   UNL     1      10.821  -0.003  23.807  0.00  0.00    -0.378 OA
ATOM     10  H   UNL     1      10.627  -0.185  24.746  0.00  0.00    +0.211 HD
ENDBRANCH   4   9
ENDBRANCH   1   4
BRANCH   1  11
ATOM     11  C   UNL     1       7.949  -1.104  22.802  0.00  0.00    +0.206 C 
BRANCH  11  12
ATOM     12  O   UNL     1       8.368  -1.544  24.088  0.00  0.00    -0.284 OA
BRANCH  12  13
ATOM     13  P   UNL     1       8.624  -3.255  24.101  0.00  0.00    +0.472 P 
ATOM     14  O   UNL     1       8.852  -4.786  24.111  0.00  0.00    -0.228 OA
BRANCH  13  15
ATOM     15  O   UNL     1      10.167  -2.881  23.701  0.00  0.00    -0.303 OA
ATOM     16  H   UNL     1      10.337  -3.014  22.753  0.00  0.00    +0.222 HD
ENDBRANCH  13  15
BRANCH  13  17
ATOM     17  O   UNL     1       8.101  -3.198  22.549  0.00  0.00    -0.303 OA
ATOM     18  H   UNL     1       8.589  -3.909  22.089  0.00  0.00    +0.222 HD
ENDBRANCH  13  17
ENDBRANCH  12  13
ENDBRANCH  11  12
ENDBRANCH   1  11
TORSDOF 10
ENDMDL
MODEL 6
REMARK VINA RESULT:      -3.9      1.729      4.374
REMARK  Name = 
REMARK  10 active torsions:
REMARK  status: ('A' for Active; 'I' for Inactive)
REMARK    1  A    between atoms: O_1  and  C_2
REMARK    2  A    between atoms: C_2  and  C_4
REMARK    3  A    between atoms: C_2  and  C_10
REMARK    4  A    between atoms: C_4  and  O_5
REMARK    5  A    between atoms: O_5  and  P_6
REMARK    6  A    between atoms: P_6  and  O_7
REMARK    7  A    between atoms: P_6  and  O_8
REMARK    8  A    between atoms: C_10  and  O_12
REMARK    9  A    between atoms: C_10  and  C_13
REMARK   10  A    between atoms: C_13  and  O_14
REMARK                            x       y       z     vdW  Elec       q    Type
REMARK                         _______ _______ _______ _____ _____    ______ ____
ROOT
ATOM      1  C   UNL     1       7.348  -2.492  23.855  0.00  0.00    +0.180 C 
ENDROOT
BRANCH   1   2
ATOM      2  O   UNL     1       7.638  -3.226  22.658  0.00  0.00    -0.386 OA
ATOM      3  H   UNL     1       7.580  -4.177  22.860  0.00  0.00    +0.210 HD
ENDBRANCH   1   2
BRANCH   1   4
ATOM      4  C   UNL     1       8.620  -1.817  24.392  0.00  0.00    +0.253 C 
BRANCH   4   5
ATOM      5  C   UNL     1       9.841  -2.414  23.701  0.00  0.00    +0.336 C 
ATOM      6  O   UNL     1      10.469  -1.878  22.798  0.00  0.00    -0.248 OA
BRANCH   5   7
ATOM      7  O   UNL     1      10.177  -3.623  24.225  0.00  0.00    -0.479 OA
ATOM      8  H   UNL     1      10.743  -4.068  23.546  0.00  0.00    +0.295 HD
ENDBRANCH   5   7
ENDBRANCH   4   5
BRANCH   4   9
ATOM      9  O   UNL     1       8.780  -1.985  25.816  0.00  0.00    -0.378 OA
ATOM     10  H   UNL     1       7.970  -2.423  26.138  0.00  0.00    +0.211 HD
ENDBRANCH   4   9
ENDBRANCH   1   4
BRANCH   1  11
ATOM     11  C   UNL     1       6.751  -3.469  24.863  0.00  0.00    +0.206 C 
BRANCH  11  12
ATOM     12  O   UNL     1       7.536  -4.650  24.976  0.00  0.00    -0.284 OA
BRANCH  12  13
ATOM     13  P   UNL     1       7.425  -5.312  26.570  0.00  0.00    +0.472 P 
ATOM     14  O   UNL     1       7.326  -5.905  27.997  0.00  0.00    -0.228 OA
BRANCH  13  15
ATOM     15  O   UNL     1       6.937  -3.811  27.002  0.00  0.00    -0.303 OA
ATOM     16  H   UNL     1       7.538  -3.409  27.654  0.00  0.00    +0.222 HD
ENDBRANCH  13  15
BRANCH  13  17
ATOM     17  O   UNL     1       9.017  -4.938  26.680  0.00  0.00    -0.303 OA
ATOM     18  H   UNL     1       9.430  -5.707  27.119  0.00  0.00    +0.222 HD
ENDBRANCH  13  17
ENDBRANCH  12  13
ENDBRANCH  11  12
ENDBRANCH   1  11
TORSDOF 10
ENDMDL
MODEL 7
REMARK VINA RESULT:      -3.8      2.817      5.298
REMARK  Name = 
REMARK  10 active torsions:
REMARK  status: ('A' for Active; 'I' for Inactive)
REMARK    1  A    between atoms: O_1  and  C_2
REMARK    2  A    between atoms: C_2  and  C_4
REMARK    3  A    between atoms: C_2  and  C_10
REMARK    4  A    between atoms: C_4  and  O_5
REMARK    5  A    between atoms: O_5  and  P_6
REMARK    6  A    between atoms: P_6  and  O_7
REMARK    7  A    between atoms: P_6  and  O_8
REMARK    8  A    between atoms: C_10  and  O_12
REMARK    9  A    between atoms: C_10  and  C_13
REMARK   10  A    between atoms: C_13  and  O_14
REMARK                            x       y       z     vdW  Elec       q    Type
REMARK                         _______ _______ _______ _____ _____    ______ ____
ROOT
ATOM      1  C   UNL     1       6.925  -4.584  25.566  0.00  0.00    +0.180 C 
ENDROOT
BRANCH   1   2
ATOM      2  O   UNL     1       7.045  -5.075  24.223  0.00  0.00    -0.386 OA
ATOM      3  H   UNL     1       7.041  -6.048  24.252  0.00  0.00    +0.210 HD
ENDBRANCH   1   2
BRANCH   1   4
ATOM      4  C   UNL     1       8.283  -4.641  26.281  0.00  0.00    +0.253 C 
BRANCH   4   5
ATOM      5  C   UNL     1       9.392  -4.825  25.252  0.00  0.00    +0.336 C 
ATOM      6  O   UNL     1       9.840  -3.939  24.536  0.00  0.00    -0.248 OA
BRANCH   5   7
ATOM      7  O   UNL     1       9.855  -6.104  25.231  0.00  0.00    -0.479 OA
ATOM      8  H   UNL     1       9.336  -6.595  25.915  0.00  0.00    +0.295 HD
ENDBRANCH   5   7
ENDBRANCH   4   5
BRANCH   4   9
ATOM      9  O   UNL     1       8.366  -5.723  27.233  0.00  0.00    -0.378 OA
ATOM     10  H   UNL     1       9.208  -6.184  27.058  0.00  0.00    +0.211 HD
ENDBRANCH   4   9
ENDBRANCH   1   4
BRANCH   1  11
ATOM     11  C   UNL     1       5.870  -5.429  26.274  0.00  0.00    +0.206 C 
BRANCH  11  12
ATOM     12  O   UNL     1       5.486  -4.853  27.517  0.00  0.00    -0.284 OA
BRANCH  12  13
ATOM     13  P   UNL     1       4.963  -6.075  28.625  0.00  0.00    +0.472 P 
ATOM     14  O   UNL     1       4.496  -7.168  29.616  0.00  0.00    -0.228 OA
BRANCH  13  15
ATOM     15  O   UNL     1       6.377  -5.774  29.395  0.00  0.00    -0.303 OA
ATOM     16  H   UNL     1       7.038  -5.383  28.797  0.00  0.00    +0.222 HD
ENDBRANCH  13  15
BRANCH  13  17
ATOM     17  O   UNL     1       5.646  -7.123  27.566  0.00  0.00    -0.303 OA
ATOM     18  H   UNL     1       5.731  -7.963  28.058  0.00  0.00    +0.222 HD
ENDBRANCH  13  17
ENDBRANCH  12  13
ENDBRANCH  11  12
ENDBRANCH   1  11
TORSDOF 10
ENDMDL
MODEL 8
REMARK VINA RESULT:      -3.8      4.348      6.448
REMARK  Name = 
REMARK  10 active torsions:
REMARK  status: ('A' for Active; 'I' for Inactive)
REMARK    1  A    between atoms: O_1  and  C_2
REMARK    2  A    between atoms: C_2  and  C_4
REMARK    3  A    between atoms: C_2  and  C_10
REMARK    4  A    between atoms: C_4  and  O_5
REMARK    5  A    between atoms: O_5  and  P_6
REMARK    6  A    between atoms: P_6  and  O_7
REMARK    7  A    between atoms: P_6  and  O_8
REMARK    8  A    between atoms: C_10  and  O_12
REMARK    9  A    between atoms: C_10  and  C_13
REMARK   10  A    between atoms: C_13  and  O_14
REMARK                            x       y       z     vdW  Elec       q    Type
REMARK                         _______ _______ _______ _____ _____    ______ ____
ROOT
ATOM      1  C   UNL     1       9.348   2.023  24.033  0.00  0.00    +0.180 C 
ENDROOT
BRANCH   1   2
ATOM      2  O   UNL     1       8.095   1.359  24.246  0.00  0.00    -0.386 OA
ATOM      3  H   UNL     1       7.590   1.384  23.413  0.00  0.00    +0.210 HD
ENDBRANCH   1   2
BRANCH   1   4
ATOM      4  C   UNL     1       9.315   2.825  22.723  0.00  0.00    +0.253 C 
BRANCH   4   5
ATOM      5  C   UNL     1       8.141   2.358  21.872  0.00  0.00    +0.336 C 
ATOM      6  O   UNL     1       7.020   2.850  21.889  0.00  0.00    -0.248 OA
BRANCH   5   7
ATOM      7  O   UNL     1       8.487   1.326  21.056  0.00  0.00    -0.479 OA
ATOM      8  H   UNL     1       7.649   0.839  20.858  0.00  0.00    +0.295 HD
ENDBRANCH   5   7
ENDBRANCH   4   5
BRANCH   4   9
ATOM      9  O   UNL     1      10.523   2.674  21.949  0.00  0.00    -0.378 OA
ATOM     10  H   UNL     1      10.252   2.647  21.012  0.00  0.00    +0.211 HD
ENDBRANCH   4   9
ENDBRANCH   1   4
BRANCH   1  11
ATOM     11  C   UNL     1      10.440   0.958  24.024  0.00  0.00    +0.206 C 
BRANCH  11  12
ATOM     12  O   UNL     1      10.365   0.142  22.861  0.00  0.00    -0.284 OA
BRANCH  12  13
ATOM     13  P   UNL     1      10.069  -1.509  23.286  0.00  0.00    +0.472 P 
ATOM     14  O   UNL     1       9.804  -2.986  23.667  0.00  0.00    -0.228 OA
BRANCH  13  15
ATOM     15  O   UNL     1      10.474  -1.829  21.733  0.00  0.00    -0.303 OA
ATOM     16  H   UNL     1      10.234  -1.097  21.139  0.00  0.00    +0.222 HD
ENDBRANCH  13  15
BRANCH  13  17
ATOM     17  O   UNL     1       8.508  -1.173  22.918  0.00  0.00    -0.303 OA
ATOM     18  H   UNL     1       8.507  -0.993  21.957  0.00  0.00    +0.222 HD
ENDBRANCH  13  17
ENDBRANCH  12  13
ENDBRANCH  11  12
ENDBRANCH   1  11
TORSDOF 10
ENDMDL
MODEL 9
REMARK VINA RESULT:      -3.8      2.570      3.699
REMARK  Name = 
REMARK  10 active torsions:
REMARK  status: ('A' for Active; 'I' for Inactive)
REMARK    1  A    between atoms: O_1  and  C_2
REMARK    2  A    between atoms: C_2  and  C_4
REMARK    3  A    between atoms: C_2  and  C_10
REMARK    4  A    between atoms: C_4  and  O_5
REMARK    5  A    between atoms: O_5  and  P_6
REMARK    6  A    between atoms: P_6  and  O_7
REMARK    7  A    between atoms: P_6  and  O_8
REMARK    8  A    between atoms: C_10  and  O_12
REMARK    9  A    between atoms: C_10  and  C_13
REMARK   10  A    between atoms: C_13  and  O_14
REMARK                            x       y       z     vdW  Elec       q    Type
REMARK                         _______ _______ _______ _____ _____    ______ ____
ROOT
ATOM      1  C   UNL     1       8.569  -3.678  24.319  0.00  0.00    +0.180 C 
ENDROOT
BRANCH   1   2
ATOM      2  O   UNL     1       9.928  -3.299  24.058  0.00  0.00    -0.386 OA
ATOM      3  H   UNL     1       9.923  -2.459  23.567  0.00  0.00    +0.210 HD
ENDBRANCH   1   2
BRANCH   1   4
ATOM      4  C   UNL     1       8.514  -5.075  24.955  0.00  0.00    +0.253 C 
BRANCH   4   5
ATOM      5  C   UNL     1       8.701  -4.954  26.463  0.00  0.00    +0.336 C 
ATOM      6  O   UNL     1       7.794  -4.949  27.285  0.00  0.00    -0.248 OA
BRANCH   5   7
ATOM      7  O   UNL     1      10.015  -4.874  26.805  0.00  0.00    -0.479 OA
ATOM      8  H   UNL     1      10.078  -5.215  27.731  0.00  0.00    +0.295 HD
ENDBRANCH   5   7
ENDBRANCH   4   5
BRANCH   4   9
ATOM      9  O   UNL     1       9.533  -5.960  24.443  0.00  0.00    -0.378 OA
ATOM     10  H   UNL     1      10.216  -5.393  24.039  0.00  0.00    +0.211 HD
ENDBRANCH   4   9
ENDBRANCH   1   4
BRANCH   1  11
ATOM     11  C   UNL     1       7.812  -3.621  22.996  0.00  0.00    +0.206 C 
BRANCH  11  12
ATOM     12  O   UNL     1       7.321  -4.902  22.619  0.00  0.00    -0.284 OA
BRANCH  12  13
ATOM     13  P   UNL     1       5.591  -4.921  22.612  0.00  0.00    +0.472 P 
ATOM     14  O   UNL     1       4.043  -4.936  22.605  0.00  0.00    -0.228 OA
BRANCH  13  15
ATOM     15  O   UNL     1       5.755  -6.376  21.881  0.00  0.00    -0.303 OA
ATOM     16  H   UNL     1       6.574  -6.826  22.152  0.00  0.00    +0.222 HD
ENDBRANCH  13  15
BRANCH  13  17
ATOM     17  O   UNL     1       5.732  -4.086  21.208  0.00  0.00    -0.303 OA
ATOM     18  H   UNL     1       6.167  -4.703  20.588  0.00  0.00    +0.222 HD
ENDBRANCH  13  17
ENDBRANCH  12  13
ENDBRANCH  11  12
ENDBRANCH   1  11
TORSDOF 10
ENDMDL
