MODEL 1
REMARK VINA RESULT:      -6.8      0.000      0.000
REMARK  Name = 
REMARK  12 active torsions:
REMARK  status: ('A' for Active; 'I' for Inactive)
REMARK    1  A    between atoms: C_2  and  C_3
REMARK    2  A    between atoms: C_3  and  N_4
REMARK    3  A    between atoms: N_4  and  C_5
REMARK    4  A    between atoms: N_4  and  C_8
REMARK    5  A    between atoms: C_5  and  C_6
REMARK    6  A    between atoms: C_8  and  C_9
REMARK    7  A    between atoms: C_9  and  C_10
REMARK    8  A    between atoms: C_10  and  C_11
REMARK    9  A    between atoms: C_11  and  C_13
REMARK   10  A    between atoms: C_11  and  N_14
REMARK   11  A    between atoms: C_27  and  O_28
REMARK   12  A    between atoms: O_28  and  C_29
REMARK                            x       y       z     vdW  Elec       q    Type
REMARK                         _______ _______ _______ _____ _____    ______ ____
ROOT
ATOM      1  N   UNL     1       9.766   1.349  23.380  0.00  0.00    -0.280 NA
ATOM      2  C   UNL     1       9.103   2.363  23.822  0.00  0.00    +0.077 A 
ATOM      3  C   UNL     1       9.886   3.668  23.870  0.00  0.00    +0.027 A 
ATOM      4  C   UNL     1       9.248   4.840  24.289  0.00  0.00    +0.049 A 
ATOM      5  C   UNL     1       9.954   6.049  24.308  0.00  0.00    +0.030 A 
ATOM      6  C   UNL     1      11.277   6.110  23.872  0.00  0.00    +0.047 A 
ATOM      7  C   UNL     1      11.923   4.954  23.440  0.00  0.00    +0.121 A 
ATOM      8  N   UNL     1       7.932   4.809  24.748  0.00  0.00    -0.354 N 
ATOM      9  H   UNL     1       7.464   5.700  24.849  0.00  0.00    +0.166 HD
ATOM     10  C   UNL     1       7.119   3.671  24.678  0.00  0.00    +0.050 A 
ATOM     11  C   UNL     1       5.783   3.786  25.104  0.00  0.00    +0.046 A 
ATOM     12  C   UNL     1       4.942   2.684  25.099  0.00  0.00    +0.043 A 
ATOM     13 CL   UNL     1       3.304   2.838  25.589  0.00  0.00    -0.083 Cl
ATOM     14  C   UNL     1       5.428   1.451  24.689  0.00  0.00    +0.021 A 
ATOM     15  C   UNL     1       6.758   1.335  24.276  0.00  0.00    +0.013 A 
ATOM     16  C   UNL     1      11.228   3.735  23.448  0.00  0.00    +0.057 A 
ATOM     17  C   UNL     1       7.640   2.426  24.261  0.00  0.00    +0.024 A 
ENDROOT
BRANCH   1  18
ATOM     18  C   UNL     1       9.331  -0.003  23.100  0.00  0.00    +0.103 C 
ATOM     19  C   UNL     1       9.710  -0.330  21.656  0.00  0.00    +0.032 C 
BRANCH  18  20
ATOM     20  C   UNL     1       9.890  -1.022  24.116  0.00  0.00    +0.028 C 
BRANCH  20  21
ATOM     21  C   UNL     1       9.897  -2.503  23.740  0.00  0.00    +0.017 C 
BRANCH  21  22
ATOM     22  C   UNL     1       8.671  -3.305  24.195  0.00  0.00    +0.084 C 
BRANCH  22  23
ATOM     23  N   UNL     1       8.757  -4.776  24.051  0.00  0.00    -0.300 NA
BRANCH  23  24
ATOM     24  C   UNL     1       9.172  -5.448  25.297  0.00  0.00    +0.100 C 
BRANCH  24  26
ATOM     25 CL   UNL     1       7.213  -5.177  27.179  0.00  0.00    -0.124 Cl
ATOM     26  C   UNL     1       8.831  -4.696  26.593  0.00  0.00    +0.124 C 
ENDBRANCH  24  26
ENDBRANCH  23  24
BRANCH  23  27
ATOM     27  C   UNL     1       7.505  -5.307  23.464  0.00  0.00    +0.100 C 
BRANCH  27  28
ATOM     28  C   UNL     1       6.993  -4.616  22.192  0.00  0.00    +0.124 C 
ATOM     29 CL   UNL     1       6.432  -5.821  21.003  0.00  0.00    -0.124 Cl
ENDBRANCH  27  28
ENDBRANCH  23  27
ENDBRANCH  22  23
ENDBRANCH  21  22
ENDBRANCH  20  21
ENDBRANCH  18  20
ENDBRANCH   1  18
BRANCH   7  30
ATOM     30  O   UNL     1      13.216   4.895  22.992  0.00  0.00    -0.495 OA
ATOM     31  C   UNL     1      13.604   5.868  22.028  0.00  0.00    +0.277 C 
ENDBRANCH   7  30
TORSDOF 10
ENDMDL
MODEL 2
REMARK VINA RESULT:      -6.6      0.810      2.020
REMARK  Name = 
REMARK  12 active torsions:
REMARK  status: ('A' for Active; 'I' for Inactive)
REMARK    1  A    between atoms: C_2  and  C_3
REMARK    2  A    between atoms: C_3  and  N_4
REMARK    3  A    between atoms: N_4  and  C_5
REMARK    4  A    between atoms: N_4  and  C_8
REMARK    5  A    between atoms: C_5  and  C_6
REMARK    6  A    between atoms: C_8  and  C_9
REMARK    7  A    between atoms: C_9  and  C_10
REMARK    8  A    between atoms: C_10  and  C_11
REMARK    9  A    between atoms: C_11  and  C_13
REMARK   10  A    between atoms: C_11  and  N_14
REMARK   11  A    between atoms: C_27  and  O_28
REMARK   12  A    between atoms: O_28  and  C_29
REMARK                            x       y       z     vdW  Elec       q    Type
REMARK                         _______ _______ _______ _____ _____    ______ ____
ROOT
ATOM      1  N   UNL     1       9.744   1.364  23.268  0.00  0.00    -0.280 NA
ATOM      2  C   UNL     1       9.093   2.359  23.766  0.00  0.00    +0.077 A 
ATOM      3  C   UNL     1       9.885   3.655  23.870  0.00  0.00    +0.027 A 
ATOM      4  C   UNL     1       9.259   4.810  24.352  0.00  0.00    +0.049 A 
ATOM      5  C   UNL     1       9.974   6.011  24.423  0.00  0.00    +0.030 A 
ATOM      6  C   UNL     1      11.292   6.085  23.978  0.00  0.00    +0.047 A 
ATOM      7  C   UNL     1      11.927   4.947  23.483  0.00  0.00    +0.121 A 
ATOM      8  N   UNL     1       7.947   4.764  24.821  0.00  0.00    -0.354 N 
ATOM      9  H   UNL     1       7.486   5.652  24.971  0.00  0.00    +0.166 HD
ATOM     10  C   UNL     1       7.125   3.636  24.704  0.00  0.00    +0.050 A 
ATOM     11  C   UNL     1       5.794   3.738  25.148  0.00  0.00    +0.046 A 
ATOM     12  C   UNL     1       4.945   2.643  25.097  0.00  0.00    +0.043 A 
ATOM     13 CL   UNL     1       3.313   2.783  25.610  0.00  0.00    -0.083 Cl
ATOM     14  C   UNL     1       5.419   1.429  24.622  0.00  0.00    +0.021 A 
ATOM     15  C   UNL     1       6.745   1.325  24.191  0.00  0.00    +0.013 A 
ATOM     16  C   UNL     1      11.223   3.734  23.438  0.00  0.00    +0.057 A 
ATOM     17  C   UNL     1       7.634   2.410  24.221  0.00  0.00    +0.024 A 
ENDROOT
BRANCH   1  18
ATOM     18  C   UNL     1       9.298   0.029  22.927  0.00  0.00    +0.103 C 
ATOM     19  C   UNL     1       9.509  -0.168  21.426  0.00  0.00    +0.032 C 
BRANCH  18  20
ATOM     20  C   UNL     1       9.985  -1.057  23.780  0.00  0.00    +0.028 C 
BRANCH  20  21
ATOM     21  C   UNL     1       9.154  -1.806  24.821  0.00  0.00    +0.017 C 
BRANCH  21  22
ATOM     22  C   UNL     1       7.703  -2.100  24.420  0.00  0.00    +0.084 C 
BRANCH  22  23
ATOM     23  N   UNL     1       7.432  -3.449  23.873  0.00  0.00    -0.300 NA
BRANCH  23  24
ATOM     24  C   UNL     1       7.389  -3.468  22.398  0.00  0.00    +0.100 C 
BRANCH  24  26
ATOM     25 CL   UNL     1       6.900  -6.001  21.505  0.00  0.00    -0.124 Cl
ATOM     26  C   UNL     1       6.287  -4.347  21.786  0.00  0.00    +0.124 C 
ENDBRANCH  24  26
ENDBRANCH  23  24
BRANCH  23  27
ATOM     27  C   UNL     1       8.365  -4.437  24.464  0.00  0.00    +0.100 C 
BRANCH  27  28
ATOM     28  C   UNL     1       7.841  -5.251  25.655  0.00  0.00    +0.124 C 
ATOM     29 CL   UNL     1       6.102  -5.595  25.467  0.00  0.00    -0.124 Cl
ENDBRANCH  27  28
ENDBRANCH  23  27
ENDBRANCH  22  23
ENDBRANCH  21  22
ENDBRANCH  20  21
ENDBRANCH  18  20
ENDBRANCH   1  18
BRANCH   7  30
ATOM     30  O   UNL     1      13.214   4.902  23.021  0.00  0.00    -0.495 OA
ATOM     31  C   UNL     1      13.535   5.764  21.933  0.00  0.00    +0.277 C 
ENDBRANCH   7  30
TORSDOF 10
ENDMDL
MODEL 3
REMARK VINA RESULT:      -6.2      2.873      5.477
REMARK  Name = 
REMARK  12 active torsions:
REMARK  status: ('A' for Active; 'I' for Inactive)
REMARK    1  A    between atoms: C_2  and  C_3
REMARK    2  A    between atoms: C_3  and  N_4
REMARK    3  A    between atoms: N_4  and  C_5
REMARK    4  A    between atoms: N_4  and  C_8
REMARK    5  A    between atoms: C_5  and  C_6
REMARK    6  A    between atoms: C_8  and  C_9
REMARK    7  A    between atoms: C_9  and  C_10
REMARK    8  A    between atoms: C_10  and  C_11
REMARK    9  A    between atoms: C_11  and  C_13
REMARK   10  A    between atoms: C_11  and  N_14
REMARK   11  A    between atoms: C_27  and  O_28
REMARK   12  A    between atoms: O_28  and  C_29
REMARK                            x       y       z     vdW  Elec       q    Type
REMARK                         _______ _______ _______ _____ _____    ______ ____
ROOT
ATOM      1  N   UNL     1       7.532   0.843  26.660  0.00  0.00    -0.280 NA
ATOM      2  C   UNL     1       8.223   0.215  25.770  0.00  0.00    +0.077 A 
ATOM      3  C   UNL     1       8.898   1.108  24.737  0.00  0.00    +0.027 A 
ATOM      4  C   UNL     1       9.712   0.533  23.756  0.00  0.00    +0.049 A 
ATOM      5  C   UNL     1      10.359   1.351  22.821  0.00  0.00    +0.030 A 
ATOM      6  C   UNL     1      10.238   2.738  22.882  0.00  0.00    +0.047 A 
ATOM      7  C   UNL     1       9.442   3.327  23.862  0.00  0.00    +0.121 A 
ATOM      8  N   UNL     1       9.837  -0.852  23.657  0.00  0.00    -0.354 N 
ATOM      9  H   UNL     1      10.580  -1.201  23.065  0.00  0.00    +0.166 HD
ATOM     10  C   UNL     1       9.307  -1.742  24.599  0.00  0.00    +0.050 A 
ATOM     11  C   UNL     1       9.566  -3.115  24.429  0.00  0.00    +0.046 A 
ATOM     12  C   UNL     1       9.033  -4.048  25.305  0.00  0.00    +0.043 A 
ATOM     13 CL   UNL     1       9.379  -5.719  25.113  0.00  0.00    -0.083 Cl
ATOM     14  C   UNL     1       8.219  -3.627  26.346  0.00  0.00    +0.021 A 
ATOM     15  C   UNL     1       7.952  -2.263  26.507  0.00  0.00    +0.013 A 
ATOM     16  C   UNL     1       8.768   2.509  24.782  0.00  0.00    +0.057 A 
ATOM     17  C   UNL     1       8.477  -1.287  25.647  0.00  0.00    +0.024 A 
ENDROOT
BRANCH   1  18
ATOM     18  C   UNL     1       6.848   0.346  27.835  0.00  0.00    +0.103 C 
ATOM     19  C   UNL     1       7.231   1.239  29.015  0.00  0.00    +0.032 C 
BRANCH  18  20
ATOM     20  C   UNL     1       5.323   0.241  27.628  0.00  0.00    +0.028 C 
BRANCH  20  21
ATOM     21  C   UNL     1       4.799  -0.394  26.341  0.00  0.00    +0.017 C 
BRANCH  21  22
ATOM     22  C   UNL     1       4.295  -1.837  26.474  0.00  0.00    +0.084 C 
BRANCH  22  23
ATOM     23  N   UNL     1       4.112  -2.587  25.210  0.00  0.00    -0.300 NA
BRANCH  23  24
ATOM     24  C   UNL     1       5.265  -2.458  24.298  0.00  0.00    +0.100 C 
BRANCH  24  26
ATOM     25 CL   UNL     1       6.790  -3.298  22.196  0.00  0.00    -0.124 Cl
ATOM     26  C   UNL     1       5.227  -3.365  23.060  0.00  0.00    +0.124 C 
ENDBRANCH  24  26
ENDBRANCH  23  24
BRANCH  23  27
ATOM     27  C   UNL     1       3.723  -3.988  25.499  0.00  0.00    +0.100 C 
BRANCH  27  28
ATOM     28  C   UNL     1       4.607  -4.757  26.491  0.00  0.00    +0.124 C 
ATOM     29 CL   UNL     1       5.570  -5.997  25.645  0.00  0.00    -0.124 Cl
ENDBRANCH  27  28
ENDBRANCH  23  27
ENDBRANCH  22  23
ENDBRANCH  21  22
ENDBRANCH  20  21
ENDBRANCH  18  20
ENDBRANCH   1  18
BRANCH   7  30
ATOM     30  O   UNL     1       9.251   4.674  24.016  0.00  0.00    -0.495 OA
ATOM     31  C   UNL     1       8.201   5.263  23.256  0.00  0.00    +0.277 C 
ENDBRANCH   7  30
TORSDOF 10
ENDMDL
MODEL 4
REMARK VINA RESULT:      -6.1      2.974      5.253
REMARK  Name = 
REMARK  12 active torsions:
REMARK  status: ('A' for Active; 'I' for Inactive)
REMARK    1  A    between atoms: C_2  and  C_3
REMARK    2  A    between atoms: C_3  and  N_4
REMARK    3  A    between atoms: N_4  and  C_5
REMARK    4  A    between atoms: N_4  and  C_8
REMARK    5  A    between atoms: C_5  and  C_6
REMARK    6  A    between atoms: C_8  and  C_9
REMARK    7  A    between atoms: C_9  and  C_10
REMARK    8  A    between atoms: C_10  and  C_11
REMARK    9  A    between atoms: C_11  and  C_13
REMARK   10  A    between atoms: C_11  and  N_14
REMARK   11  A    between atoms: C_27  and  O_28
REMARK   12  A    between atoms: O_28  and  C_29
REMARK                            x       y       z     vdW  Elec       q    Type
REMARK                         _______ _______ _______ _____ _____    ______ ____
ROOT
ATOM      1  N   UNL     1       7.520   0.900  26.640  0.00  0.00    -0.280 NA
ATOM      2  C   UNL     1       8.211   0.266  25.755  0.00  0.00    +0.077 A 
ATOM      3  C   UNL     1       8.907   1.153  24.730  0.00  0.00    +0.027 A 
ATOM      4  C   UNL     1       9.722   0.570  23.754  0.00  0.00    +0.049 A 
ATOM      5  C   UNL     1      10.387   1.382  22.828  0.00  0.00    +0.030 A 
ATOM      6  C   UNL     1      10.284   2.770  22.891  0.00  0.00    +0.047 A 
ATOM      7  C   UNL     1       9.486   3.367  23.865  0.00  0.00    +0.121 A 
ATOM      8  N   UNL     1       9.831  -0.817  23.654  0.00  0.00    -0.354 N 
ATOM      9  H   UNL     1      10.575  -1.173  23.067  0.00  0.00    +0.166 HD
ATOM     10  C   UNL     1       9.281  -1.702  24.588  0.00  0.00    +0.050 A 
ATOM     11  C   UNL     1       9.525  -3.078  24.418  0.00  0.00    +0.046 A 
ATOM     12  C   UNL     1       8.972  -4.006  25.287  0.00  0.00    +0.043 A 
ATOM     13 CL   UNL     1       9.300  -5.680  25.093  0.00  0.00    -0.083 Cl
ATOM     14  C   UNL     1       8.154  -3.577  26.321  0.00  0.00    +0.021 A 
ATOM     15  C   UNL     1       7.904  -2.211  26.483  0.00  0.00    +0.013 A 
ATOM     16  C   UNL     1       8.794   2.555  24.777  0.00  0.00    +0.057 A 
ATOM     17  C   UNL     1       8.448  -1.239  25.630  0.00  0.00    +0.024 A 
ENDROOT
BRANCH   1  18
ATOM     18  C   UNL     1       6.820   0.408  27.808  0.00  0.00    +0.103 C 
ATOM     19  C   UNL     1       7.132   1.348  28.973  0.00  0.00    +0.032 C 
BRANCH  18  20
ATOM     20  C   UNL     1       5.307   0.239  27.559  0.00  0.00    +0.028 C 
BRANCH  20  21
ATOM     21  C   UNL     1       4.679  -1.137  27.769  0.00  0.00    +0.017 C 
BRANCH  21  22
ATOM     22  C   UNL     1       4.009  -1.753  26.533  0.00  0.00    +0.084 C 
BRANCH  22  23
ATOM     23  N   UNL     1       4.461  -3.109  26.148  0.00  0.00    -0.300 NA
BRANCH  23  24
ATOM     24  C   UNL     1       3.945  -4.159  27.046  0.00  0.00    +0.100 C 
BRANCH  24  26
ATOM     25 CL   UNL     1       5.514  -6.325  26.504  0.00  0.00    -0.124 Cl
ATOM     26  C   UNL     1       5.011  -5.071  27.672  0.00  0.00    +0.124 C 
ENDBRANCH  24  26
ENDBRANCH  23  24
BRANCH  23  27
ATOM     27  C   UNL     1       4.187  -3.351  24.712  0.00  0.00    +0.100 C 
BRANCH  27  28
ATOM     28  C   UNL     1       5.400  -3.645  23.819  0.00  0.00    +0.124 C 
ATOM     29 CL   UNL     1       6.041  -2.139  23.112  0.00  0.00    -0.124 Cl
ENDBRANCH  27  28
ENDBRANCH  23  27
ENDBRANCH  22  23
ENDBRANCH  21  22
ENDBRANCH  20  21
ENDBRANCH  18  20
ENDBRANCH   1  18
BRANCH   7  30
ATOM     30  O   UNL     1       9.310   4.715  24.021  0.00  0.00    -0.495 OA
ATOM     31  C   UNL     1      10.463   5.535  23.857  0.00  0.00    +0.277 C 
ENDBRANCH   7  30
TORSDOF 10
ENDMDL
MODEL 5
REMARK VINA RESULT:      -6.0      3.353      6.369
REMARK  Name = 
REMARK  12 active torsions:
REMARK  status: ('A' for Active; 'I' for Inactive)
REMARK    1  A    between atoms: C_2  and  C_3
REMARK    2  A    between atoms: C_3  and  N_4
REMARK    3  A    between atoms: N_4  and  C_5
REMARK    4  A    between atoms: N_4  and  C_8
REMARK    5  A    between atoms: C_5  and  C_6
REMARK    6  A    between atoms: C_8  and  C_9
REMARK    7  A    between atoms: C_9  and  C_10
REMARK    8  A    between atoms: C_10  and  C_11
REMARK    9  A    between atoms: C_11  and  C_13
REMARK   10  A    between atoms: C_11  and  N_14
REMARK   11  A    between atoms: C_27  and  O_28
REMARK   12  A    between atoms: O_28  and  C_29
REMARK                            x       y       z     vdW  Elec       q    Type
REMARK                         _______ _______ _______ _____ _____    ______ ____
ROOT
ATOM      1  N   UNL     1       6.640   2.142  24.214  0.00  0.00    -0.280 NA
ATOM      2  C   UNL     1       6.725   1.143  25.025  0.00  0.00    +0.077 A 
ATOM      3  C   UNL     1       6.895   1.522  26.491  0.00  0.00    +0.027 A 
ATOM      4  C   UNL     1       6.949   0.515  27.461  0.00  0.00    +0.049 A 
ATOM      5  C   UNL     1       7.075   0.858  28.813  0.00  0.00    +0.030 A 
ATOM      6  C   UNL     1       7.103   2.193  29.211  0.00  0.00    +0.047 A 
ATOM      7  C   UNL     1       7.037   3.207  28.259  0.00  0.00    +0.121 A 
ATOM      8  N   UNL     1       6.942  -0.830  27.092  0.00  0.00    -0.354 N 
ATOM      9  H   UNL     1       6.786  -1.503  27.832  0.00  0.00    +0.166 HD
ATOM     10  C   UNL     1       6.725  -1.267  25.780  0.00  0.00    +0.050 A 
ATOM     11  C   UNL     1       6.665  -2.654  25.548  0.00  0.00    +0.046 A 
ATOM     12  C   UNL     1       6.495  -3.149  24.264  0.00  0.00    +0.043 A 
ATOM     13 CL   UNL     1       6.389  -4.840  23.991  0.00  0.00    -0.083 Cl
ATOM     14  C   UNL     1       6.404  -2.269  23.195  0.00  0.00    +0.021 A 
ATOM     15  C   UNL     1       6.474  -0.891  23.426  0.00  0.00    +0.013 A 
ATOM     16  C   UNL     1       6.941   2.868  26.900  0.00  0.00    +0.057 A 
ATOM     17  C   UNL     1       6.640  -0.350  24.709  0.00  0.00    +0.024 A 
ENDROOT
BRANCH   1  18
ATOM     18  C   UNL     1       6.376   2.171  22.791  0.00  0.00    +0.103 C 
ATOM     19  C   UNL     1       5.209   3.128  22.548  0.00  0.00    +0.032 C 
BRANCH  18  20
ATOM     20  C   UNL     1       7.631   2.529  21.967  0.00  0.00    +0.028 C 
BRANCH  20  21
ATOM     21  C   UNL     1       8.457   1.397  21.360  0.00  0.00    +0.017 C 
BRANCH  21  22
ATOM     22  C   UNL     1       9.855   1.205  21.963  0.00  0.00    +0.084 C 
BRANCH  22  23
ATOM     23  N   UNL     1       9.948   1.258  23.440  0.00  0.00    -0.300 NA
BRANCH  23  24
ATOM     24  C   UNL     1      10.167  -0.069  24.046  0.00  0.00    +0.100 C 
BRANCH  24  26
ATOM     25 CL   UNL     1       9.967  -2.789  23.929  0.00  0.00    -0.124 Cl
ATOM     26  C   UNL     1      10.193  -1.245  23.058  0.00  0.00    +0.124 C 
ENDBRANCH  24  26
ENDBRANCH  23  24
BRANCH  23  27
ATOM     27  C   UNL     1      10.934   2.284  23.853  0.00  0.00    +0.100 C 
BRANCH  27  28
ATOM     28  C   UNL     1      10.632   3.733  23.446  0.00  0.00    +0.124 C 
ATOM     29 CL   UNL     1       9.317   4.407  24.445  0.00  0.00    -0.124 Cl
ENDBRANCH  27  28
ENDBRANCH  23  27
ENDBRANCH  22  23
ENDBRANCH  21  22
ENDBRANCH  20  21
ENDBRANCH  18  20
ENDBRANCH   1  18
BRANCH   7  30
ATOM     30  O   UNL     1       7.057   4.548  28.533  0.00  0.00    -0.495 OA
ATOM     31  C   UNL     1       6.173   5.006  29.552  0.00  0.00    +0.277 C 
ENDBRANCH   7  30
TORSDOF 10
ENDMDL
MODEL 6
REMARK VINA RESULT:      -5.9      3.287      6.224
REMARK  Name = 
REMARK  12 active torsions:
REMARK  status: ('A' for Active; 'I' for Inactive)
REMARK    1  A    between atoms: C_2  and  C_3
REMARK    2  A    between atoms: C_3  and  N_4
REMARK    3  A    between atoms: N_4  and  C_5
REMARK    4  A    between atoms: N_4  and  C_8
REMARK    5  A    between atoms: C_5  and  C_6
REMARK    6  A    between atoms: C_8  and  C_9
REMARK    7  A    between atoms: C_9  and  C_10
REMARK    8  A    between atoms: C_10  and  C_11
REMARK    9  A    between atoms: C_11  and  C_13
REMARK   10  A    between atoms: C_11  and  N_14
REMARK   11  A    between atoms: C_27  and  O_28
REMARK   12  A    between atoms: O_28  and  C_29
REMARK                            x       y       z     vdW  Elec       q    Type
REMARK                         _______ _______ _______ _____ _____    ______ ____
ROOT
ATOM      1  N   UNL     1       6.562   2.075  23.772  0.00  0.00    -0.280 NA
ATOM      2  C   UNL     1       7.826   1.963  23.543  0.00  0.00    +0.077 A 
ATOM      3  C   UNL     1       8.271   0.582  23.078  0.00  0.00    +0.027 A 
ATOM      4  C   UNL     1       9.615   0.364  22.755  0.00  0.00    +0.049 A 
ATOM      5  C   UNL     1      10.025  -0.895  22.299  0.00  0.00    +0.030 A 
ATOM      6  C   UNL     1       9.103  -1.925  22.120  0.00  0.00    +0.047 A 
ATOM      7  C   UNL     1       7.759  -1.720  22.425  0.00  0.00    +0.121 A 
ATOM      8  N   UNL     1      10.564   1.368  22.941  0.00  0.00    -0.354 N 
ATOM      9  H   UNL     1      11.469   1.223  22.512  0.00  0.00    +0.166 HD
ATOM     10  C   UNL     1      10.235   2.681  23.300  0.00  0.00    +0.050 A 
ATOM     11  C   UNL     1      11.277   3.623  23.383  0.00  0.00    +0.046 A 
ATOM     12  C   UNL     1      11.020   4.928  23.775  0.00  0.00    +0.043 A 
ATOM     13 CL   UNL     1      12.289   6.082  23.842  0.00  0.00    -0.083 Cl
ATOM     14  C   UNL     1       9.727   5.303  24.110  0.00  0.00    +0.021 A 
ATOM     15  C   UNL     1       8.694   4.363  24.038  0.00  0.00    +0.013 A 
ATOM     16  C   UNL     1       7.349  -0.469  22.911  0.00  0.00    +0.057 A 
ATOM     17  C   UNL     1       8.911   3.035  23.640  0.00  0.00    +0.024 A 
ENDROOT
BRANCH   1  18
ATOM     18  C   UNL     1       5.775   3.239  24.122  0.00  0.00    +0.103 C 
ATOM     19  C   UNL     1       4.578   3.300  23.172  0.00  0.00    +0.032 C 
BRANCH  18  20
ATOM     20  C   UNL     1       5.366   3.248  25.609  0.00  0.00    +0.028 C 
BRANCH  20  21
ATOM     21  C   UNL     1       6.430   2.952  26.664  0.00  0.00    +0.017 C 
BRANCH  21  22
ATOM     22  C   UNL     1       6.217   1.668  27.475  0.00  0.00    +0.084 C 
BRANCH  22  23
ATOM     23  N   UNL     1       6.490   0.393  26.772  0.00  0.00    -0.300 NA
BRANCH  23  24
ATOM     24  C   UNL     1       7.635  -0.340  27.345  0.00  0.00    +0.100 C 
BRANCH  24  26
ATOM     25 CL   UNL     1       8.717  -2.346  25.844  0.00  0.00    -0.124 Cl
ATOM     26  C   UNL     1       8.780  -0.639  26.365  0.00  0.00    +0.124 C 
ENDBRANCH  24  26
ENDBRANCH  23  24
BRANCH  23  27
ATOM     27  C   UNL     1       5.249  -0.409  26.666  0.00  0.00    +0.100 C 
BRANCH  27  28
ATOM     28  C   UNL     1       5.214  -1.480  25.567  0.00  0.00    +0.124 C 
ATOM     29 CL   UNL     1       5.275  -3.114  26.279  0.00  0.00    -0.124 Cl
ENDBRANCH  27  28
ENDBRANCH  23  27
ENDBRANCH  22  23
ENDBRANCH  21  22
ENDBRANCH  20  21
ENDBRANCH  18  20
ENDBRANCH   1  18
BRANCH   7  30
ATOM     30  O   UNL     1       6.769  -2.655  22.290  0.00  0.00    -0.495 OA
ATOM     31  C   UNL     1       7.028  -3.945  22.835  0.00  0.00    +0.277 C 
ENDBRANCH   7  30
TORSDOF 10
ENDMDL
MODEL 7
REMARK VINA RESULT:      -5.9      3.073      5.548
REMARK  Name = 
REMARK  12 active torsions:
REMARK  status: ('A' for Active; 'I' for Inactive)
REMARK    1  A    between atoms: C_2  and  C_3
REMARK    2  A    between atoms: C_3  and  N_4
REMARK    3  A    between atoms: N_4  and  C_5
REMARK    4  A    between atoms: N_4  and  C_8
REMARK    5  A    between atoms: C_5  and  C_6
REMARK    6  A    between atoms: C_8  and  C_9
REMARK    7  A    between atoms: C_9  and  C_10
REMARK    8  A    between atoms: C_10  and  C_11
REMARK    9  A    between atoms: C_11  and  C_13
REMARK   10  A    between atoms: C_11  and  N_14
REMARK   11  A    between atoms: C_27  and  O_28
REMARK   12  A    between atoms: O_28  and  C_29
REMARK                            x       y       z     vdW  Elec       q    Type
REMARK                         _______ _______ _______ _____ _____    ______ ____
ROOT
ATOM      1  N   UNL     1       8.196   0.059  23.684  0.00  0.00    -0.280 NA
ATOM      2  C   UNL     1       8.050   1.248  24.161  0.00  0.00    +0.077 A 
ATOM      3  C   UNL     1       6.790   1.455  24.991  0.00  0.00    +0.027 A 
ATOM      4  C   UNL     1       6.558   2.695  25.596  0.00  0.00    +0.049 A 
ATOM      5  C   UNL     1       5.416   2.882  26.384  0.00  0.00    +0.030 A 
ATOM      6  C   UNL     1       4.526   1.834  26.612  0.00  0.00    +0.047 A 
ATOM      7  C   UNL     1       4.749   0.590  26.027  0.00  0.00    +0.121 A 
ATOM      8  N   UNL     1       7.421   3.768  25.372  0.00  0.00    -0.354 N 
ATOM      9  H   UNL     1       7.316   4.569  25.981  0.00  0.00    +0.166 HD
ATOM     10  C   UNL     1       8.632   3.651  24.679  0.00  0.00    +0.050 A 
ATOM     11  C   UNL     1       9.451   4.791  24.585  0.00  0.00    +0.046 A 
ATOM     12  C   UNL     1      10.642   4.748  23.876  0.00  0.00    +0.043 A 
ATOM     13 CL   UNL     1      11.654   6.132  23.792  0.00  0.00    -0.083 Cl
ATOM     14  C   UNL     1      11.018   3.577  23.235  0.00  0.00    +0.021 A 
ATOM     15  C   UNL     1      10.198   2.448  23.320  0.00  0.00    +0.013 A 
ATOM     16  C   UNL     1       5.877   0.406  25.212  0.00  0.00    +0.057 A 
ATOM     17  C   UNL     1       8.989   2.447  24.032  0.00  0.00    +0.024 A 
ENDROOT
BRANCH   1  18
ATOM     18  C   UNL     1       9.298  -0.526  22.949  0.00  0.00    +0.103 C 
ATOM     19  C   UNL     1      10.366  -0.945  23.959  0.00  0.00    +0.032 C 
BRANCH  18  20
ATOM     20  C   UNL     1       8.846  -1.683  22.034  0.00  0.00    +0.028 C 
BRANCH  20  21
ATOM     21  C   UNL     1       7.627  -2.508  22.442  0.00  0.00    +0.017 C 
BRANCH  21  22
ATOM     22  C   UNL     1       7.930  -3.779  23.247  0.00  0.00    +0.084 C 
BRANCH  22  23
ATOM     23  N   UNL     1       6.815  -4.327  24.052  0.00  0.00    -0.300 NA
BRANCH  23  24
ATOM     24  C   UNL     1       6.134  -5.456  23.389  0.00  0.00    +0.100 C 
BRANCH  24  26
ATOM     25 CL   UNL     1       6.174  -5.707  20.672  0.00  0.00    -0.124 Cl
ATOM     26  C   UNL     1       6.918  -6.114  22.244  0.00  0.00    +0.124 C 
ENDBRANCH  24  26
ENDBRANCH  23  24
BRANCH  23  27
ATOM     27  C   UNL     1       7.276  -4.622  25.429  0.00  0.00    +0.100 C 
BRANCH  27  28
ATOM     28  C   UNL     1       8.483  -3.822  25.938  0.00  0.00    +0.124 C 
ATOM     29 CL   UNL     1       7.977  -2.205  26.494  0.00  0.00    -0.124 Cl
ENDBRANCH  27  28
ENDBRANCH  23  27
ENDBRANCH  22  23
ENDBRANCH  21  22
ENDBRANCH  20  21
ENDBRANCH  18  20
ENDBRANCH   1  18
BRANCH   7  30
ATOM     30  O   UNL     1       3.945  -0.507  26.180  0.00  0.00    -0.495 OA
ATOM     31  C   UNL     1       4.185  -1.323  27.323  0.00  0.00    +0.277 C 
ENDBRANCH   7  30
TORSDOF 10
ENDMDL
MODEL 8
REMARK VINA RESULT:      -5.7      3.288      5.189
REMARK  Name = 
REMARK  12 active torsions:
REMARK  status: ('A' for Active; 'I' for Inactive)
REMARK    1  A    between atoms: C_2  and  C_3
REMARK    2  A    between atoms: C_3  and  N_4
REMARK    3  A    between atoms: N_4  and  C_5
REMARK    4  A    between atoms: N_4  and  C_8
REMARK    5  A    between atoms: C_5  and  C_6
REMARK    6  A    between atoms: C_8  and  C_9
REMARK    7  A    between atoms: C_9  and  C_10
REMARK    8  A    between atoms: C_10  and  C_11
REMARK    9  A    between atoms: C_11  and  C_13
REMARK   10  A    between atoms: C_11  and  N_14
REMARK   11  A    between atoms: C_27  and  O_28
REMARK   12  A    between atoms: O_28  and  C_29
REMARK                            x       y       z     vdW  Elec       q    Type
REMARK                         _______ _______ _______ _____ _____    ______ ____
ROOT
ATOM      1  N   UNL     1       7.470   1.429  23.220  0.00  0.00    -0.280 NA
ATOM      2  C   UNL     1       7.594   2.709  23.311  0.00  0.00    +0.077 A 
ATOM      3  C   UNL     1       6.279   3.478  23.336  0.00  0.00    +0.027 A 
ATOM      4  C   UNL     1       6.297   4.869  23.481  0.00  0.00    +0.049 A 
ATOM      5  C   UNL     1       5.091   5.579  23.535  0.00  0.00    +0.030 A 
ATOM      6  C   UNL     1       3.868   4.912  23.489  0.00  0.00    +0.047 A 
ATOM      7  C   UNL     1       3.833   3.526  23.357  0.00  0.00    +0.121 A 
ATOM      8  N   UNL     1       7.504   5.566  23.511  0.00  0.00    -0.354 N 
ATOM      9  H   UNL     1       7.465   6.532  23.811  0.00  0.00    +0.166 HD
ATOM     10  C   UNL     1       8.755   4.938  23.558  0.00  0.00    +0.050 A 
ATOM     11  C   UNL     1       9.899   5.751  23.663  0.00  0.00    +0.046 A 
ATOM     12  C   UNL     1      11.166   5.190  23.671  0.00  0.00    +0.043 A 
ATOM     13 CL   UNL     1      12.556   6.184  23.831  0.00  0.00    -0.083 Cl
ATOM     14  C   UNL     1      11.309   3.815  23.555  0.00  0.00    +0.021 A 
ATOM     15  C   UNL     1      10.173   3.009  23.440  0.00  0.00    +0.013 A 
ATOM     16  C   UNL     1       5.039   2.814  23.274  0.00  0.00    +0.057 A 
ATOM     17  C   UNL     1       8.873   3.536  23.433  0.00  0.00    +0.024 A 
ENDROOT
BRANCH   1  18
ATOM     18  C   UNL     1       8.474   0.386  23.271  0.00  0.00    +0.103 C 
ATOM     19  C   UNL     1       8.458  -0.214  24.677  0.00  0.00    +0.032 C 
BRANCH  18  20
ATOM     20  C   UNL     1       8.283  -0.670  22.162  0.00  0.00    +0.028 C 
BRANCH  20  21
ATOM     21  C   UNL     1       8.719  -2.107  22.436  0.00  0.00    +0.017 C 
BRANCH  21  22
ATOM     22  C   UNL     1       7.598  -3.154  22.408  0.00  0.00    +0.084 C 
BRANCH  22  23
ATOM     23  N   UNL     1       7.533  -4.078  23.564  0.00  0.00    -0.300 NA
BRANCH  23  24
ATOM     24  C   UNL     1       8.675  -3.920  24.485  0.00  0.00    +0.100 C 
BRANCH  24  26
ATOM     25 CL   UNL     1       8.271  -5.246  26.836  0.00  0.00    -0.124 Cl
ATOM     26  C   UNL     1       8.303  -3.691  25.958  0.00  0.00    +0.124 C 
ENDBRANCH  24  26
ENDBRANCH  23  24
BRANCH  23  27
ATOM     27  C   UNL     1       6.208  -3.985  24.219  0.00  0.00    +0.100 C 
BRANCH  27  28
ATOM     28  C   UNL     1       5.334  -2.781  23.838  0.00  0.00    +0.124 C 
ATOM     29 CL   UNL     1       5.179  -1.655  25.212  0.00  0.00    -0.124 Cl
ENDBRANCH  27  28
ENDBRANCH  23  27
ENDBRANCH  22  23
ENDBRANCH  21  22
ENDBRANCH  20  21
ENDBRANCH  18  20
ENDBRANCH   1  18
BRANCH   7  30
ATOM     30  O   UNL     1       2.694   2.769  23.302  0.00  0.00    -0.495 OA
ATOM     31  C   UNL     1       1.518   3.415  22.824  0.00  0.00    +0.277 C 
ENDBRANCH   7  30
TORSDOF 10
ENDMDL
MODEL 9
REMARK VINA RESULT:      -5.7      3.141      5.465
REMARK  Name = 
REMARK  12 active torsions:
REMARK  status: ('A' for Active; 'I' for Inactive)
REMARK    1  A    between atoms: C_2  and  C_3
REMARK    2  A    between atoms: C_3  and  N_4
REMARK    3  A    between atoms: N_4  and  C_5
REMARK    4  A    between atoms: N_4  and  C_8
REMARK    5  A    between atoms: C_5  and  C_6
REMARK    6  A    between atoms: C_8  and  C_9
REMARK    7  A    between atoms: C_9  and  C_10
REMARK    8  A    between atoms: C_10  and  C_11
REMARK    9  A    between atoms: C_11  and  C_13
REMARK   10  A    between atoms: C_11  and  N_14
REMARK   11  A    between atoms: C_27  and  O_28
REMARK   12  A    between atoms: O_28  and  C_29
REMARK                            x       y       z     vdW  Elec       q    Type
REMARK                         _______ _______ _______ _____ _____    ______ ____
ROOT
ATOM      1  N   UNL     1       7.752   0.976  23.922  0.00  0.00    -0.280 NA
ATOM      2  C   UNL     1       7.863   2.259  23.984  0.00  0.00    +0.077 A 
ATOM      3  C   UNL     1       6.571   2.999  24.304  0.00  0.00    +0.027 A 
ATOM      4  C   UNL     1       6.590   4.391  24.442  0.00  0.00    +0.049 A 
ATOM      5  C   UNL     1       5.411   5.074  24.765  0.00  0.00    +0.030 A 
ATOM      6  C   UNL     1       4.224   4.380  24.996  0.00  0.00    +0.047 A 
ATOM      7  C   UNL     1       4.192   2.993  24.875  0.00  0.00    +0.121 A 
ATOM      8  N   UNL     1       7.757   5.114  24.200  0.00  0.00    -0.354 N 
ATOM      9  H   UNL     1       7.763   6.081  24.501  0.00  0.00    +0.166 HD
ATOM     10  C   UNL     1       9.000   4.515  23.965  0.00  0.00    +0.050 A 
ATOM     11  C   UNL     1      10.119   5.354  23.810  0.00  0.00    +0.046 A 
ATOM     12  C   UNL     1      11.369   4.820  23.533  0.00  0.00    +0.043 A 
ATOM     13 CL   UNL     1      12.736   5.846  23.377  0.00  0.00    -0.083 Cl
ATOM     14  C   UNL     1      11.513   3.449  23.387  0.00  0.00    +0.021 A 
ATOM     15  C   UNL     1      10.399   2.617  23.531  0.00  0.00    +0.013 A 
ATOM     16  C   UNL     1       5.364   2.307  24.522  0.00  0.00    +0.057 A 
ATOM     17  C   UNL     1       9.119   3.115  23.816  0.00  0.00    +0.024 A 
ENDROOT
BRANCH   1  18
ATOM     18  C   UNL     1       8.765  -0.044  23.746  0.00  0.00    +0.103 C 
ATOM     19  C   UNL     1       9.288  -0.431  25.130  0.00  0.00    +0.032 C 
BRANCH  18  20
ATOM     20  C   UNL     1       8.249  -1.251  22.937  0.00  0.00    +0.028 C 
BRANCH  20  21
ATOM     21  C   UNL     1       6.763  -1.596  23.001  0.00  0.00    +0.017 C 
BRANCH  21  22
ATOM     22  C   UNL     1       6.294  -2.254  24.306  0.00  0.00    +0.084 C 
BRANCH  22  23
ATOM     23  N   UNL     1       5.717  -3.612  24.186  0.00  0.00    -0.300 NA
BRANCH  23  24
ATOM     24  C   UNL     1       5.293  -3.933  22.810  0.00  0.00    +0.100 C 
BRANCH  24  26
ATOM     25 CL   UNL     1       6.397  -5.642  20.990  0.00  0.00    -0.124 Cl
ATOM     26  C   UNL     1       5.364  -5.420  22.431  0.00  0.00    +0.124 C 
ENDBRANCH  24  26
ENDBRANCH  23  24
BRANCH  23  27
ATOM     27  C   UNL     1       6.632  -4.611  24.787  0.00  0.00    +0.100 C 
BRANCH  27  28
ATOM     28  C   UNL     1       7.761  -4.066  25.673  0.00  0.00    +0.124 C 
ATOM     29 CL   UNL     1       9.340  -4.246  24.863  0.00  0.00    -0.124 Cl
ENDBRANCH  27  28
ENDBRANCH  23  27
ENDBRANCH  22  23
ENDBRANCH  21  22
ENDBRANCH  20  21
ENDBRANCH  18  20
ENDBRANCH   1  18
BRANCH   7  30
ATOM     30  O   UNL     1       3.087   2.210  25.077  0.00  0.00    -0.495 OA
ATOM     31  C   UNL     1       2.189   2.622  26.103  0.00  0.00    +0.277 C 
ENDBRANCH   7  30
TORSDOF 10
ENDMDL
