MODEL 1
REMARK VINA RESULT:      -5.2      0.000      0.000
REMARK  Name = 
REMARK  17 active torsions:
REMARK  status: ('A' for Active; 'I' for Inactive)
REMARK    1  A    between atoms: O_1  and  C_2
REMARK    2  A    between atoms: C_2  and  C_4
REMARK    3  A    between atoms: C_2  and  C_10
REMARK    4  A    between atoms: C_4  and  O_5
REMARK    5  A    between atoms: O_5  and  P_6
REMARK    6  A    between atoms: P_6  and  O_7
REMARK    7  A    between atoms: P_6  and  O_8
REMARK    8  A    between atoms: C_10  and  O_12
REMARK    9  A    between atoms: C_10  and  C_13
REMARK   10  A    between atoms: C_13  and  O_15
REMARK   11  A    between atoms: C_13  and  C_16
REMARK   12  A    between atoms: C_16  and  O_18
REMARK   13  A    between atoms: C_16  and  C_19
REMARK   14  A    between atoms: C_19  and  O_20
REMARK   15  A    between atoms: O_20  and  P_21
REMARK   16  A    between atoms: P_21  and  O_22
REMARK   17  A    between atoms: P_21  and  O_23
REMARK                            x       y       z     vdW  Elec       q    Type
REMARK                         _______ _______ _______ _____ _____    ______ ____
ROOT
ATOM      1  C   UNL     1       8.484  -1.464  22.911  0.00  0.00    +0.176 C 
ENDROOT
BRANCH   1   2
ATOM      2  O   UNL     1       7.850  -2.749  22.760  0.00  0.00    -0.386 OA
ATOM      3  H   UNL     1       7.108  -2.685  22.137  0.00  0.00    +0.210 HD
ENDBRANCH   1   2
BRANCH   1   4
ATOM      4  C   UNL     1       9.432  -1.516  24.129  0.00  0.00    +0.176 C 
BRANCH   4   5
ATOM      5  O   UNL     1      10.099  -2.785  24.203  0.00  0.00    -0.386 OA
ATOM      6  H   UNL     1      10.725  -2.810  23.459  0.00  0.00    +0.210 HD
ENDBRANCH   4   5
BRANCH   4   7
ATOM      7  C   UNL     1       8.649  -1.271  25.439  0.00  0.00    +0.172 C 
BRANCH   7   8
ATOM      8  O   UNL     1       9.271  -0.191  26.163  0.00  0.00    -0.387 OA
ATOM      9  H   UNL     1       9.257   0.597  25.590  0.00  0.00    +0.210 HD
ENDBRANCH   7   8
BRANCH   7  10
ATOM     10  C   UNL     1       8.593  -2.524  26.318  0.00  0.00    +0.206 C 
BRANCH  10  11
ATOM     11  O   UNL     1       7.763  -3.480  25.674  0.00  0.00    -0.284 OA
BRANCH  11  12
ATOM     12  P   UNL     1       8.194  -5.010  25.744  0.00  0.00    +0.472 P 
ATOM     13  O   UNL     1       7.217  -5.961  26.328  0.00  0.00    -0.228 OA
BRANCH  12  14
ATOM     14  O   UNL     1       8.628  -5.321  24.239  0.00  0.00    -0.303 OA
ATOM     15  H   UNL     1       7.858  -5.606  23.713  0.00  0.00    +0.222 HD
ENDBRANCH  12  14
BRANCH  12  16
ATOM     16  O   UNL     1       9.591  -4.964  26.518  0.00  0.00    -0.303 OA
ATOM     17  H   UNL     1      10.253  -4.483  25.988  0.00  0.00    +0.222 HD
ENDBRANCH  12  16
ENDBRANCH  11  12
ENDBRANCH  10  11
ENDBRANCH   7  10
ENDBRANCH   4   7
ENDBRANCH   1   4
BRANCH   1  18
ATOM     18  C   UNL     1       9.180  -1.061  21.587  0.00  0.00    +0.172 C 
BRANCH  18  19
ATOM     19  O   UNL     1      10.540  -1.507  21.561  0.00  0.00    -0.387 OA
ATOM     20  H   UNL     1      10.841  -1.544  20.636  0.00  0.00    +0.210 HD
ENDBRANCH  18  19
BRANCH  18  21
ATOM     21  C   UNL     1       9.110   0.469  21.442  0.00  0.00    +0.206 C 
BRANCH  21  22
ATOM     22  O   UNL     1      10.209   1.140  22.030  0.00  0.00    -0.284 OA
BRANCH  22  23
ATOM     23  P   UNL     1       9.829   2.373  22.982  0.00  0.00    +0.472 P 
ATOM     24  O   UNL     1       9.526   2.061  24.405  0.00  0.00    -0.228 OA
BRANCH  23  25
ATOM     25  O   UNL     1      11.032   3.403  22.804  0.00  0.00    -0.303 OA
ATOM     26  H   UNL     1      11.356   3.405  21.884  0.00  0.00    +0.222 HD
ENDBRANCH  23  25
BRANCH  23  27
ATOM     27  O   UNL     1       8.622   3.105  22.230  0.00  0.00    -0.303 OA
ATOM     28  H   UNL     1       7.866   3.244  22.828  0.00  0.00    +0.222 HD
ENDBRANCH  23  27
ENDBRANCH  22  23
ENDBRANCH  21  22
ENDBRANCH  18  21
ENDBRANCH   1  18
TORSDOF 17
ENDMDL
MODEL 2
REMARK VINA RESULT:      -5.1      2.173      5.704
REMARK  Name = 
REMARK  17 active torsions:
REMARK  status: ('A' for Active; 'I' for Inactive)
REMARK    1  A    between atoms: O_1  and  C_2
REMARK    2  A    between atoms: C_2  and  C_4
REMARK    3  A    between atoms: C_2  and  C_10
REMARK    4  A    between atoms: C_4  and  O_5
REMARK    5  A    between atoms: O_5  and  P_6
REMARK    6  A    between atoms: P_6  and  O_7
REMARK    7  A    between atoms: P_6  and  O_8
REMARK    8  A    between atoms: C_10  and  O_12
REMARK    9  A    between atoms: C_10  and  C_13
REMARK   10  A    between atoms: C_13  and  O_15
REMARK   11  A    between atoms: C_13  and  C_16
REMARK   12  A    between atoms: C_16  and  O_18
REMARK   13  A    between atoms: C_16  and  C_19
REMARK   14  A    between atoms: C_19  and  O_20
REMARK   15  A    between atoms: O_20  and  P_21
REMARK   16  A    between atoms: P_21  and  O_22
REMARK   17  A    between atoms: P_21  and  O_23
REMARK                            x       y       z     vdW  Elec       q    Type
REMARK                         _______ _______ _______ _____ _____    ______ ____
ROOT
ATOM      1  C   UNL     1       8.946  -3.538  25.420  0.00  0.00    +0.176 C 
ENDROOT
BRANCH   1   2
ATOM      2  O   UNL     1       9.684  -3.371  24.193  0.00  0.00    -0.386 OA
ATOM      3  H   UNL     1      10.637  -3.351  24.377  0.00  0.00    +0.210 HD
ENDBRANCH   1   2
BRANCH   1   4
ATOM      4  C   UNL     1       8.211  -2.219  25.743  0.00  0.00    +0.176 C 
BRANCH   4   5
ATOM      5  O   UNL     1       7.338  -1.844  24.665  0.00  0.00    -0.386 OA
ATOM      6  H   UNL     1       7.796  -1.140  24.174  0.00  0.00    +0.210 HD
ENDBRANCH   4   5
BRANCH   4   7
ATOM      7  C   UNL     1       9.223  -1.080  26.002  0.00  0.00    +0.172 C 
BRANCH   7   8
ATOM      8  O   UNL     1       8.923  -0.465  27.270  0.00  0.00    -0.387 OA
ATOM      9  H   UNL     1       8.077   0.009  27.177  0.00  0.00    +0.210 HD
ENDBRANCH   7   8
BRANCH   7  10
ATOM     10  C   UNL     1       9.200  -0.027  24.891  0.00  0.00    +0.206 C 
BRANCH  10  11
ATOM     11  O   UNL     1      10.093  -0.443  23.868  0.00  0.00    -0.284 OA
BRANCH  11  12
ATOM     12  P   UNL     1       9.650  -0.223  22.355  0.00  0.00    +0.472 P 
ATOM     13  O   UNL     1      10.075   1.039  21.702  0.00  0.00    -0.228 OA
BRANCH  12  14
ATOM     14  O   UNL     1      10.157  -1.560  21.644  0.00  0.00    -0.303 OA
ATOM     15  H   UNL     1       9.764  -2.345  22.070  0.00  0.00    +0.222 HD
ENDBRANCH  12  14
BRANCH  12  16
ATOM     16  O   UNL     1       8.065  -0.422  22.404  0.00  0.00    -0.303 OA
ATOM     17  H   UNL     1       7.824  -1.020  23.136  0.00  0.00    +0.222 HD
ENDBRANCH  12  16
ENDBRANCH  11  12
ENDBRANCH  10  11
ENDBRANCH   7  10
ENDBRANCH   4   7
ENDBRANCH   1   4
BRANCH   1  18
ATOM     18  C   UNL     1       8.012  -4.770  25.310  0.00  0.00    +0.172 C 
BRANCH  18  19
ATOM     19  O   UNL     1       8.450  -5.828  26.169  0.00  0.00    -0.387 OA
ATOM     20  H   UNL     1       8.062  -6.665  25.860  0.00  0.00    +0.210 HD
ENDBRANCH  18  19
BRANCH  18  21
ATOM     21  C   UNL     1       7.986  -5.238  23.845  0.00  0.00    +0.206 C 
BRANCH  21  22
ATOM     22  O   UNL     1       6.682  -5.308  23.301  0.00  0.00    -0.284 OA
BRANCH  22  23
ATOM     23  P   UNL     1       6.336  -4.190  22.205  0.00  0.00    +0.472 P 
ATOM     24  O   UNL     1       5.851  -4.666  20.881  0.00  0.00    -0.228 OA
BRANCH  23  25
ATOM     25  O   UNL     1       5.314  -3.212  22.938  0.00  0.00    -0.303 OA
ATOM     26  H   UNL     1       5.789  -2.513  23.426  0.00  0.00    +0.222 HD
ENDBRANCH  23  25
BRANCH  23  27
ATOM     27  O   UNL     1       7.663  -3.303  22.103  0.00  0.00    -0.303 OA
ATOM     28  H   UNL     1       8.443  -3.798  22.411  0.00  0.00    +0.222 HD
ENDBRANCH  23  27
ENDBRANCH  22  23
ENDBRANCH  21  22
ENDBRANCH  18  21
ENDBRANCH   1  18
TORSDOF 17
ENDMDL
MODEL 3
REMARK VINA RESULT:      -5.1      2.083      3.418
REMARK  Name = 
REMARK  17 active torsions:
REMARK  status: ('A' for Active; 'I' for Inactive)
REMARK    1  A    between atoms: O_1  and  C_2
REMARK    2  A    between atoms: C_2  and  C_4
REMARK    3  A    between atoms: C_2  and  C_10
REMARK    4  A    between atoms: C_4  and  O_5
REMARK    5  A    between atoms: O_5  and  P_6
REMARK    6  A    between atoms: P_6  and  O_7
REMARK    7  A    between atoms: P_6  and  O_8
REMARK    8  A    between atoms: C_10  and  O_12
REMARK    9  A    between atoms: C_10  and  C_13
REMARK   10  A    between atoms: C_13  and  O_15
REMARK   11  A    between atoms: C_13  and  C_16
REMARK   12  A    between atoms: C_16  and  O_18
REMARK   13  A    between atoms: C_16  and  C_19
REMARK   14  A    between atoms: C_19  and  O_20
REMARK   15  A    between atoms: O_20  and  P_21
REMARK   16  A    between atoms: P_21  and  O_22
REMARK   17  A    between atoms: P_21  and  O_23
REMARK                            x       y       z     vdW  Elec       q    Type
REMARK                         _______ _______ _______ _____ _____    ______ ____
ROOT
ATOM      1  C   UNL     1      10.389   0.902  23.559  0.00  0.00    +0.176 C 
ENDROOT
BRANCH   1   2
ATOM      2  O   UNL     1      10.757   1.150  24.930  0.00  0.00    -0.386 OA
ATOM      3  H   UNL     1      10.483   2.043  25.193  0.00  0.00    +0.210 HD
ENDBRANCH   1   2
BRANCH   1   4
ATOM      4  C   UNL     1       9.354  -0.243  23.520  0.00  0.00    +0.176 C 
BRANCH   4   5
ATOM      5  O   UNL     1       8.710  -0.392  24.795  0.00  0.00    -0.386 OA
ATOM      6  H   UNL     1       9.138  -1.147  25.233  0.00  0.00    +0.210 HD
ENDBRANCH   4   5
BRANCH   4   7
ATOM      7  C   UNL     1      10.031  -1.577  23.130  0.00  0.00    +0.172 C 
BRANCH   7   8
ATOM      8  O   UNL     1      10.290  -1.574  21.712  0.00  0.00    -0.387 OA
ATOM      9  H   UNL     1       9.457  -1.791  21.257  0.00  0.00    +0.210 HD
ENDBRANCH   7   8
BRANCH   7  10
ATOM     10  C   UNL     1       9.170  -2.788  23.502  0.00  0.00    +0.206 C 
BRANCH  10  11
ATOM     11  O   UNL     1       9.505  -3.180  24.825  0.00  0.00    -0.284 OA
BRANCH  11  12
ATOM     12  P   UNL     1       9.042  -4.620  25.317  0.00  0.00    +0.472 P 
ATOM     13  O   UNL     1       7.903  -5.245  24.601  0.00  0.00    -0.228 OA
BRANCH  12  14
ATOM     14  O   UNL     1      10.403  -5.454  25.288  0.00  0.00    -0.303 OA
ATOM     15  H   UNL     1      10.233  -6.394  25.487  0.00  0.00    +0.222 HD
ENDBRANCH  12  14
BRANCH  12  16
ATOM     16  O   UNL     1       8.783  -4.409  26.880  0.00  0.00    -0.303 OA
ATOM     17  H   UNL     1       9.487  -4.840  27.398  0.00  0.00    +0.222 HD
ENDBRANCH  12  16
ENDBRANCH  11  12
ENDBRANCH  10  11
ENDBRANCH   7  10
ENDBRANCH   4   7
ENDBRANCH   1   4
BRANCH   1  18
ATOM     18  C   UNL     1       9.902   2.216  22.898  0.00  0.00    +0.172 C 
BRANCH  18  19
ATOM     19  O   UNL     1      10.335   2.300  21.536  0.00  0.00    -0.387 OA
ATOM     20  H   UNL     1       9.749   2.912  21.057  0.00  0.00    +0.210 HD
ENDBRANCH  18  19
BRANCH  18  21
ATOM     21  C   UNL     1      10.441   3.405  23.712  0.00  0.00    +0.206 C 
BRANCH  21  22
ATOM     22  O   UNL     1      11.810   3.673  23.475  0.00  0.00    -0.284 OA
BRANCH  22  23
ATOM     23  P   UNL     1      12.152   5.188  23.079  0.00  0.00    +0.472 P 
ATOM     24  O   UNL     1      12.974   5.400  21.856  0.00  0.00    -0.228 OA
BRANCH  23  25
ATOM     25  O   UNL     1      10.736   5.918  23.022  0.00  0.00    -0.303 OA
ATOM     26  H   UNL     1      10.199   5.697  23.806  0.00  0.00    +0.222 HD
ENDBRANCH  23  25
BRANCH  23  27
ATOM     27  O   UNL     1      12.817   5.808  24.395  0.00  0.00    -0.303 OA
ATOM     28  H   UNL     1      12.326   6.591  24.703  0.00  0.00    +0.222 HD
ENDBRANCH  23  27
ENDBRANCH  22  23
ENDBRANCH  21  22
ENDBRANCH  18  21
ENDBRANCH   1  18
TORSDOF 17
ENDMDL
MODEL 4
REMARK VINA RESULT:      -5.1      2.054      3.285
REMARK  Name = 
REMARK  17 active torsions:
REMARK  status: ('A' for Active; 'I' for Inactive)
REMARK    1  A    between atoms: O_1  and  C_2
REMARK    2  A    between atoms: C_2  and  C_4
REMARK    3  A    between atoms: C_2  and  C_10
REMARK    4  A    between atoms: C_4  and  O_5
REMARK    5  A    between atoms: O_5  and  P_6
REMARK    6  A    between atoms: P_6  and  O_7
REMARK    7  A    between atoms: P_6  and  O_8
REMARK    8  A    between atoms: C_10  and  O_12
REMARK    9  A    between atoms: C_10  and  C_13
REMARK   10  A    between atoms: C_13  and  O_15
REMARK   11  A    between atoms: C_13  and  C_16
REMARK   12  A    between atoms: C_16  and  O_18
REMARK   13  A    between atoms: C_16  and  C_19
REMARK   14  A    between atoms: C_19  and  O_20
REMARK   15  A    between atoms: O_20  and  P_21
REMARK   16  A    between atoms: P_21  and  O_22
REMARK   17  A    between atoms: P_21  and  O_23
REMARK                            x       y       z     vdW  Elec       q    Type
REMARK                         _______ _______ _______ _____ _____    ______ ____
ROOT
ATOM      1  C   UNL     1       9.492   1.191  22.679  0.00  0.00    +0.176 C 
ENDROOT
BRANCH   1   2
ATOM      2  O   UNL     1       9.848   1.938  21.500  0.00  0.00    -0.386 OA
ATOM      3  H   UNL     1      10.360   1.380  20.892  0.00  0.00    +0.210 HD
ENDBRANCH   1   2
BRANCH   1   4
ATOM      4  C   UNL     1       9.856  -0.293  22.457  0.00  0.00    +0.176 C 
BRANCH   4   5
ATOM      5  O   UNL     1       9.836  -0.619  21.058  0.00  0.00    -0.386 OA
ATOM      6  H   UNL     1      10.533  -0.082  20.642  0.00  0.00    +0.210 HD
ENDBRANCH   4   5
BRANCH   4   7
ATOM      7  C   UNL     1       8.871  -1.215  23.211  0.00  0.00    +0.172 C 
BRANCH   7   8
ATOM      8  O   UNL     1       7.718  -0.446  23.608  0.00  0.00    -0.387 OA
ATOM      9  H   UNL     1       6.924  -0.960  23.376  0.00  0.00    +0.210 HD
ENDBRANCH   7   8
BRANCH   7  10
ATOM     10  C   UNL     1       9.516  -1.862  24.440  0.00  0.00    +0.206 C 
BRANCH  10  11
ATOM     11  O   UNL     1       9.879  -3.193  24.101  0.00  0.00    -0.284 OA
BRANCH  11  12
ATOM     12  P   UNL     1       9.172  -4.383  24.884  0.00  0.00    +0.472 P 
ATOM     13  O   UNL     1       7.982  -4.999  24.247  0.00  0.00    -0.228 OA
BRANCH  12  14
ATOM     14  O   UNL     1      10.383  -5.383  25.171  0.00  0.00    -0.303 OA
ATOM     15  H   UNL     1      10.116  -6.070  25.810  0.00  0.00    +0.222 HD
ENDBRANCH  12  14
BRANCH  12  16
ATOM     16  O   UNL     1       8.879  -3.752  26.323  0.00  0.00    -0.303 OA
ATOM     17  H   UNL     1       9.584  -4.001  26.949  0.00  0.00    +0.222 HD
ENDBRANCH  12  16
ENDBRANCH  11  12
ENDBRANCH  10  11
ENDBRANCH   7  10
ENDBRANCH   4   7
ENDBRANCH   1   4
BRANCH   1  18
ATOM     18  C   UNL     1      10.159   1.823  23.926  0.00  0.00    +0.172 C 
BRANCH  18  19
ATOM     19  O   UNL     1       9.363   1.618  25.098  0.00  0.00    -0.387 OA
ATOM     20  H   UNL     1       9.605   0.764  25.496  0.00  0.00    +0.210 HD
ENDBRANCH  18  19
BRANCH  18  21
ATOM     21  C   UNL     1      10.361   3.326  23.666  0.00  0.00    +0.206 C 
BRANCH  21  22
ATOM     22  O   UNL     1      11.695   3.665  23.336  0.00  0.00    -0.284 OA
BRANCH  22  23
ATOM     23  P   UNL     1      11.999   5.236  23.244  0.00  0.00    +0.472 P 
ATOM     24  O   UNL     1      12.748   5.849  24.375  0.00  0.00    -0.228 OA
BRANCH  23  25
ATOM     25  O   UNL     1      12.720   5.423  21.834  0.00  0.00    -0.303 OA
ATOM     26  H   UNL     1      12.081   5.340  21.103  0.00  0.00    +0.222 HD
ENDBRANCH  23  25
BRANCH  23  27
ATOM     27  O   UNL     1      10.569   5.910  23.002  0.00  0.00    -0.303 OA
ATOM     28  H   UNL     1      10.487   6.750  23.489  0.00  0.00    +0.222 HD
ENDBRANCH  23  27
ENDBRANCH  22  23
ENDBRANCH  21  22
ENDBRANCH  18  21
ENDBRANCH   1  18
TORSDOF 17
ENDMDL
MODEL 5
REMARK VINA RESULT:      -5.0      3.948      5.979
REMARK  Name = 
REMARK  17 active torsions:
REMARK  status: ('A' for Active; 'I' for Inactive)
REMARK    1  A    between atoms: O_1  and  C_2
REMARK    2  A    between atoms: C_2  and  C_4
REMARK    3  A    between atoms: C_2  and  C_10
REMARK    4  A    between atoms: C_4  and  O_5
REMARK    5  A    between atoms: O_5  and  P_6
REMARK    6  A    between atoms: P_6  and  O_7
REMARK    7  A    between atoms: P_6  and  O_8
REMARK    8  A    between atoms: C_10  and  O_12
REMARK    9  A    between atoms: C_10  and  C_13
REMARK   10  A    between atoms: C_13  and  O_15
REMARK   11  A    between atoms: C_13  and  C_16
REMARK   12  A    between atoms: C_16  and  O_18
REMARK   13  A    between atoms: C_16  and  C_19
REMARK   14  A    between atoms: C_19  and  O_20
REMARK   15  A    between atoms: O_20  and  P_21
REMARK   16  A    between atoms: P_21  and  O_22
REMARK   17  A    between atoms: P_21  and  O_23
REMARK                            x       y       z     vdW  Elec       q    Type
REMARK                         _______ _______ _______ _____ _____    ______ ____
ROOT
ATOM      1  C   UNL     1       8.596  -4.700  24.853  0.00  0.00    +0.176 C 
ENDROOT
BRANCH   1   2
ATOM      2  O   UNL     1       9.819  -5.433  24.642  0.00  0.00    -0.386 OA
ATOM      3  H   UNL     1       9.651  -6.210  24.084  0.00  0.00    +0.210 HD
ENDBRANCH   1   2
BRANCH   1   4
ATOM      4  C   UNL     1       8.441  -4.412  26.362  0.00  0.00    +0.176 C 
BRANCH   4   5
ATOM      5  O   UNL     1       9.602  -4.850  27.086  0.00  0.00    -0.386 OA
ATOM      6  H   UNL     1      10.212  -5.222  26.426  0.00  0.00    +0.210 HD
ENDBRANCH   4   5
BRANCH   4   7
ATOM      7  C   UNL     1       7.188  -5.119  26.926  0.00  0.00    +0.172 C 
BRANCH   7   8
ATOM      8  O   UNL     1       7.603  -6.145  27.849  0.00  0.00    -0.387 OA
ATOM      9  H   UNL     1       8.226  -5.742  28.481  0.00  0.00    +0.210 HD
ENDBRANCH   7   8
BRANCH   7  10
ATOM     10  C   UNL     1       6.325  -5.730  25.818  0.00  0.00    +0.206 C 
BRANCH  10  11
ATOM     11  O   UNL     1       5.428  -6.655  26.415  0.00  0.00    -0.284 OA
BRANCH  11  12
ATOM     12  P   UNL     1       3.926  -6.681  25.891  0.00  0.00    +0.472 P 
ATOM     13  O   UNL     1       2.855  -6.790  26.912  0.00  0.00    -0.228 OA
BRANCH  12  14
ATOM     14  O   UNL     1       3.854  -5.381  24.967  0.00  0.00    -0.303 OA
ATOM     15  H   UNL     1       4.749  -5.104  24.695  0.00  0.00    +0.222 HD
ENDBRANCH  12  14
BRANCH  12  16
ATOM     16  O   UNL     1       3.928  -7.876  24.829  0.00  0.00    -0.303 OA
ATOM     17  H   UNL     1       4.660  -7.761  24.196  0.00  0.00    +0.222 HD
ENDBRANCH  12  16
ENDBRANCH  11  12
ENDBRANCH  10  11
ENDBRANCH   7  10
ENDBRANCH   4   7
ENDBRANCH   1   4
BRANCH   1  18
ATOM     18  C   UNL     1       8.582  -3.431  23.964  0.00  0.00    +0.172 C 
BRANCH  18  19
ATOM     19  O   UNL     1       8.117  -2.292  24.696  0.00  0.00    -0.387 OA
ATOM     20  H   UNL     1       8.305  -2.429  25.641  0.00  0.00    +0.210 HD
ENDBRANCH  18  19
BRANCH  18  21
ATOM     21  C   UNL     1       7.680  -3.695  22.745  0.00  0.00    +0.206 C 
BRANCH  21  22
ATOM     22  O   UNL     1       7.451  -5.070  22.504  0.00  0.00    -0.284 OA
BRANCH  22  23
ATOM     23  P   UNL     1       6.030  -5.423  21.849  0.00  0.00    +0.472 P 
ATOM     24  O   UNL     1       5.985  -5.572  20.369  0.00  0.00    -0.228 OA
BRANCH  23  25
ATOM     25  O   UNL     1       5.539  -6.722  22.631  0.00  0.00    -0.303 OA
ATOM     26  H   UNL     1       5.367  -6.520  23.569  0.00  0.00    +0.222 HD
ENDBRANCH  23  25
BRANCH  23  27
ATOM     27  O   UNL     1       5.043  -4.288  22.394  0.00  0.00    -0.303 OA
ATOM     28  H   UNL     1       5.444  -3.404  22.315  0.00  0.00    +0.222 HD
ENDBRANCH  23  27
ENDBRANCH  22  23
ENDBRANCH  21  22
ENDBRANCH  18  21
ENDBRANCH   1  18
TORSDOF 17
ENDMDL
MODEL 6
REMARK VINA RESULT:      -5.0      0.811      6.439
REMARK  Name = 
REMARK  17 active torsions:
REMARK  status: ('A' for Active; 'I' for Inactive)
REMARK    1  A    between atoms: O_1  and  C_2
REMARK    2  A    between atoms: C_2  and  C_4
REMARK    3  A    between atoms: C_2  and  C_10
REMARK    4  A    between atoms: C_4  and  O_5
REMARK    5  A    between atoms: O_5  and  P_6
REMARK    6  A    between atoms: P_6  and  O_7
REMARK    7  A    between atoms: P_6  and  O_8
REMARK    8  A    between atoms: C_10  and  O_12
REMARK    9  A    between atoms: C_10  and  C_13
REMARK   10  A    between atoms: C_13  and  O_15
REMARK   11  A    between atoms: C_13  and  C_16
REMARK   12  A    between atoms: C_16  and  O_18
REMARK   13  A    between atoms: C_16  and  C_19
REMARK   14  A    between atoms: C_19  and  O_20
REMARK   15  A    between atoms: O_20  and  P_21
REMARK   16  A    between atoms: P_21  and  O_22
REMARK   17  A    between atoms: P_21  and  O_23
REMARK                            x       y       z     vdW  Elec       q    Type
REMARK                         _______ _______ _______ _____ _____    ______ ____
ROOT
ATOM      1  C   UNL     1       9.321  -2.038  24.124  0.00  0.00    +0.176 C 
ENDROOT
BRANCH   1   2
ATOM      2  O   UNL     1       9.820  -3.388  24.194  0.00  0.00    -0.386 OA
ATOM      3  H   UNL     1       9.254  -3.924  24.774  0.00  0.00    +0.210 HD
ENDBRANCH   1   2
BRANCH   1   4
ATOM      4  C   UNL     1       8.426  -1.901  22.873  0.00  0.00    +0.176 C 
BRANCH   4   5
ATOM      5  O   UNL     1       7.939  -3.185  22.452  0.00  0.00    -0.386 OA
ATOM      6  H   UNL     1       7.364  -3.021  21.684  0.00  0.00    +0.210 HD
ENDBRANCH   4   5
BRANCH   4   7
ATOM      7  C   UNL     1       9.208  -1.244  21.713  0.00  0.00    +0.172 C 
BRANCH   7   8
ATOM      8  O   UNL     1      10.605  -1.569  21.845  0.00  0.00    -0.387 OA
ATOM      9  H   UNL     1      11.111  -0.932  21.308  0.00  0.00    +0.210 HD
ENDBRANCH   7   8
BRANCH   7  10
ATOM     10  C   UNL     1       9.025   0.276  21.686  0.00  0.00    +0.206 C 
BRANCH  10  11
ATOM     11  O   UNL     1      10.243   0.877  22.100  0.00  0.00    -0.284 OA
BRANCH  11  12
ATOM     12  P   UNL     1      10.227   1.768  23.417  0.00  0.00    +0.472 P 
ATOM     13  O   UNL     1      10.638   3.187  23.280  0.00  0.00    -0.228 OA
BRANCH  12  14
ATOM     14  O   UNL     1       8.748   1.541  23.975  0.00  0.00    -0.303 OA
ATOM     15  H   UNL     1       8.302   0.826  23.484  0.00  0.00    +0.222 HD
ENDBRANCH  12  14
BRANCH  12  16
ATOM     16  O   UNL     1      11.128   0.932  24.438  0.00  0.00    -0.303 OA
ATOM     17  H   UNL     1      11.863   1.482  24.765  0.00  0.00    +0.222 HD
ENDBRANCH  12  16
ENDBRANCH  11  12
ENDBRANCH  10  11
ENDBRANCH   7  10
ENDBRANCH   4   7
ENDBRANCH   1   4
BRANCH   1  18
ATOM     18  C   UNL     1       8.611  -1.669  25.451  0.00  0.00    +0.172 C 
BRANCH  18  19
ATOM     19  O   UNL     1       9.268  -0.576  26.101  0.00  0.00    -0.387 OA
ATOM     20  H   UNL     1       9.268   0.192  25.503  0.00  0.00    +0.210 HD
ENDBRANCH  18  19
BRANCH  18  21
ATOM     21  C   UNL     1       8.595  -2.909  26.361  0.00  0.00    +0.206 C 
BRANCH  21  22
ATOM     22  O   UNL     1       7.377  -3.627  26.310  0.00  0.00    -0.284 OA
BRANCH  22  23
ATOM     23  P   UNL     1       7.516  -5.187  25.967  0.00  0.00    +0.472 P 
ATOM     24  O   UNL     1       6.572  -6.117  26.645  0.00  0.00    -0.228 OA
BRANCH  23  25
ATOM     25  O   UNL     1       7.438  -5.257  24.376  0.00  0.00    -0.303 OA
ATOM     26  H   UNL     1       6.994  -6.075  24.084  0.00  0.00    +0.222 HD
ENDBRANCH  23  25
BRANCH  23  27
ATOM     27  O   UNL     1       9.050  -5.528  26.260  0.00  0.00    -0.303 OA
ATOM     28  H   UNL     1       9.543  -5.678  25.433  0.00  0.00    +0.222 HD
ENDBRANCH  23  27
ENDBRANCH  22  23
ENDBRANCH  21  22
ENDBRANCH  18  21
ENDBRANCH   1  18
TORSDOF 17
ENDMDL
MODEL 7
REMARK VINA RESULT:      -5.0      2.275      3.747
REMARK  Name = 
REMARK  17 active torsions:
REMARK  status: ('A' for Active; 'I' for Inactive)
REMARK    1  A    between atoms: O_1  and  C_2
REMARK    2  A    between atoms: C_2  and  C_4
REMARK    3  A    between atoms: C_2  and  C_10
REMARK    4  A    between atoms: C_4  and  O_5
REMARK    5  A    between atoms: O_5  and  P_6
REMARK    6  A    between atoms: P_6  and  O_7
REMARK    7  A    between atoms: P_6  and  O_8
REMARK    8  A    between atoms: C_10  and  O_12
REMARK    9  A    between atoms: C_10  and  C_13
REMARK   10  A    between atoms: C_13  and  O_15
REMARK   11  A    between atoms: C_13  and  C_16
REMARK   12  A    between atoms: C_16  and  O_18
REMARK   13  A    between atoms: C_16  and  C_19
REMARK   14  A    between atoms: C_19  and  O_20
REMARK   15  A    between atoms: O_20  and  P_21
REMARK   16  A    between atoms: P_21  and  O_22
REMARK   17  A    between atoms: P_21  and  O_23
REMARK                            x       y       z     vdW  Elec       q    Type
REMARK                         _______ _______ _______ _____ _____    ______ ____
ROOT
ATOM      1  C   UNL     1       8.537  -1.794  25.080  0.00  0.00    +0.176 C 
ENDROOT
BRANCH   1   2
ATOM      2  O   UNL     1       7.407  -1.252  24.368  0.00  0.00    -0.386 OA
ATOM      3  H   UNL     1       6.616  -1.274  24.931  0.00  0.00    +0.210 HD
ENDBRANCH   1   2
BRANCH   1   4
ATOM      4  C   UNL     1       9.229  -2.847  24.187  0.00  0.00    +0.176 C 
BRANCH   4   5
ATOM      5  O   UNL     1       8.939  -2.610  22.801  0.00  0.00    -0.386 OA
ATOM      6  H   UNL     1       9.311  -1.737  22.588  0.00  0.00    +0.210 HD
ENDBRANCH   4   5
BRANCH   4   7
ATOM      7  C   UNL     1       8.771  -4.273  24.570  0.00  0.00    +0.172 C 
BRANCH   7   8
ATOM      8  O   UNL     1       9.931  -5.114  24.719  0.00  0.00    -0.387 OA
ATOM      9  H   UNL     1      10.704  -4.535  24.847  0.00  0.00    +0.210 HD
ENDBRANCH   7   8
BRANCH   7  10
ATOM     10  C   UNL     1       7.821  -4.870  23.528  0.00  0.00    +0.206 C 
BRANCH  10  11
ATOM     11  O   UNL     1       6.536  -4.297  23.719  0.00  0.00    -0.284 OA
BRANCH  11  12
ATOM     12  P   UNL     1       5.674  -3.952  22.427  0.00  0.00    +0.472 P 
ATOM     13  O   UNL     1       6.033  -4.649  21.168  0.00  0.00    -0.228 OA
BRANCH  12  14
ATOM     14  O   UNL     1       4.177  -4.191  22.932  0.00  0.00    -0.303 OA
ATOM     15  H   UNL     1       3.579  -3.518  22.558  0.00  0.00    +0.222 HD
ENDBRANCH  12  14
BRANCH  12  16
ATOM     16  O   UNL     1       5.771  -2.360  22.334  0.00  0.00    -0.303 OA
ATOM     17  H   UNL     1       6.139  -2.096  21.471  0.00  0.00    +0.222 HD
ENDBRANCH  12  16
ENDBRANCH  11  12
ENDBRANCH  10  11
ENDBRANCH   7  10
ENDBRANCH   4   7
ENDBRANCH   1   4
BRANCH   1  18
ATOM     18  C   UNL     1       9.470  -0.647  25.542  0.00  0.00    +0.172 C 
BRANCH  18  19
ATOM     19  O   UNL     1       9.170  -0.246  26.883  0.00  0.00    -0.387 OA
ATOM     20  H   UNL     1       9.996  -0.229  27.398  0.00  0.00    +0.210 HD
ENDBRANCH  18  19
BRANCH  18  21
ATOM     21  C   UNL     1       9.309   0.537  24.574  0.00  0.00    +0.206 C 
BRANCH  21  22
ATOM     22  O   UNL     1      10.078   0.406  23.394  0.00  0.00    -0.284 OA
BRANCH  22  23
ATOM     23  P   UNL     1       9.308   0.758  22.032  0.00  0.00    +0.472 P 
ATOM     24  O   UNL     1       9.311  -0.278  20.965  0.00  0.00    -0.228 OA
BRANCH  23  25
ATOM     25  O   UNL     1       7.843   1.182  22.498  0.00  0.00    -0.303 OA
ATOM     26  H   UNL     1       7.185   0.517  22.223  0.00  0.00    +0.222 HD
ENDBRANCH  23  25
BRANCH  23  27
ATOM     27  O   UNL     1       9.943   2.147  21.558  0.00  0.00    -0.303 OA
ATOM     28  H   UNL     1      10.792   2.319  22.005  0.00  0.00    +0.222 HD
ENDBRANCH  23  27
ENDBRANCH  22  23
ENDBRANCH  21  22
ENDBRANCH  18  21
ENDBRANCH   1  18
TORSDOF 17
ENDMDL
MODEL 8
REMARK VINA RESULT:      -4.9      1.133      1.925
REMARK  Name = 
REMARK  17 active torsions:
REMARK  status: ('A' for Active; 'I' for Inactive)
REMARK    1  A    between atoms: O_1  and  C_2
REMARK    2  A    between atoms: C_2  and  C_4
REMARK    3  A    between atoms: C_2  and  C_10
REMARK    4  A    between atoms: C_4  and  O_5
REMARK    5  A    between atoms: O_5  and  P_6
REMARK    6  A    between atoms: P_6  and  O_7
REMARK    7  A    between atoms: P_6  and  O_8
REMARK    8  A    between atoms: C_10  and  O_12
REMARK    9  A    between atoms: C_10  and  C_13
REMARK   10  A    between atoms: C_13  and  O_15
REMARK   11  A    between atoms: C_13  and  C_16
REMARK   12  A    between atoms: C_16  and  O_18
REMARK   13  A    between atoms: C_16  and  C_19
REMARK   14  A    between atoms: C_19  and  O_20
REMARK   15  A    between atoms: O_20  and  P_21
REMARK   16  A    between atoms: P_21  and  O_22
REMARK   17  A    between atoms: P_21  and  O_23
REMARK                            x       y       z     vdW  Elec       q    Type
REMARK                         _______ _______ _______ _____ _____    ______ ____
ROOT
ATOM      1  C   UNL     1       8.762  -1.388  21.746  0.00  0.00    +0.176 C 
ENDROOT
BRANCH   1   2
ATOM      2  O   UNL     1      10.187  -1.435  21.534  0.00  0.00    -0.386 OA
ATOM      3  H   UNL     1      10.572  -2.185  22.018  0.00  0.00    +0.210 HD
ENDBRANCH   1   2
BRANCH   1   4
ATOM      4  C   UNL     1       8.344  -2.609  22.595  0.00  0.00    +0.176 C 
BRANCH   4   5
ATOM      5  O   UNL     1       6.913  -2.722  22.655  0.00  0.00    -0.386 OA
ATOM      6  H   UNL     1       6.563  -1.817  22.577  0.00  0.00    +0.210 HD
ENDBRANCH   4   5
BRANCH   4   7
ATOM      7  C   UNL     1       8.910  -2.496  24.028  0.00  0.00    +0.172 C 
BRANCH   7   8
ATOM      8  O   UNL     1      10.097  -3.306  24.129  0.00  0.00    -0.387 OA
ATOM      9  H   UNL     1      10.046  -3.805  24.964  0.00  0.00    +0.210 HD
ENDBRANCH   7   8
BRANCH   7  10
ATOM     10  C   UNL     1       7.889  -2.930  25.084  0.00  0.00    +0.206 C 
BRANCH  10  11
ATOM     11  O   UNL     1       7.751  -4.342  25.014  0.00  0.00    -0.284 OA
BRANCH  11  12
ATOM     12  P   UNL     1       8.368  -5.212  26.194  0.00  0.00    +0.472 P 
ATOM     13  O   UNL     1       7.426  -6.031  26.995  0.00  0.00    -0.228 OA
BRANCH  12  14
ATOM     14  O   UNL     1       9.523  -6.033  25.457  0.00  0.00    -0.303 OA
ATOM     15  H   UNL     1      10.178  -6.357  26.102  0.00  0.00    +0.222 HD
ENDBRANCH  12  14
BRANCH  12  16
ATOM     16  O   UNL     1       9.183  -4.140  27.054  0.00  0.00    -0.303 OA
ATOM     17  H   UNL     1       9.715  -4.590  27.736  0.00  0.00    +0.222 HD
ENDBRANCH  12  16
ENDBRANCH  11  12
ENDBRANCH  10  11
ENDBRANCH   7  10
ENDBRANCH   4   7
ENDBRANCH   1   4
BRANCH   1  18
ATOM     18  C   UNL     1       8.365  -0.024  22.364  0.00  0.00    +0.172 C 
BRANCH  18  19
ATOM     19  O   UNL     1       6.945   0.087  22.500  0.00  0.00    -0.387 OA
ATOM     20  H   UNL     1       6.521  -0.576  21.928  0.00  0.00    +0.210 HD
ENDBRANCH  18  19
BRANCH  18  21
ATOM     21  C   UNL     1       8.912   1.099  21.467  0.00  0.00    +0.206 C 
BRANCH  21  22
ATOM     22  O   UNL     1      10.158   1.610  21.904  0.00  0.00    -0.284 OA
BRANCH  22  23
ATOM     23  P   UNL     1      10.083   2.638  23.132  0.00  0.00    +0.472 P 
ATOM     24  O   UNL     1      10.085   2.058  24.503  0.00  0.00    -0.228 OA
BRANCH  23  25
ATOM     25  O   UNL     1      11.282   3.658  22.876  0.00  0.00    -0.303 OA
ATOM     26  H   UNL     1      11.251   4.010  21.967  0.00  0.00    +0.222 HD
ENDBRANCH  23  25
BRANCH  23  27
ATOM     27  O   UNL     1       8.790   3.531  22.832  0.00  0.00    -0.303 OA
ATOM     28  H   UNL     1       8.045   2.982  22.527  0.00  0.00    +0.222 HD
ENDBRANCH  23  27
ENDBRANCH  22  23
ENDBRANCH  21  22
ENDBRANCH  18  21
ENDBRANCH   1  18
TORSDOF 17
ENDMDL
MODEL 9
REMARK VINA RESULT:      -4.9      2.321      5.981
REMARK  Name = 
REMARK  17 active torsions:
REMARK  status: ('A' for Active; 'I' for Inactive)
REMARK    1  A    between atoms: O_1  and  C_2
REMARK    2  A    between atoms: C_2  and  C_4
REMARK    3  A    between atoms: C_2  and  C_10
REMARK    4  A    between atoms: C_4  and  O_5
REMARK    5  A    between atoms: O_5  and  P_6
REMARK    6  A    between atoms: P_6  and  O_7
REMARK    7  A    between atoms: P_6  and  O_8
REMARK    8  A    between atoms: C_10  and  O_12
REMARK    9  A    between atoms: C_10  and  C_13
REMARK   10  A    between atoms: C_13  and  O_15
REMARK   11  A    between atoms: C_13  and  C_16
REMARK   12  A    between atoms: C_16  and  O_18
REMARK   13  A    between atoms: C_16  and  C_19
REMARK   14  A    between atoms: C_19  and  O_20
REMARK   15  A    between atoms: O_20  and  P_21
REMARK   16  A    between atoms: P_21  and  O_22
REMARK   17  A    between atoms: P_21  and  O_23
REMARK                            x       y       z     vdW  Elec       q    Type
REMARK                         _______ _______ _______ _____ _____    ______ ____
ROOT
ATOM      1  C   UNL     1       9.218  -2.879  24.252  0.00  0.00    +0.176 C 
ENDROOT
BRANCH   1   2
ATOM      2  O   UNL     1       8.965  -2.731  22.842  0.00  0.00    -0.386 OA
ATOM      3  H   UNL     1       9.664  -2.198  22.431  0.00  0.00    +0.210 HD
ENDBRANCH   1   2
BRANCH   1   4
ATOM      4  C   UNL     1       8.438  -1.788  25.016  0.00  0.00    +0.176 C 
BRANCH   4   5
ATOM      5  O   UNL     1       7.383  -1.251  24.202  0.00  0.00    -0.386 OA
ATOM      6  H   UNL     1       7.162  -0.382  24.578  0.00  0.00    +0.210 HD
ENDBRANCH   4   5
BRANCH   4   7
ATOM      7  C   UNL     1       9.382  -0.644  25.450  0.00  0.00    +0.172 C 
BRANCH   7   8
ATOM      8  O   UNL     1       9.220  -0.412  26.863  0.00  0.00    -0.387 OA
ATOM      9  H   UNL     1       9.189   0.552  27.004  0.00  0.00    +0.210 HD
ENDBRANCH   7   8
BRANCH   7  10
ATOM     10  C   UNL     1       9.115   0.648  24.673  0.00  0.00    +0.206 C 
BRANCH  10  11
ATOM     11  O   UNL     1       9.944   0.652  23.521  0.00  0.00    -0.284 OA
BRANCH  11  12
ATOM     12  P   UNL     1       9.250   0.846  22.102  0.00  0.00    +0.472 P 
ATOM     13  O   UNL     1       7.773   0.981  22.084  0.00  0.00    -0.228 OA
BRANCH  12  14
ATOM     14  O   UNL     1      10.052   2.082  21.486  0.00  0.00    -0.303 OA
ATOM     15  H   UNL     1       9.578   2.917  21.656  0.00  0.00    +0.222 HD
ENDBRANCH  12  14
BRANCH  12  16
ATOM     16  O   UNL     1       9.795  -0.394  21.254  0.00  0.00    -0.303 OA
ATOM     17  H   UNL     1       9.210  -1.164  21.372  0.00  0.00    +0.222 HD
ENDBRANCH  12  16
ENDBRANCH  11  12
ENDBRANCH  10  11
ENDBRANCH   7  10
ENDBRANCH   4   7
ENDBRANCH   1   4
BRANCH   1  18
ATOM     18  C   UNL     1       8.884  -4.324  24.700  0.00  0.00    +0.172 C 
BRANCH  18  19
ATOM     19  O   UNL     1      10.073  -5.108  24.845  0.00  0.00    -0.387 OA
ATOM     20  H   UNL     1       9.978  -5.681  25.627  0.00  0.00    +0.210 HD
ENDBRANCH  18  19
BRANCH  18  21
ATOM     21  C   UNL     1       7.944  -4.956  23.659  0.00  0.00    +0.206 C 
BRANCH  21  22
ATOM     22  O   UNL     1       6.708  -4.278  23.535  0.00  0.00    -0.284 OA
BRANCH  22  23
ATOM     23  P   UNL     1       5.827  -4.690  22.260  0.00  0.00    +0.472 P 
ATOM     24  O   UNL     1       4.581  -5.463  22.518  0.00  0.00    -0.228 OA
BRANCH  23  25
ATOM     25  O   UNL     1       5.571  -3.318  21.489  0.00  0.00    -0.303 OA
ATOM     26  H   UNL     1       4.723  -3.341  21.009  0.00  0.00    +0.222 HD
ENDBRANCH  23  25
BRANCH  23  27
ATOM     27  O   UNL     1       6.848  -5.453  21.294  0.00  0.00    -0.303 OA
ATOM     28  H   UNL     1       7.536  -5.918  21.804  0.00  0.00    +0.222 HD
ENDBRANCH  23  27
ENDBRANCH  22  23
ENDBRANCH  21  22
ENDBRANCH  18  21
ENDBRANCH   1  18
TORSDOF 17
ENDMDL
