MODEL 1
REMARK VINA RESULT:      -2.8      0.000      0.000
REMARK  Name = 
REMARK  5 active torsions:
REMARK  status: ('A' for Active; 'I' for Inactive)
REMARK    1  A    between atoms: O_1  and  C_2
REMARK    2  A    between atoms: C_2  and  C_3
REMARK    3  A    between atoms: C_3  and  S_4
REMARK    4  A    between atoms: C_3  and  C_5
REMARK    5  A    between atoms: C_5  and  S_6
REMARK                            x       y       z     vdW  Elec       q    Type
REMARK                         _______ _______ _______ _____ _____    ______ ____
ROOT
ATOM      1  C   UNL     1      10.304  -0.002  22.630  0.00  0.00    +0.078 C 
ENDROOT
BRANCH   1   2
ATOM      2  S   UNL     1      10.238   0.452  24.411  0.00  0.00    -0.172 S 
ATOM      3  H   UNL     1       9.759  -0.729  24.832  0.00  0.00    +0.102 HD
ENDBRANCH   1   2
BRANCH   1   4
ATOM      4  C   UNL     1       9.474   1.014  21.829  0.00  0.00    +0.170 C 
BRANCH   4   5
ATOM      5  O   UNL     1      10.209   2.213  21.591  0.00  0.00    -0.394 OA
ATOM      6  H   UNL     1      10.021   2.816  22.329  0.00  0.00    +0.209 HD
ENDBRANCH   4   5
ENDBRANCH   1   4
BRANCH   1   7
ATOM      7  C   UNL     1       9.809  -1.434  22.373  0.00  0.00    +0.081 C 
BRANCH   7   8
ATOM      8  S   UNL     1       9.666  -2.468  23.872  0.00  0.00    -0.177 S 
ATOM      9  H   UNL     1       8.371  -2.785  23.732  0.00  0.00    +0.102 HD
ENDBRANCH   7   8
ENDBRANCH   1   7
TORSDOF 5
ENDMDL
MODEL 2
REMARK VINA RESULT:      -2.7      1.432      1.470
REMARK  Name = 
REMARK  5 active torsions:
REMARK  status: ('A' for Active; 'I' for Inactive)
REMARK    1  A    between atoms: O_1  and  C_2
REMARK    2  A    between atoms: C_2  and  C_3
REMARK    3  A    between atoms: C_3  and  S_4
REMARK    4  A    between atoms: C_3  and  C_5
REMARK    5  A    between atoms: C_5  and  S_6
REMARK                            x       y       z     vdW  Elec       q    Type
REMARK                         _______ _______ _______ _____ _____    ______ ____
ROOT
ATOM      1  C   UNL     1      10.257   1.039  23.638  0.00  0.00    +0.078 C 
ENDROOT
BRANCH   1   2
ATOM      2  S   UNL     1       9.113   2.208  24.478  0.00  0.00    -0.172 S 
ATOM      3  H   UNL     1       8.457   2.575  23.366  0.00  0.00    +0.102 HD
ENDBRANCH   1   2
BRANCH   1   4
ATOM      4  C   UNL     1       9.944   1.034  22.133  0.00  0.00    +0.170 C 
BRANCH   4   5
ATOM      5  O   UNL     1      10.217   2.302  21.541  0.00  0.00    -0.394 OA
ATOM      6  H   UNL     1       9.550   2.924  21.876  0.00  0.00    +0.209 HD
ENDBRANCH   4   5
ENDBRANCH   1   4
BRANCH   1   7
ATOM      7  C   UNL     1      10.171  -0.382  24.217  0.00  0.00    +0.081 C 
BRANCH   7   8
ATOM      8  S   UNL     1      10.025  -1.703  22.964  0.00  0.00    -0.177 S 
ATOM      9  H   UNL     1      10.401  -2.721  23.752  0.00  0.00    +0.102 HD
ENDBRANCH   7   8
ENDBRANCH   1   7
TORSDOF 5
ENDMDL
MODEL 3
REMARK VINA RESULT:      -2.7      2.217      3.003
REMARK  Name = 
REMARK  5 active torsions:
REMARK  status: ('A' for Active; 'I' for Inactive)
REMARK    1  A    between atoms: O_1  and  C_2
REMARK    2  A    between atoms: C_2  and  C_3
REMARK    3  A    between atoms: C_3  and  S_4
REMARK    4  A    between atoms: C_3  and  C_5
REMARK    5  A    between atoms: C_5  and  S_6
REMARK                            x       y       z     vdW  Elec       q    Type
REMARK                         _______ _______ _______ _____ _____    ______ ____
ROOT
ATOM      1  C   UNL     1       9.726   0.016  23.195  0.00  0.00    +0.078 C 
ENDROOT
BRANCH   1   2
ATOM      2  S   UNL     1      10.800   0.669  24.537  0.00  0.00    -0.172 S 
ATOM      3  H   UNL     1       9.956   0.374  25.538  0.00  0.00    +0.102 HD
ENDBRANCH   1   2
BRANCH   1   4
ATOM      4  C   UNL     1      10.212  -1.391  22.810  0.00  0.00    +0.170 C 
BRANCH   4   5
ATOM      5  O   UNL     1      10.176  -1.585  21.398  0.00  0.00    -0.394 OA
ATOM      6  H   UNL     1       9.882  -0.748  21.001  0.00  0.00    +0.209 HD
ENDBRANCH   4   5
ENDBRANCH   1   4
BRANCH   1   7
ATOM      7  C   UNL     1       9.702   0.938  21.965  0.00  0.00    +0.081 C 
BRANCH   7   8
ATOM      8  S   UNL     1       8.132   1.842  21.726  0.00  0.00    -0.177 S 
ATOM      9  H   UNL     1       8.093   1.756  20.389  0.00  0.00    +0.102 HD
ENDBRANCH   7   8
ENDBRANCH   1   7
TORSDOF 5
ENDMDL
MODEL 4
REMARK VINA RESULT:      -2.6      1.520      2.268
REMARK  Name = 
REMARK  5 active torsions:
REMARK  status: ('A' for Active; 'I' for Inactive)
REMARK    1  A    between atoms: O_1  and  C_2
REMARK    2  A    between atoms: C_2  and  C_3
REMARK    3  A    between atoms: C_3  and  S_4
REMARK    4  A    between atoms: C_3  and  C_5
REMARK    5  A    between atoms: C_5  and  S_6
REMARK                            x       y       z     vdW  Elec       q    Type
REMARK                         _______ _______ _______ _____ _____    ______ ____
ROOT
ATOM      1  C   UNL     1       8.659   0.346  22.651  0.00  0.00    +0.078 C 
ENDROOT
BRANCH   1   2
ATOM      2  S   UNL     1       9.834  -0.983  22.167  0.00  0.00    -0.172 S 
ATOM      3  H   UNL     1      10.813  -0.607  23.003  0.00  0.00    +0.102 HD
ENDBRANCH   1   2
BRANCH   1   4
ATOM      4  C   UNL     1       8.632   1.411  21.543  0.00  0.00    +0.170 C 
BRANCH   4   5
ATOM      5  O   UNL     1       9.871   2.113  21.466  0.00  0.00    -0.394 OA
ATOM      6  H   UNL     1       9.712   2.919  20.947  0.00  0.00    +0.209 HD
ENDBRANCH   4   5
ENDBRANCH   1   4
BRANCH   1   7
ATOM      7  C   UNL     1       9.018   0.979  24.005  0.00  0.00    +0.081 C 
BRANCH   7   8
ATOM      8  S   UNL     1      10.670   0.526  24.639  0.00  0.00    -0.177 S 
ATOM      9  H   UNL     1      11.284   0.434  23.451  0.00  0.00    +0.102 HD
ENDBRANCH   7   8
ENDBRANCH   1   7
TORSDOF 5
ENDMDL
MODEL 5
REMARK VINA RESULT:      -2.6      4.776      5.776
REMARK  Name = 
REMARK  5 active torsions:
REMARK  status: ('A' for Active; 'I' for Inactive)
REMARK    1  A    between atoms: O_1  and  C_2
REMARK    2  A    between atoms: C_2  and  C_3
REMARK    3  A    between atoms: C_3  and  S_4
REMARK    4  A    between atoms: C_3  and  C_5
REMARK    5  A    between atoms: C_5  and  S_6
REMARK                            x       y       z     vdW  Elec       q    Type
REMARK                         _______ _______ _______ _____ _____    ______ ____
ROOT
ATOM      1  C   UNL     1       8.313  -4.673  24.336  0.00  0.00    +0.078 C 
ENDROOT
BRANCH   1   2
ATOM      2  S   UNL     1       6.691  -5.064  25.109  0.00  0.00    -0.172 S 
ATOM      3  H   UNL     1       6.110  -5.507  23.982  0.00  0.00    +0.102 HD
ENDBRANCH   1   2
BRANCH   1   4
ATOM      4  C   UNL     1       9.379  -4.582  25.440  0.00  0.00    +0.170 C 
BRANCH   4   5
ATOM      5  O   UNL     1      10.308  -5.660  25.354  0.00  0.00    -0.394 OA
ATOM      6  H   UNL     1      10.628  -5.835  26.255  0.00  0.00    +0.209 HD
ENDBRANCH   4   5
ENDBRANCH   1   4
BRANCH   1   7
ATOM      7  C   UNL     1       8.270  -3.376  23.512  0.00  0.00    +0.081 C 
BRANCH   7   8
ATOM      8  S   UNL     1       9.729  -2.296  23.724  0.00  0.00    -0.177 S 
ATOM      9  H   UNL     1      10.540  -3.218  24.261  0.00  0.00    +0.102 HD
ENDBRANCH   7   8
ENDBRANCH   1   7
TORSDOF 5
ENDMDL
MODEL 6
REMARK VINA RESULT:      -2.5      1.845      2.917
REMARK  Name = 
REMARK  5 active torsions:
REMARK  status: ('A' for Active; 'I' for Inactive)
REMARK    1  A    between atoms: O_1  and  C_2
REMARK    2  A    between atoms: C_2  and  C_3
REMARK    3  A    between atoms: C_3  and  S_4
REMARK    4  A    between atoms: C_3  and  C_5
REMARK    5  A    between atoms: C_5  and  S_6
REMARK                            x       y       z     vdW  Elec       q    Type
REMARK                         _______ _______ _______ _____ _____    ______ ____
ROOT
ATOM      1  C   UNL     1       9.318   0.700  23.370  0.00  0.00    +0.078 C 
ENDROOT
BRANCH   1   2
ATOM      2  S   UNL     1       9.829  -0.925  24.063  0.00  0.00    -0.172 S 
ATOM      3  H   UNL     1      11.041  -0.521  24.472  0.00  0.00    +0.102 HD
ENDBRANCH   1   2
BRANCH   1   4
ATOM      4  C   UNL     1       9.835   0.808  21.927  0.00  0.00    +0.170 C 
BRANCH   4   5
ATOM      5  O   UNL     1      10.039   2.168  21.549  0.00  0.00    -0.394 OA
ATOM      6  H   UNL     1       9.950   2.213  20.582  0.00  0.00    +0.209 HD
ENDBRANCH   4   5
ENDBRANCH   1   4
BRANCH   1   7
ATOM      7  C   UNL     1       9.820   1.881  24.218  0.00  0.00    +0.081 C 
BRANCH   7   8
ATOM      8  S   UNL     1       8.507   3.016  24.788  0.00  0.00    -0.177 S 
ATOM      9  H   UNL     1       9.311   4.014  25.182  0.00  0.00    +0.102 HD
ENDBRANCH   7   8
ENDBRANCH   1   7
TORSDOF 5
ENDMDL
MODEL 7
REMARK VINA RESULT:      -2.5      1.778      1.906
REMARK  Name = 
REMARK  5 active torsions:
REMARK  status: ('A' for Active; 'I' for Inactive)
REMARK    1  A    between atoms: O_1  and  C_2
REMARK    2  A    between atoms: C_2  and  C_3
REMARK    3  A    between atoms: C_3  and  S_4
REMARK    4  A    between atoms: C_3  and  C_5
REMARK    5  A    between atoms: C_5  and  S_6
REMARK                            x       y       z     vdW  Elec       q    Type
REMARK                         _______ _______ _______ _____ _____    ______ ____
ROOT
ATOM      1  C   UNL     1       9.460   1.116  23.639  0.00  0.00    +0.078 C 
ENDROOT
BRANCH   1   2
ATOM      2  S   UNL     1       7.928   0.693  22.716  0.00  0.00    -0.172 S 
ATOM      3  H   UNL     1       8.223   1.421  21.628  0.00  0.00    +0.102 HD
ENDBRANCH   1   2
BRANCH   1   4
ATOM      4  C   UNL     1      10.151   2.298  22.940  0.00  0.00    +0.170 C 
BRANCH   4   5
ATOM      5  O   UNL     1      10.077   2.176  21.521  0.00  0.00    -0.394 OA
ATOM      6  H   UNL     1      10.920   2.499  21.161  0.00  0.00    +0.209 HD
ENDBRANCH   4   5
ENDBRANCH   1   4
BRANCH   1   7
ATOM      7  C   UNL     1      10.419  -0.080  23.761  0.00  0.00    +0.081 C 
BRANCH   7   8
ATOM      8  S   UNL     1      10.119  -1.417  22.553  0.00  0.00    -0.177 S 
ATOM      9  H   UNL     1       9.123  -0.817  21.886  0.00  0.00    +0.102 HD
ENDBRANCH   7   8
ENDBRANCH   1   7
TORSDOF 5
ENDMDL
MODEL 8
REMARK VINA RESULT:      -2.5      1.874      2.983
REMARK  Name = 
REMARK  5 active torsions:
REMARK  status: ('A' for Active; 'I' for Inactive)
REMARK    1  A    between atoms: O_1  and  C_2
REMARK    2  A    between atoms: C_2  and  C_3
REMARK    3  A    between atoms: C_3  and  S_4
REMARK    4  A    between atoms: C_3  and  C_5
REMARK    5  A    between atoms: C_5  and  S_6
REMARK                            x       y       z     vdW  Elec       q    Type
REMARK                         _______ _______ _______ _____ _____    ______ ____
ROOT
ATOM      1  C   UNL     1       9.573  -0.110  23.262  0.00  0.00    +0.078 C 
ENDROOT
BRANCH   1   2
ATOM      2  S   UNL     1       9.920  -1.897  23.520  0.00  0.00    -0.172 S 
ATOM      3  H   UNL     1       8.661  -2.309  23.307  0.00  0.00    +0.102 HD
ENDBRANCH   1   2
BRANCH   1   4
ATOM      4  C   UNL     1       9.653   0.199  21.759  0.00  0.00    +0.170 C 
BRANCH   4   5
ATOM      5  O   UNL     1       9.620  -0.995  20.981  0.00  0.00    -0.394 OA
ATOM      6  H   UNL     1      10.248  -0.878  20.248  0.00  0.00    +0.209 HD
ENDBRANCH   4   5
ENDBRANCH   1   4
BRANCH   1   7
ATOM      7  C   UNL     1      10.532   0.793  24.055  0.00  0.00    +0.081 C 
BRANCH   7   8
ATOM      8  S   UNL     1      10.486   2.555  23.573  0.00  0.00    -0.177 S 
ATOM      9  H   UNL     1      11.365   2.473  22.564  0.00  0.00    +0.102 HD
ENDBRANCH   7   8
ENDBRANCH   1   7
TORSDOF 5
ENDMDL
MODEL 9
REMARK VINA RESULT:      -2.5      5.343      5.955
REMARK  Name = 
REMARK  5 active torsions:
REMARK  status: ('A' for Active; 'I' for Inactive)
REMARK    1  A    between atoms: O_1  and  C_2
REMARK    2  A    between atoms: C_2  and  C_3
REMARK    3  A    between atoms: C_3  and  S_4
REMARK    4  A    between atoms: C_3  and  C_5
REMARK    5  A    between atoms: C_5  and  S_6
REMARK                            x       y       z     vdW  Elec       q    Type
REMARK                         _______ _______ _______ _____ _____    ______ ____
ROOT
ATOM      1  C   UNL     1       8.219  -4.389  24.646  0.00  0.00    +0.078 C 
ENDROOT
BRANCH   1   2
ATOM      2  S   UNL     1       9.368  -3.019  24.218  0.00  0.00    -0.172 S 
ATOM      3  H   UNL     1      10.076  -3.716  23.315  0.00  0.00    +0.102 HD
ENDBRANCH   1   2
BRANCH   1   4
ATOM      4  C   UNL     1       8.903  -5.308  25.672  0.00  0.00    +0.170 C 
BRANCH   4   5
ATOM      5  O   UNL     1      10.233  -5.633  25.273  0.00  0.00    -0.394 OA
ATOM      6  H   UNL     1      10.822  -4.972  25.675  0.00  0.00    +0.209 HD
ENDBRANCH   4   5
ENDBRANCH   1   4
BRANCH   1   7
ATOM      7  C   UNL     1       7.776  -5.189  23.410  0.00  0.00    +0.081 C 
BRANCH   7   8
ATOM      8  S   UNL     1       5.969  -5.421  23.265  0.00  0.00    -0.177 S 
ATOM      9  H   UNL     1       5.611  -4.482  24.153  0.00  0.00    +0.102 HD
ENDBRANCH   7   8
ENDBRANCH   1   7
TORSDOF 5
ENDMDL
