MODEL 1
REMARK VINA RESULT:      -8.0      0.000      0.000
REMARK  Name = 
REMARK  5 active torsions:
REMARK  status: ('A' for Active; 'I' for Inactive)
REMARK    1  A    between atoms: C_2  and  C_5
REMARK    2  A    between atoms: C_10  and  S_11
REMARK    3  A    between atoms: S_11  and  N_14
REMARK    4  A    between atoms: N_14  and  N_15
REMARK    5  A    between atoms: C_16  and  C_18
REMARK                            x       y       z     vdW  Elec       q    Type
REMARK                         _______ _______ _______ _____ _____    ______ ____
ROOT
ATOM      1  N   UNL     1      10.024  -2.863  23.707  0.00  0.00    -0.108 NA
ATOM      2  H   UNL     1      10.554  -3.262  22.922  0.00  0.00    +0.172 HD
ENDROOT
BRANCH   1   3
ATOM      3  N   UNL     1       9.817  -1.419  23.754  0.00  0.00    -0.225 N 
ATOM      4  H   UNL     1       9.914  -0.946  24.653  0.00  0.00    +0.171 HD
ATOM      5  C   UNL     1       9.514  -0.707  22.612  0.00  0.00    +0.294 C 
ATOM      6  O   UNL     1       9.427  -1.249  21.511  0.00  0.00    -0.265 OA
BRANCH   5   7
ATOM      7  C   UNL     1       9.320   0.715  22.830  0.00  0.00    +0.192 A 
ATOM      8  O   UNL     1       8.213   1.340  22.306  0.00  0.00    -0.450 OA
ATOM      9  C   UNL     1       8.292   2.659  22.647  0.00  0.00    +0.136 A 
ATOM     10  C   UNL     1       9.439   2.897  23.397  0.00  0.00    +0.022 A 
ATOM     11  C   UNL     1       9.694   4.206  23.847  0.00  0.00    +0.031 A 
ATOM     12  C   UNL     1       8.780   5.215  23.516  0.00  0.00    +0.042 A 
ATOM     13  C   UNL     1       7.638   4.944  22.758  0.00  0.00    +0.023 A 
ATOM     14 CL   UNL     1       9.074   6.825  24.056  0.00  0.00    -0.084 Cl
ATOM     15  C   UNL     1       7.368   3.646  22.304  0.00  0.00    +0.048 A 
ATOM     16  C   UNL     1      10.093   1.641  23.508  0.00  0.00    +0.063 A 
ENDBRANCH   5   7
ENDBRANCH   1   3
BRANCH   1  17
ATOM     17  S   UNL     1       9.169  -3.805  24.806  0.00  0.00    +0.074 S 
ATOM     18  O   UNL     1      10.005  -4.959  25.072  0.00  0.00    -0.152 OA
ATOM     19  O   UNL     1       8.750  -2.957  25.896  0.00  0.00    -0.152 OA
BRANCH  17  21
ATOM     20  C   UNL     1       6.714  -5.162  24.605  0.00  0.00    +0.081 A 
ATOM     21  C   UNL     1       7.696  -4.375  23.970  0.00  0.00    +0.118 A 
ATOM     22  C   UNL     1       7.622  -4.141  22.584  0.00  0.00    +0.029 A 
ATOM     23  C   UNL     1       6.592  -4.691  21.823  0.00  0.00    +0.002 A 
ATOM     24  C   UNL     1       5.627  -5.482  22.433  0.00  0.00    +0.001 A 
ATOM     25  C   UNL     1       5.683  -5.709  23.810  0.00  0.00    +0.014 A 
BRANCH  20  27
ATOM     26  F   UNL     1       5.788  -6.373  26.453  0.00  0.00    -0.166 F 
ATOM     27  C   UNL     1       6.696  -5.420  26.090  0.00  0.00    +0.419 C 
ATOM     28  F   UNL     1       7.876  -5.837  26.602  0.00  0.00    -0.166 F 
ATOM     29  F   UNL     1       6.336  -4.302  26.781  0.00  0.00    -0.166 F 
ENDBRANCH  20  27
ENDBRANCH  17  21
ENDBRANCH   1  17
TORSDOF 5
ENDMDL
MODEL 2
REMARK VINA RESULT:      -7.8      0.968      1.531
REMARK  Name = 
REMARK  5 active torsions:
REMARK  status: ('A' for Active; 'I' for Inactive)
REMARK    1  A    between atoms: C_2  and  C_5
REMARK    2  A    between atoms: C_10  and  S_11
REMARK    3  A    between atoms: S_11  and  N_14
REMARK    4  A    between atoms: N_14  and  N_15
REMARK    5  A    between atoms: C_16  and  C_18
REMARK                            x       y       z     vdW  Elec       q    Type
REMARK                         _______ _______ _______ _____ _____    ______ ____
ROOT
ATOM      1  N   UNL     1      10.011  -2.778  23.551  0.00  0.00    -0.108 NA
ATOM      2  H   UNL     1      10.353  -3.171  22.664  0.00  0.00    +0.172 HD
ENDROOT
BRANCH   1   3
ATOM      3  N   UNL     1      10.044  -1.331  23.737  0.00  0.00    -0.225 N 
ATOM      4  H   UNL     1      10.620  -0.953  24.490  0.00  0.00    +0.171 HD
ATOM      5  C   UNL     1       9.328  -0.491  22.908  0.00  0.00    +0.294 C 
ATOM      6  O   UNL     1       8.656  -0.919  21.972  0.00  0.00    -0.265 OA
BRANCH   5   7
ATOM      7  C   UNL     1       9.451   0.918  23.237  0.00  0.00    +0.192 A 
ATOM      8  O   UNL     1      10.612   1.589  22.938  0.00  0.00    -0.450 OA
ATOM      9  C   UNL     1      10.458   2.876  23.364  0.00  0.00    +0.136 A 
ATOM     10  C   UNL     1       9.202   3.050  23.933  0.00  0.00    +0.022 A 
ATOM     11  C   UNL     1       8.855   4.321  24.431  0.00  0.00    +0.031 A 
ATOM     12  C   UNL     1       9.795   5.355  24.335  0.00  0.00    +0.042 A 
ATOM     13  C   UNL     1      11.051   5.146  23.760  0.00  0.00    +0.023 A 
ATOM     14 CL   UNL     1       9.390   6.917  24.939  0.00  0.00    -0.084 Cl
ATOM     15  C   UNL     1      11.412   3.889  23.258  0.00  0.00    +0.048 A 
ATOM     16  C   UNL     1       8.562   1.785  23.847  0.00  0.00    +0.063 A 
ENDBRANCH   5   7
ENDBRANCH   1   3
BRANCH   1  17
ATOM     17  S   UNL     1       9.186  -3.689  24.697  0.00  0.00    +0.074 S 
ATOM     18  O   UNL     1      10.050  -4.813  25.005  0.00  0.00    -0.152 OA
ATOM     19  O   UNL     1       8.759  -2.804  25.754  0.00  0.00    -0.152 OA
BRANCH  17  21
ATOM     20  C   UNL     1       6.775  -5.129  24.571  0.00  0.00    +0.081 A 
ATOM     21  C   UNL     1       7.719  -4.326  23.901  0.00  0.00    +0.118 A 
ATOM     22  C   UNL     1       7.614  -4.127  22.512  0.00  0.00    +0.029 A 
ATOM     23  C   UNL     1       6.590  -4.728  21.782  0.00  0.00    +0.002 A 
ATOM     24  C   UNL     1       5.661  -5.534  22.426  0.00  0.00    +0.001 A 
ATOM     25  C   UNL     1       5.748  -5.727  23.807  0.00  0.00    +0.014 A 
BRANCH  20  27
ATOM     26  F   UNL     1       7.987  -5.824  26.517  0.00  0.00    -0.166 F 
ATOM     27  C   UNL     1       6.789  -5.352  26.062  0.00  0.00    +0.419 C 
ATOM     28  F   UNL     1       6.538  -4.245  26.797  0.00  0.00    -0.166 F 
ATOM     29  F   UNL     1       5.873  -6.290  26.430  0.00  0.00    -0.166 F 
ENDBRANCH  20  27
ENDBRANCH  17  21
ENDBRANCH   1  17
TORSDOF 5
ENDMDL
MODEL 3
REMARK VINA RESULT:      -7.6      2.211      2.935
REMARK  Name = 
REMARK  5 active torsions:
REMARK  status: ('A' for Active; 'I' for Inactive)
REMARK    1  A    between atoms: C_2  and  C_5
REMARK    2  A    between atoms: C_10  and  S_11
REMARK    3  A    between atoms: S_11  and  N_14
REMARK    4  A    between atoms: N_14  and  N_15
REMARK    5  A    between atoms: C_16  and  C_18
REMARK                            x       y       z     vdW  Elec       q    Type
REMARK                         _______ _______ _______ _____ _____    ______ ____
ROOT
ATOM      1  N   UNL     1       9.230  -3.879  24.490  0.00  0.00    -0.108 NA
ATOM      2  H   UNL     1      10.095  -4.388  24.710  0.00  0.00    +0.172 HD
ENDROOT
BRANCH   1   3
ATOM      3  N   UNL     1       9.245  -2.420  24.519  0.00  0.00    -0.225 N 
ATOM      4  H   UNL     1       8.746  -1.946  25.272  0.00  0.00    +0.171 HD
ATOM      5  C   UNL     1       9.930  -1.697  23.564  0.00  0.00    +0.294 C 
ATOM      6  O   UNL     1      10.568  -2.245  22.667  0.00  0.00    -0.265 OA
BRANCH   5   7
ATOM      7  C   UNL     1       9.831  -0.257  23.722  0.00  0.00    +0.192 A 
ATOM      8  O   UNL     1       8.864   0.274  24.542  0.00  0.00    -0.450 OA
ATOM      9  C   UNL     1       8.991   1.631  24.492  0.00  0.00    +0.136 A 
ATOM     10  C   UNL     1      10.039   1.989  23.652  0.00  0.00    +0.022 A 
ATOM     11  C   UNL     1      10.328   3.355  23.475  0.00  0.00    +0.031 A 
ATOM     12  C   UNL     1       9.542   4.297  24.151  0.00  0.00    +0.042 A 
ATOM     13  C   UNL     1       8.494   3.905  24.987  0.00  0.00    +0.023 A 
ATOM     14 CL   UNL     1       9.879   5.975  23.947  0.00  0.00    -0.084 Cl
ATOM     15  C   UNL     1       8.193   2.549  25.176  0.00  0.00    +0.048 A 
ATOM     16  C   UNL     1      10.572   0.768  23.161  0.00  0.00    +0.063 A 
ENDBRANCH   5   7
ENDBRANCH   1   3
BRANCH   1  17
ATOM     17  S   UNL     1       7.866  -4.627  23.854  0.00  0.00    +0.074 S 
ATOM     18  O   UNL     1       7.066  -3.565  23.275  0.00  0.00    -0.152 OA
ATOM     19  O   UNL     1       8.299  -5.729  23.028  0.00  0.00    -0.152 OA
BRANCH  17  21
ATOM     20  C   UNL     1       5.660  -5.850  25.097  0.00  0.00    +0.081 A 
ATOM     21  C   UNL     1       6.955  -5.312  25.231  0.00  0.00    +0.118 A 
ATOM     22  C   UNL     1       7.522  -5.150  26.509  0.00  0.00    +0.029 A 
ATOM     23  C   UNL     1       6.810  -5.505  27.653  0.00  0.00    +0.002 A 
ATOM     24  C   UNL     1       5.527  -6.022  27.538  0.00  0.00    +0.001 A 
ATOM     25  C   UNL     1       4.960  -6.199  26.274  0.00  0.00    +0.014 A 
BRANCH  20  27
ATOM     26  F   UNL     1       4.533  -4.958  23.180  0.00  0.00    -0.166 F 
ATOM     27  C   UNL     1       5.002  -6.099  23.764  0.00  0.00    +0.419 C 
ATOM     28  F   UNL     1       5.808  -6.669  22.839  0.00  0.00    -0.166 F 
ATOM     29  F   UNL     1       3.913  -6.907  23.894  0.00  0.00    -0.166 F 
ENDBRANCH  20  27
ENDBRANCH  17  21
ENDBRANCH   1  17
TORSDOF 5
ENDMDL
MODEL 4
REMARK VINA RESULT:      -7.3      2.626      3.290
REMARK  Name = 
REMARK  5 active torsions:
REMARK  status: ('A' for Active; 'I' for Inactive)
REMARK    1  A    between atoms: C_2  and  C_5
REMARK    2  A    between atoms: C_10  and  S_11
REMARK    3  A    between atoms: S_11  and  N_14
REMARK    4  A    between atoms: N_14  and  N_15
REMARK    5  A    between atoms: C_16  and  C_18
REMARK                            x       y       z     vdW  Elec       q    Type
REMARK                         _______ _______ _______ _____ _____    ______ ____
ROOT
ATOM      1  N   UNL     1       5.924  -1.948  22.701  0.00  0.00    -0.108 NA
ATOM      2  H   UNL     1       5.536  -2.112  21.763  0.00  0.00    +0.172 HD
ENDROOT
BRANCH   1   3
ATOM      3  N   UNL     1       6.736  -0.756  22.927  0.00  0.00    -0.225 N 
ATOM      4  H   UNL     1       6.287   0.064  23.336  0.00  0.00    +0.171 HD
ATOM      5  C   UNL     1       8.079  -0.741  22.612  0.00  0.00    +0.294 C 
ATOM      6  O   UNL     1       8.650  -1.728  22.152  0.00  0.00    -0.265 OA
BRANCH   5   7
ATOM      7  C   UNL     1       8.740   0.524  22.879  0.00  0.00    +0.192 A 
ATOM      8  O   UNL     1       8.011   1.585  23.362  0.00  0.00    -0.450 OA
ATOM      9  C   UNL     1       8.870   2.635  23.505  0.00  0.00    +0.136 A 
ATOM     10  C   UNL     1      10.155   2.265  23.126  0.00  0.00    +0.022 A 
ATOM     11  C   UNL     1      11.187   3.219  23.208  0.00  0.00    +0.031 A 
ATOM     12  C   UNL     1      10.871   4.505  23.665  0.00  0.00    +0.042 A 
ATOM     13  C   UNL     1       9.568   4.847  24.036  0.00  0.00    +0.023 A 
ATOM     14 CL   UNL     1      12.119   5.688  23.772  0.00  0.00    -0.084 Cl
ATOM     15  C   UNL     1       8.530   3.909  23.962  0.00  0.00    +0.048 A 
ATOM     16  C   UNL     1      10.061   0.905  22.725  0.00  0.00    +0.063 A 
ENDBRANCH   5   7
ENDBRANCH   1   3
BRANCH   1  17
ATOM     17  S   UNL     1       5.469  -2.843  24.049  0.00  0.00    +0.074 S 
ATOM     18  O   UNL     1       4.960  -1.881  25.008  0.00  0.00    -0.152 OA
ATOM     19  O   UNL     1       4.625  -3.927  23.606  0.00  0.00    -0.152 OA
BRANCH  17  21
ATOM     20  C   UNL     1       7.579  -4.696  24.171  0.00  0.00    +0.081 A 
ATOM     21  C   UNL     1       6.958  -3.561  24.727  0.00  0.00    +0.118 A 
ATOM     22  C   UNL     1       7.411  -3.039  25.953  0.00  0.00    +0.029 A 
ATOM     23  C   UNL     1       8.465  -3.643  26.637  0.00  0.00    +0.002 A 
ATOM     24  C   UNL     1       9.077  -4.772  26.109  0.00  0.00    +0.001 A 
ATOM     25  C   UNL     1       8.644  -5.289  24.886  0.00  0.00    +0.014 A 
BRANCH  20  27
ATOM     26  F   UNL     1       7.144  -4.359  21.839  0.00  0.00    -0.166 F 
ATOM     27  C   UNL     1       7.185  -5.286  22.841  0.00  0.00    +0.419 C 
ATOM     28  F   UNL     1       8.009  -6.260  22.393  0.00  0.00    -0.166 F 
ATOM     29  F   UNL     1       5.931  -5.816  22.888  0.00  0.00    -0.166 F 
ENDBRANCH  20  27
ENDBRANCH  17  21
ENDBRANCH   1  17
TORSDOF 5
ENDMDL
MODEL 5
REMARK VINA RESULT:      -7.3      3.302      4.627
REMARK  Name = 
REMARK  5 active torsions:
REMARK  status: ('A' for Active; 'I' for Inactive)
REMARK    1  A    between atoms: C_2  and  C_5
REMARK    2  A    between atoms: C_10  and  S_11
REMARK    3  A    between atoms: S_11  and  N_14
REMARK    4  A    between atoms: N_14  and  N_15
REMARK    5  A    between atoms: C_16  and  C_18
REMARK                            x       y       z     vdW  Elec       q    Type
REMARK                         _______ _______ _______ _____ _____    ______ ____
ROOT
ATOM      1  N   UNL     1       7.827  -5.903  27.350  0.00  0.00    -0.108 NA
ATOM      2  H   UNL     1       8.442  -6.711  27.186  0.00  0.00    +0.172 HD
ENDROOT
BRANCH   1   3
ATOM      3  N   UNL     1       8.132  -4.640  26.684  0.00  0.00    -0.225 N 
ATOM      4  H   UNL     1       7.801  -3.775  27.112  0.00  0.00    +0.171 HD
ATOM      5  C   UNL     1       8.862  -4.613  25.514  0.00  0.00    +0.294 C 
ATOM      6  O   UNL     1       9.303  -5.638  24.997  0.00  0.00    -0.265 OA
BRANCH   5   7
ATOM      7  C   UNL     1       9.063  -3.283  24.967  0.00  0.00    +0.192 A 
ATOM      8  O   UNL     1       9.540  -3.137  23.686  0.00  0.00    -0.450 OA
ATOM      9  C   UNL     1       9.644  -1.799  23.441  0.00  0.00    +0.136 A 
ATOM     10  C   UNL     1       9.230  -1.071  24.551  0.00  0.00    +0.022 A 
ATOM     11  C   UNL     1       9.261   0.336  24.488  0.00  0.00    +0.031 A 
ATOM     12  C   UNL     1       9.714   0.941  23.309  0.00  0.00    +0.042 A 
ATOM     13  C   UNL     1      10.126   0.180  22.211  0.00  0.00    +0.023 A 
ATOM     14 CL   UNL     1       9.761   2.661  23.211  0.00  0.00    -0.084 Cl
ATOM     15  C   UNL     1      10.099  -1.220  22.257  0.00  0.00    +0.048 A 
ATOM     16  C   UNL     1       8.858  -2.034  25.527  0.00  0.00    +0.063 A 
ENDBRANCH   5   7
ENDBRANCH   1   3
BRANCH   1  17
ATOM     17  S   UNL     1       6.351  -6.024  28.144  0.00  0.00    +0.074 S 
ATOM     18  O   UNL     1       6.441  -7.215  28.967  0.00  0.00    -0.152 OA
ATOM     19  O   UNL     1       6.064  -4.750  28.759  0.00  0.00    -0.152 OA
BRANCH  17  21
ATOM     20  C   UNL     1       3.775  -6.651  27.208  0.00  0.00    +0.081 A 
ATOM     21  C   UNL     1       5.107  -6.312  26.895  0.00  0.00    +0.118 A 
ATOM     22  C   UNL     1       5.546  -6.345  25.558  0.00  0.00    +0.029 A 
ATOM     23  C   UNL     1       4.681  -6.724  24.533  0.00  0.00    +0.002 A 
ATOM     24  C   UNL     1       3.370  -7.075  24.828  0.00  0.00    +0.001 A 
ATOM     25  C   UNL     1       2.920  -7.032  26.150  0.00  0.00    +0.014 A 
BRANCH  20  27
ATOM     26  F   UNL     1       1.881  -6.881  28.656  0.00  0.00    -0.166 F 
ATOM     27  C   UNL     1       3.215  -6.594  28.606  0.00  0.00    +0.419 C 
ATOM     28  F   UNL     1       3.798  -7.446  29.479  0.00  0.00    -0.166 F 
ATOM     29  F   UNL     1       3.330  -5.343  29.133  0.00  0.00    -0.166 F 
ENDBRANCH  20  27
ENDBRANCH  17  21
ENDBRANCH   1  17
TORSDOF 5
ENDMDL
MODEL 6
REMARK VINA RESULT:      -7.2      2.033      2.387
REMARK  Name = 
REMARK  5 active torsions:
REMARK  status: ('A' for Active; 'I' for Inactive)
REMARK    1  A    between atoms: C_2  and  C_5
REMARK    2  A    between atoms: C_10  and  S_11
REMARK    3  A    between atoms: S_11  and  N_14
REMARK    4  A    between atoms: N_14  and  N_15
REMARK    5  A    between atoms: C_16  and  C_18
REMARK                            x       y       z     vdW  Elec       q    Type
REMARK                         _______ _______ _______ _____ _____    ______ ____
ROOT
ATOM      1  N   UNL     1       8.170  -3.689  24.891  0.00  0.00    -0.108 NA
ATOM      2  H   UNL     1       8.277  -4.278  24.056  0.00  0.00    +0.172 HD
ENDROOT
BRANCH   1   3
ATOM      3  N   UNL     1       8.435  -2.258  24.782  0.00  0.00    -0.225 N 
ATOM      4  H   UNL     1       7.792  -1.611  25.241  0.00  0.00    +0.171 HD
ATOM      5  C   UNL     1       9.533  -1.789  24.091  0.00  0.00    +0.294 C 
ATOM      6  O   UNL     1      10.341  -2.549  23.560  0.00  0.00    -0.265 OA
BRANCH   5   7
ATOM      7  C   UNL     1       9.644  -0.342  24.059  0.00  0.00    +0.192 A 
ATOM      8  O   UNL     1       8.698   0.428  24.692  0.00  0.00    -0.450 OA
ATOM      9  C   UNL     1       9.037   1.735  24.491  0.00  0.00    +0.136 A 
ATOM     10  C   UNL     1      10.202   1.821  23.738  0.00  0.00    +0.022 A 
ATOM     11  C   UNL     1      10.715   3.096  23.428  0.00  0.00    +0.031 A 
ATOM     12  C   UNL     1      10.024   4.223  23.891  0.00  0.00    +0.042 A 
ATOM     13  C   UNL     1       8.853   4.102  24.644  0.00  0.00    +0.023 A 
ATOM     14 CL   UNL     1      10.634   5.792  23.522  0.00  0.00    -0.084 Cl
ATOM     15  C   UNL     1       8.331   2.842  24.963  0.00  0.00    +0.048 A 
ATOM     16  C   UNL     1      10.584   0.481  23.465  0.00  0.00    +0.063 A 
ENDBRANCH   5   7
ENDBRANCH   1   3
BRANCH   1  17
ATOM     17  S   UNL     1       7.466  -4.241  26.314  0.00  0.00    +0.074 S 
ATOM     18  O   UNL     1       8.463  -5.080  26.949  0.00  0.00    -0.152 OA
ATOM     19  O   UNL     1       6.930  -3.103  27.023  0.00  0.00    -0.152 OA
BRANCH  17  21
ATOM     20  C   UNL     1       5.382  -6.072  26.774  0.00  0.00    +0.081 A 
ATOM     21  C   UNL     1       6.090  -5.281  25.847  0.00  0.00    +0.118 A 
ATOM     22  C   UNL     1       5.831  -5.409  24.470  0.00  0.00    +0.029 A 
ATOM     23  C   UNL     1       4.887  -6.323  24.005  0.00  0.00    +0.002 A 
ATOM     24  C   UNL     1       4.192  -7.120  24.906  0.00  0.00    +0.001 A 
ATOM     25  C   UNL     1       4.432  -6.991  26.276  0.00  0.00    +0.014 A 
BRANCH  20  27
ATOM     26  F   UNL     1       4.719  -6.768  28.968  0.00  0.00    -0.166 F 
ATOM     27  C   UNL     1       5.566  -5.960  28.266  0.00  0.00    +0.419 C 
ATOM     28  F   UNL     1       6.806  -6.275  28.703  0.00  0.00    -0.166 F 
ATOM     29  F   UNL     1       5.299  -4.698  28.703  0.00  0.00    -0.166 F 
ENDBRANCH  20  27
ENDBRANCH  17  21
ENDBRANCH   1  17
TORSDOF 5
ENDMDL
MODEL 7
REMARK VINA RESULT:      -7.2      4.562      8.248
REMARK  Name = 
REMARK  5 active torsions:
REMARK  status: ('A' for Active; 'I' for Inactive)
REMARK    1  A    between atoms: C_2  and  C_5
REMARK    2  A    between atoms: C_10  and  S_11
REMARK    3  A    between atoms: S_11  and  N_14
REMARK    4  A    between atoms: N_14  and  N_15
REMARK    5  A    between atoms: C_16  and  C_18
REMARK                            x       y       z     vdW  Elec       q    Type
REMARK                         _______ _______ _______ _____ _____    ______ ____
ROOT
ATOM      1  N   UNL     1       9.902  -1.662  23.993  0.00  0.00    -0.108 NA
ATOM      2  H   UNL     1      10.801  -2.042  23.670  0.00  0.00    +0.172 HD
ENDROOT
BRANCH   1   3
ATOM      3  N   UNL     1       8.748  -2.554  24.069  0.00  0.00    -0.225 N 
ATOM      4  H   UNL     1       7.827  -2.171  23.855  0.00  0.00    +0.171 HD
ATOM      5  C   UNL     1       8.899  -3.883  24.404  0.00  0.00    +0.294 C 
ATOM      6  O   UNL     1      10.003  -4.376  24.631  0.00  0.00    -0.265 OA
BRANCH   5   7
ATOM      7  C   UNL     1       7.655  -4.630  24.455  0.00  0.00    +0.192 A 
ATOM      8  O   UNL     1       7.190  -5.099  25.661  0.00  0.00    -0.450 OA
ATOM      9  C   UNL     1       6.027  -5.768  25.415  0.00  0.00    +0.136 A 
ATOM     10  C   UNL     1       5.726  -5.732  24.058  0.00  0.00    +0.022 A 
ATOM     11  C   UNL     1       4.554  -6.369  23.608  0.00  0.00    +0.031 A 
ATOM     12  C   UNL     1       3.742  -7.017  24.549  0.00  0.00    +0.042 A 
ATOM     13  C   UNL     1       4.075  -7.037  25.906  0.00  0.00    +0.023 A 
ATOM     14 CL   UNL     1       2.304  -7.803  24.018  0.00  0.00    -0.084 Cl
ATOM     15  C   UNL     1       5.236  -6.406  26.371  0.00  0.00    +0.048 A 
ATOM     16  C   UNL     1       6.779  -4.999  23.450  0.00  0.00    +0.063 A 
ENDBRANCH   5   7
ENDBRANCH   1   3
BRANCH   1  17
ATOM     17  S   UNL     1       9.747  -0.135  24.676  0.00  0.00    +0.074 S 
ATOM     18  O   UNL     1       9.547  -0.355  26.095  0.00  0.00    -0.152 OA
ATOM     19  O   UNL     1      10.854   0.675  24.227  0.00  0.00    -0.152 OA
BRANCH  17  21
ATOM     20  C   UNL     1       8.147   1.051  22.691  0.00  0.00    +0.081 A 
ATOM     21  C   UNL     1       8.250   0.584  24.016  0.00  0.00    +0.118 A 
ATOM     22  C   UNL     1       7.204   0.818  24.928  0.00  0.00    +0.029 A 
ATOM     23  C   UNL     1       6.065   1.522  24.540  0.00  0.00    +0.002 A 
ATOM     24  C   UNL     1       5.957   2.002  23.241  0.00  0.00    +0.001 A 
ATOM     25  C   UNL     1       6.984   1.763  22.324  0.00  0.00    +0.014 A 
BRANCH  20  27
ATOM     26  F   UNL     1      10.308   1.582  21.803  0.00  0.00    -0.166 F 
ATOM     27  C   UNL     1       9.201   0.800  21.642  0.00  0.00    +0.419 C 
ATOM     28  F   UNL     1       9.663  -0.471  21.605  0.00  0.00    -0.166 F 
ATOM     29  F   UNL     1       8.736   1.091  20.395  0.00  0.00    -0.166 F 
ENDBRANCH  20  27
ENDBRANCH  17  21
ENDBRANCH   1  17
TORSDOF 5
ENDMDL
MODEL 8
REMARK VINA RESULT:      -7.2      2.422      3.096
REMARK  Name = 
REMARK  5 active torsions:
REMARK  status: ('A' for Active; 'I' for Inactive)
REMARK    1  A    between atoms: C_2  and  C_5
REMARK    2  A    between atoms: C_10  and  S_11
REMARK    3  A    between atoms: S_11  and  N_14
REMARK    4  A    between atoms: N_14  and  N_15
REMARK    5  A    between atoms: C_16  and  C_18
REMARK                            x       y       z     vdW  Elec       q    Type
REMARK                         _______ _______ _______ _____ _____    ______ ____
ROOT
ATOM      1  N   UNL     1       7.934  -2.138  25.076  0.00  0.00    -0.108 NA
ATOM      2  H   UNL     1       7.569  -2.273  26.027  0.00  0.00    +0.172 HD
ENDROOT
BRANCH   1   3
ATOM      3  N   UNL     1       8.665  -0.912  24.770  0.00  0.00    -0.225 N 
ATOM      4  H   UNL     1       9.683  -0.956  24.718  0.00  0.00    +0.171 HD
ATOM      5  C   UNL     1       7.998   0.274  24.542  0.00  0.00    +0.294 C 
ATOM      6  O   UNL     1       6.770   0.346  24.564  0.00  0.00    -0.265 OA
BRANCH   5   7
ATOM      7  C   UNL     1       8.868   1.405  24.270  0.00  0.00    +0.192 A 
ATOM      8  O   UNL     1       8.392   2.684  24.431  0.00  0.00    -0.450 OA
ATOM      9  C   UNL     1       9.403   3.538  24.097  0.00  0.00    +0.136 A 
ATOM     10  C   UNL     1      10.538   2.823  23.728  0.00  0.00    +0.022 A 
ATOM     11  C   UNL     1      11.693   3.534  23.351  0.00  0.00    +0.031 A 
ATOM     12  C   UNL     1      11.647   4.934  23.361  0.00  0.00    +0.042 A 
ATOM     13  C   UNL     1      10.490   5.623  23.734  0.00  0.00    +0.023 A 
ATOM     14 CL   UNL     1      13.050   5.824  22.902  0.00  0.00    -0.084 Cl
ATOM     15  C   UNL     1       9.333   4.931  24.114  0.00  0.00    +0.048 A 
ATOM     16  C   UNL     1      10.183   1.453  23.842  0.00  0.00    +0.063 A 
ENDBRANCH   5   7
ENDBRANCH   1   3
BRANCH   1  17
ATOM     17  S   UNL     1       7.953  -3.360  23.922  0.00  0.00    +0.074 S 
ATOM     18  O   UNL     1       7.714  -2.705  22.650  0.00  0.00    -0.152 OA
ATOM     19  O   UNL     1       9.152  -4.141  24.111  0.00  0.00    -0.152 OA
BRANCH  17  21
ATOM     20  C   UNL     1       6.194  -5.496  23.426  0.00  0.00    +0.081 A 
ATOM     21  C   UNL     1       6.558  -4.423  24.263  0.00  0.00    +0.118 A 
ATOM     22  C   UNL     1       5.723  -4.049  25.333  0.00  0.00    +0.029 A 
ATOM     23  C   UNL     1       4.525  -4.722  25.570  0.00  0.00    +0.002 A 
ATOM     24  C   UNL     1       4.146  -5.772  24.744  0.00  0.00    +0.001 A 
ATOM     25  C   UNL     1       4.974  -6.160  23.687  0.00  0.00    +0.014 A 
BRANCH  20  27
ATOM     26  F   UNL     1       7.195  -5.068  21.292  0.00  0.00    -0.166 F 
ATOM     27  C   UNL     1       7.055  -5.988  22.291  0.00  0.00    +0.419 C 
ATOM     28  F   UNL     1       8.316  -6.323  22.649  0.00  0.00    -0.166 F 
ATOM     29  F   UNL     1       6.507  -7.083  21.694  0.00  0.00    -0.166 F 
ENDBRANCH  20  27
ENDBRANCH  17  21
ENDBRANCH   1  17
TORSDOF 5
ENDMDL
MODEL 9
REMARK VINA RESULT:      -7.1      2.475      3.194
REMARK  Name = 
REMARK  5 active torsions:
REMARK  status: ('A' for Active; 'I' for Inactive)
REMARK    1  A    between atoms: C_2  and  C_5
REMARK    2  A    between atoms: C_10  and  S_11
REMARK    3  A    between atoms: S_11  and  N_14
REMARK    4  A    between atoms: N_14  and  N_15
REMARK    5  A    between atoms: C_16  and  C_18
REMARK                            x       y       z     vdW  Elec       q    Type
REMARK                         _______ _______ _______ _____ _____    ______ ____
ROOT
ATOM      1  N   UNL     1       8.320  -3.202  25.498  0.00  0.00    -0.108 NA
ATOM      2  H   UNL     1       8.352  -3.539  26.468  0.00  0.00    +0.172 HD
ENDROOT
BRANCH   1   3
ATOM      3  N   UNL     1       8.660  -1.808  25.225  0.00  0.00    -0.225 N 
ATOM      4  H   UNL     1       9.640  -1.572  25.069  0.00  0.00    +0.171 HD
ATOM      5  C   UNL     1       7.682  -0.837  25.165  0.00  0.00    +0.294 C 
ATOM      6  O   UNL     1       6.491  -1.102  25.315  0.00  0.00    -0.265 OA
BRANCH   5   7
ATOM      7  C   UNL     1       8.186   0.500  24.905  0.00  0.00    +0.192 A 
ATOM      8  O   UNL     1       9.360   0.662  24.210  0.00  0.00    -0.450 OA
ATOM      9  C   UNL     1       9.599   2.003  24.124  0.00  0.00    +0.136 A 
ATOM     10  C   UNL     1       8.584   2.716  24.752  0.00  0.00    +0.022 A 
ATOM     11  C   UNL     1       8.653   4.122  24.765  0.00  0.00    +0.031 A 
ATOM     12  C   UNL     1       9.747   4.743  24.147  0.00  0.00    +0.042 A 
ATOM     13  C   UNL     1      10.752   3.997  23.527  0.00  0.00    +0.023 A 
ATOM     14 CL   UNL     1       9.850   6.463  24.153  0.00  0.00    -0.084 Cl
ATOM     15  C   UNL     1      10.698   2.597  23.503  0.00  0.00    +0.048 A 
ATOM     16  C   UNL     1       7.680   1.741  25.251  0.00  0.00    +0.063 A 
ENDBRANCH   5   7
ENDBRANCH   1   3
BRANCH   1  17
ATOM     17  S   UNL     1       8.140  -4.228  24.179  0.00  0.00    +0.074 S 
ATOM     18  O   UNL     1       8.161  -3.373  23.008  0.00  0.00    -0.152 OA
ATOM     19  O   UNL     1       9.103  -5.295  24.304  0.00  0.00    -0.152 OA
BRANCH  17  21
ATOM     20  C   UNL     1       5.818  -5.461  23.182  0.00  0.00    +0.081 A 
ATOM     21  C   UNL     1       6.512  -4.954  24.299  0.00  0.00    +0.118 A 
ATOM     22  C   UNL     1       5.866  -4.859  25.546  0.00  0.00    +0.029 A 
ATOM     23  C   UNL     1       4.535  -5.249  25.690  0.00  0.00    +0.002 A 
ATOM     24  C   UNL     1       3.834  -5.736  24.595  0.00  0.00    +0.001 A 
ATOM     25  C   UNL     1       4.470  -5.847  23.356  0.00  0.00    +0.014 A 
BRANCH  20  27
ATOM     26  F   UNL     1       5.683  -6.377  20.973  0.00  0.00    -0.166 F 
ATOM     27  C   UNL     1       6.452  -5.639  21.827  0.00  0.00    +0.419 C 
ATOM     28  F   UNL     1       6.708  -4.485  21.171  0.00  0.00    -0.166 F 
ATOM     29  F   UNL     1       7.631  -6.315  21.918  0.00  0.00    -0.166 F 
ENDBRANCH  20  27
ENDBRANCH  17  21
ENDBRANCH   1  17
TORSDOF 5
ENDMDL
