MODEL 1
REMARK VINA RESULT:      -5.3      0.000      0.000
REMARK  Name = 
REMARK  8 active torsions:
REMARK  status: ('A' for Active; 'I' for Inactive)
REMARK    1  A    between atoms: C_1  and  N_2
REMARK    2  A    between atoms: N_2  and  C_3
REMARK    3  A    between atoms: C_3  and  C_4
REMARK    4  A    between atoms: C_4  and  C_6
REMARK    5  A    between atoms: C_9  and  C_11
REMARK    6  A    between atoms: C_11  and  C_12
REMARK    7  A    between atoms: C_11  and  C_13
REMARK    8  A    between atoms: C_11  and  C_14
REMARK                            x       y       z     vdW  Elec       q    Type
REMARK                         _______ _______ _______ _____ _____    ______ ____
ROOT
ATOM      1  C   UNL     1       9.236  -2.962  23.806  0.00  0.00    +0.285 A 
ATOM      2  O   UNL     1       8.051  -3.170  23.144  0.00  0.00    -0.417 OA
ATOM      3  C   UNL     1       7.774  -4.473  23.474  0.00  0.00    +0.223 A 
ATOM      4  N   UNL     1       8.698  -5.006  24.247  0.00  0.00    -0.111 NA
ATOM      5  N   UNL     1       9.646  -4.029  24.462  0.00  0.00    -0.104 NA
ENDROOT
BRANCH   3   6
ATOM      6  C   UNL     1       6.506  -5.078  22.943  0.00  0.00    +0.040 C 
ATOM      7  C   UNL     1       5.688  -5.685  24.093  0.00  0.00    +0.020 C 
ATOM      8  C   UNL     1       6.837  -6.171  21.913  0.00  0.00    +0.020 C 
ATOM      9  C   UNL     1       5.660  -3.991  22.252  0.00  0.00    +0.020 C 
ENDBRANCH   3   6
BRANCH   1  10
ATOM     10  C   UNL     1       9.890  -1.675  23.762  0.00  0.00    +0.233 C 
ATOM     11  O   UNL     1       9.914  -0.886  24.711  0.00  0.00    -0.286 OA
BRANCH  10  12
ATOM     12  C   UNL     1      10.582  -1.336  22.436  0.00  0.00    +0.166 C 
BRANCH  12  14
ATOM     13  C   UNL     1       9.238   0.375  21.402  0.00  0.00    +0.101 C 
ATOM     14  N   UNL     1       9.591  -1.040  21.385  0.00  0.00    -0.312 NA
ATOM     15  H   UNL     1       9.987  -1.262  20.470  0.00  0.00    +0.122 HD
ENDBRANCH  12  14
ENDBRANCH  10  12
ENDBRANCH   1  10
TORSDOF 4
ENDMDL
MODEL 2
REMARK VINA RESULT:      -4.9      1.599      2.051
REMARK  Name = 
REMARK  8 active torsions:
REMARK  status: ('A' for Active; 'I' for Inactive)
REMARK    1  A    between atoms: C_1  and  N_2
REMARK    2  A    between atoms: N_2  and  C_3
REMARK    3  A    between atoms: C_3  and  C_4
REMARK    4  A    between atoms: C_4  and  C_6
REMARK    5  A    between atoms: C_9  and  C_11
REMARK    6  A    between atoms: C_11  and  C_12
REMARK    7  A    between atoms: C_11  and  C_13
REMARK    8  A    between atoms: C_11  and  C_14
REMARK                            x       y       z     vdW  Elec       q    Type
REMARK                         _______ _______ _______ _____ _____    ______ ____
ROOT
ATOM      1  C   UNL     1       9.153  -3.145  23.696  0.00  0.00    +0.285 A 
ATOM      2  O   UNL     1       7.950  -3.341  23.066  0.00  0.00    -0.417 OA
ATOM      3  C   UNL     1       7.550  -4.542  23.599  0.00  0.00    +0.223 A 
ATOM      4  N   UNL     1       8.424  -5.030  24.456  0.00  0.00    -0.111 NA
ATOM      5  N   UNL     1       9.462  -4.127  24.519  0.00  0.00    -0.104 NA
ENDROOT
BRANCH   3   6
ATOM      6  C   UNL     1       6.226  -5.098  23.160  0.00  0.00    +0.040 C 
ATOM      7  C   UNL     1       5.517  -5.772  24.346  0.00  0.00    +0.020 C 
ATOM      8  C   UNL     1       6.435  -6.125  22.035  0.00  0.00    +0.020 C 
ATOM      9  C   UNL     1       5.332  -3.962  22.629  0.00  0.00    +0.020 C 
ENDBRANCH   3   6
BRANCH   1  10
ATOM     10  C   UNL     1       9.928  -1.951  23.452  0.00  0.00    +0.233 C 
ATOM     11  O   UNL     1      10.687  -1.812  22.489  0.00  0.00    -0.286 OA
BRANCH  10  12
ATOM     12  C   UNL     1       9.742  -0.827  24.480  0.00  0.00    +0.166 C 
BRANCH  12  14
ATOM     13  C   UNL     1       8.815  -0.888  26.703  0.00  0.00    +0.101 C 
ATOM     14  N   UNL     1       8.523  -1.043  25.282  0.00  0.00    -0.312 NA
ATOM     15  H   UNL     1       7.816  -0.353  25.020  0.00  0.00    +0.122 HD
ENDBRANCH  12  14
ENDBRANCH  10  12
ENDBRANCH   1  10
TORSDOF 4
ENDMDL
MODEL 3
REMARK VINA RESULT:      -4.9      1.806      2.239
REMARK  Name = 
REMARK  8 active torsions:
REMARK  status: ('A' for Active; 'I' for Inactive)
REMARK    1  A    between atoms: C_1  and  N_2
REMARK    2  A    between atoms: N_2  and  C_3
REMARK    3  A    between atoms: C_3  and  C_4
REMARK    4  A    between atoms: C_4  and  C_6
REMARK    5  A    between atoms: C_9  and  C_11
REMARK    6  A    between atoms: C_11  and  C_12
REMARK    7  A    between atoms: C_11  and  C_13
REMARK    8  A    between atoms: C_11  and  C_14
REMARK                            x       y       z     vdW  Elec       q    Type
REMARK                         _______ _______ _______ _____ _____    ______ ____
ROOT
ATOM      1  C   UNL     1       9.373  -2.059  23.024  0.00  0.00    +0.285 A 
ATOM      2  O   UNL     1       8.180  -2.512  22.517  0.00  0.00    -0.417 OA
ATOM      3  C   UNL     1       8.031  -3.705  23.181  0.00  0.00    +0.223 A 
ATOM      4  N   UNL     1       9.034  -3.956  23.998  0.00  0.00    -0.111 NA
ATOM      5  N   UNL     1       9.904  -2.892  23.897  0.00  0.00    -0.104 NA
ENDROOT
BRANCH   3   6
ATOM      6  C   UNL     1       6.796  -4.512  22.906  0.00  0.00    +0.040 C 
ATOM      7  C   UNL     1       7.110  -5.633  21.902  0.00  0.00    +0.020 C 
ATOM      8  C   UNL     1       5.692  -3.605  22.336  0.00  0.00    +0.020 C 
ATOM      9  C   UNL     1       6.285  -5.147  24.213  0.00  0.00    +0.020 C 
ENDBRANCH   3   6
BRANCH   1  10
ATOM     10  C   UNL     1       9.911  -0.783  22.615  0.00  0.00    +0.233 C 
ATOM     11  O   UNL     1       9.823  -0.338  21.467  0.00  0.00    -0.286 OA
BRANCH  10  12
ATOM     12  C   UNL     1      10.610   0.018  23.720  0.00  0.00    +0.166 C 
BRANCH  12  14
ATOM     13  C   UNL     1       8.839   1.145  24.903  0.00  0.00    +0.101 C 
ATOM     14  N   UNL     1       9.795   0.044  24.949  0.00  0.00    -0.312 NA
ATOM     15  H   UNL     1       9.275  -0.832  25.030  0.00  0.00    +0.122 HD
ENDBRANCH  12  14
ENDBRANCH  10  12
ENDBRANCH   1  10
TORSDOF 4
ENDMDL
MODEL 4
REMARK VINA RESULT:      -4.9      1.908      2.603
REMARK  Name = 
REMARK  8 active torsions:
REMARK  status: ('A' for Active; 'I' for Inactive)
REMARK    1  A    between atoms: C_1  and  N_2
REMARK    2  A    between atoms: N_2  and  C_3
REMARK    3  A    between atoms: C_3  and  C_4
REMARK    4  A    between atoms: C_4  and  C_6
REMARK    5  A    between atoms: C_9  and  C_11
REMARK    6  A    between atoms: C_11  and  C_12
REMARK    7  A    between atoms: C_11  and  C_13
REMARK    8  A    between atoms: C_11  and  C_14
REMARK                            x       y       z     vdW  Elec       q    Type
REMARK                         _______ _______ _______ _____ _____    ______ ____
ROOT
ATOM      1  C   UNL     1       8.844  -1.352  22.990  0.00  0.00    +0.285 A 
ATOM      2  O   UNL     1       7.950  -2.340  23.324  0.00  0.00    -0.417 OA
ATOM      3  C   UNL     1       8.779  -3.294  23.861  0.00  0.00    +0.223 A 
ATOM      4  N   UNL     1      10.045  -2.929  23.846  0.00  0.00    -0.111 NA
ATOM      5  N   UNL     1      10.088  -1.673  23.283  0.00  0.00    -0.104 NA
ENDROOT
BRANCH   3   6
ATOM      6  C   UNL     1       8.152  -4.556  24.379  0.00  0.00    +0.040 C 
ATOM      7  C   UNL     1       6.984  -4.220  25.319  0.00  0.00    +0.020 C 
ATOM      8  C   UNL     1       9.199  -5.390  25.136  0.00  0.00    +0.020 C 
ATOM      9  C   UNL     1       7.616  -5.393  23.202  0.00  0.00    +0.020 C 
ENDBRANCH   3   6
BRANCH   1  10
ATOM     10  C   UNL     1       8.388  -0.110  22.410  0.00  0.00    +0.233 C 
ATOM     11  O   UNL     1       7.311   0.423  22.690  0.00  0.00    -0.286 OA
BRANCH  10  12
ATOM     12  C   UNL     1       9.351   0.534  21.404  0.00  0.00    +0.166 C 
BRANCH  12  14
ATOM     13  C   UNL     1      10.264   2.296  22.770  0.00  0.00    +0.101 C 
ATOM     14  N   UNL     1       9.431   1.992  21.612  0.00  0.00    -0.312 NA
ATOM     15  H   UNL     1       9.850   2.431  20.790  0.00  0.00    +0.122 HD
ENDBRANCH  12  14
ENDBRANCH  10  12
ENDBRANCH   1  10
TORSDOF 4
ENDMDL
MODEL 5
REMARK VINA RESULT:      -4.9      2.046      5.008
REMARK  Name = 
REMARK  8 active torsions:
REMARK  status: ('A' for Active; 'I' for Inactive)
REMARK    1  A    between atoms: C_1  and  N_2
REMARK    2  A    between atoms: N_2  and  C_3
REMARK    3  A    between atoms: C_3  and  C_4
REMARK    4  A    between atoms: C_4  and  C_6
REMARK    5  A    between atoms: C_9  and  C_11
REMARK    6  A    between atoms: C_11  and  C_12
REMARK    7  A    between atoms: C_11  and  C_13
REMARK    8  A    between atoms: C_11  and  C_14
REMARK                            x       y       z     vdW  Elec       q    Type
REMARK                         _______ _______ _______ _____ _____    ______ ____
ROOT
ATOM      1  C   UNL     1       8.716  -3.786  25.213  0.00  0.00    +0.285 A 
ATOM      2  O   UNL     1       8.462  -2.438  25.162  0.00  0.00    -0.417 OA
ATOM      3  C   UNL     1       9.419  -2.008  24.276  0.00  0.00    +0.223 A 
ATOM      4  N   UNL     1      10.182  -2.990  23.842  0.00  0.00    -0.111 NA
ATOM      5  N   UNL     1       9.729  -4.142  24.448  0.00  0.00    -0.104 NA
ENDROOT
BRANCH   3   6
ATOM      6  C   UNL     1       9.452  -0.547  23.932  0.00  0.00    +0.040 C 
ATOM      7  C   UNL     1      10.376   0.204  24.903  0.00  0.00    +0.020 C 
ATOM      8  C   UNL     1       8.034   0.043  24.012  0.00  0.00    +0.020 C 
ATOM      9  C   UNL     1       9.982  -0.360  22.498  0.00  0.00    +0.020 C 
ENDBRANCH   3   6
BRANCH   1  10
ATOM     10  C   UNL     1       7.900  -4.661  26.021  0.00  0.00    +0.233 C 
ATOM     11  O   UNL     1       8.157  -4.950  27.193  0.00  0.00    -0.286 OA
BRANCH  10  12
ATOM     12  C   UNL     1       6.651  -5.220  25.326  0.00  0.00    +0.166 C 
BRANCH  12  14
ATOM     13  C   UNL     1       5.907  -5.761  23.099  0.00  0.00    +0.101 C 
ATOM     14  N   UNL     1       6.580  -4.764  23.925  0.00  0.00    -0.312 NA
ATOM     15  H   UNL     1       6.048  -3.893  23.877  0.00  0.00    +0.122 HD
ENDBRANCH  12  14
ENDBRANCH  10  12
ENDBRANCH   1  10
TORSDOF 4
ENDMDL
MODEL 6
REMARK VINA RESULT:      -4.8      1.973      5.510
REMARK  Name = 
REMARK  8 active torsions:
REMARK  status: ('A' for Active; 'I' for Inactive)
REMARK    1  A    between atoms: C_1  and  N_2
REMARK    2  A    between atoms: N_2  and  C_3
REMARK    3  A    between atoms: C_3  and  C_4
REMARK    4  A    between atoms: C_4  and  C_6
REMARK    5  A    between atoms: C_9  and  C_11
REMARK    6  A    between atoms: C_11  and  C_12
REMARK    7  A    between atoms: C_11  and  C_13
REMARK    8  A    between atoms: C_11  and  C_14
REMARK                            x       y       z     vdW  Elec       q    Type
REMARK                         _______ _______ _______ _____ _____    ______ ____
ROOT
ATOM      1  C   UNL     1       8.520  -2.095  22.682  0.00  0.00    +0.285 A 
ATOM      2  O   UNL     1       8.586  -1.088  23.612  0.00  0.00    -0.417 OA
ATOM      3  C   UNL     1       9.545  -0.270  23.067  0.00  0.00    +0.223 A 
ATOM      4  N   UNL     1      10.019  -0.736  21.930  0.00  0.00    -0.111 NA
ATOM      5  N   UNL     1       9.357  -1.918  21.680  0.00  0.00    -0.104 NA
ENDROOT
BRANCH   3   6
ATOM      6  C   UNL     1       9.892   0.992  23.804  0.00  0.00    +0.040 C 
ATOM      7  C   UNL     1      11.166   0.784  24.637  0.00  0.00    +0.020 C 
ATOM      8  C   UNL     1       8.732   1.395  24.730  0.00  0.00    +0.020 C 
ATOM      9  C   UNL     1      10.138   2.133  22.798  0.00  0.00    +0.020 C 
ENDBRANCH   3   6
BRANCH   1  10
ATOM     10  C   UNL     1       7.586  -3.186  22.841  0.00  0.00    +0.233 C 
ATOM     11  O   UNL     1       6.508  -3.257  22.245  0.00  0.00    -0.286 OA
BRANCH  10  12
ATOM     12  C   UNL     1       8.027  -4.290  23.811  0.00  0.00    +0.166 C 
BRANCH  12  14
ATOM     13  C   UNL     1       9.705  -4.956  25.406  0.00  0.00    +0.101 C 
ATOM     14  N   UNL     1       9.381  -4.024  24.331  0.00  0.00    -0.312 NA
ATOM     15  H   UNL     1      10.064  -4.146  23.582  0.00  0.00    +0.122 HD
ENDBRANCH  12  14
ENDBRANCH  10  12
ENDBRANCH   1  10
TORSDOF 4
ENDMDL
MODEL 7
REMARK VINA RESULT:      -4.7      2.076      5.418
REMARK  Name = 
REMARK  8 active torsions:
REMARK  status: ('A' for Active; 'I' for Inactive)
REMARK    1  A    between atoms: C_1  and  N_2
REMARK    2  A    between atoms: N_2  and  C_3
REMARK    3  A    between atoms: C_3  and  C_4
REMARK    4  A    between atoms: C_4  and  C_6
REMARK    5  A    between atoms: C_9  and  C_11
REMARK    6  A    between atoms: C_11  and  C_12
REMARK    7  A    between atoms: C_11  and  C_13
REMARK    8  A    between atoms: C_11  and  C_14
REMARK                            x       y       z     vdW  Elec       q    Type
REMARK                         _______ _______ _______ _____ _____    ______ ____
ROOT
ATOM      1  C   UNL     1       8.546  -2.326  23.625  0.00  0.00    +0.285 A 
ATOM      2  O   UNL     1       9.515  -1.394  23.899  0.00  0.00    -0.417 OA
ATOM      3  C   UNL     1       8.921  -0.237  23.458  0.00  0.00    +0.223 A 
ATOM      4  N   UNL     1       7.720  -0.446  22.959  0.00  0.00    -0.111 NA
ATOM      5  N   UNL     1       7.476  -1.797  23.066  0.00  0.00    -0.104 NA
ENDROOT
BRANCH   3   6
ATOM      6  C   UNL     1       9.684   1.047  23.612  0.00  0.00    +0.040 C 
ATOM      7  C   UNL     1      10.996   0.794  24.371  0.00  0.00    +0.020 C 
ATOM      8  C   UNL     1       8.835   2.073  24.381  0.00  0.00    +0.020 C 
ATOM      9  C   UNL     1      10.018   1.626  22.224  0.00  0.00    +0.020 C 
ENDBRANCH   3   6
BRANCH   1  10
ATOM     10  C   UNL     1       8.740  -3.715  23.968  0.00  0.00    +0.233 C 
ATOM     11  O   UNL     1       9.760  -4.152  24.508  0.00  0.00    -0.286 OA
BRANCH  10  12
ATOM     12  C   UNL     1       7.568  -4.645  23.625  0.00  0.00    +0.166 C 
BRANCH  12  14
ATOM     13  C   UNL     1       6.875  -5.995  21.755  0.00  0.00    +0.101 C 
ATOM     14  N   UNL     1       7.325  -4.671  22.171  0.00  0.00    -0.312 NA
ATOM     15  H   UNL     1       6.598  -3.994  21.935  0.00  0.00    +0.122 HD
ENDBRANCH  12  14
ENDBRANCH  10  12
ENDBRANCH   1  10
TORSDOF 4
ENDMDL
MODEL 8
REMARK VINA RESULT:      -4.7      2.868      5.685
REMARK  Name = 
REMARK  8 active torsions:
REMARK  status: ('A' for Active; 'I' for Inactive)
REMARK    1  A    between atoms: C_1  and  N_2
REMARK    2  A    between atoms: N_2  and  C_3
REMARK    3  A    between atoms: C_3  and  C_4
REMARK    4  A    between atoms: C_4  and  C_6
REMARK    5  A    between atoms: C_9  and  C_11
REMARK    6  A    between atoms: C_11  and  C_12
REMARK    7  A    between atoms: C_11  and  C_13
REMARK    8  A    between atoms: C_11  and  C_14
REMARK                            x       y       z     vdW  Elec       q    Type
REMARK                         _______ _______ _______ _____ _____    ______ ____
ROOT
ATOM      1  C   UNL     1       8.952  -2.969  25.408  0.00  0.00    +0.285 A 
ATOM      2  O   UNL     1       9.439  -2.065  24.497  0.00  0.00    -0.417 OA
ATOM      3  C   UNL     1       9.079  -0.871  25.072  0.00  0.00    +0.223 A 
ATOM      4  N   UNL     1       8.432  -1.033  26.208  0.00  0.00    -0.111 NA
ATOM      5  N   UNL     1       8.348  -2.390  26.426  0.00  0.00    -0.104 NA
ENDROOT
BRANCH   3   6
ATOM      6  C   UNL     1       9.468   0.395  24.364  0.00  0.00    +0.040 C 
ATOM      7  C   UNL     1       8.641   1.574  24.897  0.00  0.00    +0.020 C 
ATOM      8  C   UNL     1       9.234   0.243  22.851  0.00  0.00    +0.020 C 
ATOM      9  C   UNL     1      10.962   0.688  24.602  0.00  0.00    +0.020 C 
ENDBRANCH   3   6
BRANCH   1  10
ATOM     10  C   UNL     1       9.145  -4.388  25.215  0.00  0.00    +0.233 C 
ATOM     11  O   UNL     1      10.192  -4.886  24.793  0.00  0.00    -0.286 OA
BRANCH  10  12
ATOM     12  C   UNL     1       7.944  -5.268  25.584  0.00  0.00    +0.166 C 
BRANCH  12  14
ATOM     13  C   UNL     1       6.721  -5.471  27.650  0.00  0.00    +0.101 C 
ATOM     14  N   UNL     1       8.009  -5.681  26.998  0.00  0.00    -0.312 NA
ATOM     15  H   UNL     1       8.239  -6.675  27.053  0.00  0.00    +0.122 HD
ENDBRANCH  12  14
ENDBRANCH  10  12
ENDBRANCH   1  10
TORSDOF 4
ENDMDL
MODEL 9
REMARK VINA RESULT:      -4.6      1.850      5.011
REMARK  Name = 
REMARK  8 active torsions:
REMARK  status: ('A' for Active; 'I' for Inactive)
REMARK    1  A    between atoms: C_1  and  N_2
REMARK    2  A    between atoms: N_2  and  C_3
REMARK    3  A    between atoms: C_3  and  C_4
REMARK    4  A    between atoms: C_4  and  C_6
REMARK    5  A    between atoms: C_9  and  C_11
REMARK    6  A    between atoms: C_11  and  C_12
REMARK    7  A    between atoms: C_11  and  C_13
REMARK    8  A    between atoms: C_11  and  C_14
REMARK                            x       y       z     vdW  Elec       q    Type
REMARK                         _______ _______ _______ _____ _____    ______ ____
ROOT
ATOM      1  C   UNL     1       8.377  -3.739  23.660  0.00  0.00    +0.285 A 
ATOM      2  O   UNL     1       7.941  -2.555  23.120  0.00  0.00    -0.417 OA
ATOM      3  C   UNL     1       9.012  -1.729  23.356  0.00  0.00    +0.223 A 
ATOM      4  N   UNL     1       9.994  -2.344  23.983  0.00  0.00    -0.111 NA
ATOM      5  N   UNL     1       9.584  -3.645  24.181  0.00  0.00    -0.104 NA
ENDROOT
BRANCH   3   6
ATOM      6  C   UNL     1       8.924  -0.309  22.875  0.00  0.00    +0.040 C 
ATOM      7  C   UNL     1       7.469   0.181  22.939  0.00  0.00    +0.020 C 
ATOM      8  C   UNL     1       9.438  -0.212  21.429  0.00  0.00    +0.020 C 
ATOM      9  C   UNL     1       9.792   0.598  23.767  0.00  0.00    +0.020 C 
ENDBRANCH   3   6
BRANCH   1  10
ATOM     10  C   UNL     1       7.556  -4.925  23.600  0.00  0.00    +0.233 C 
ATOM     11  O   UNL     1       7.582  -5.730  22.665  0.00  0.00    -0.286 OA
BRANCH  10  12
ATOM     12  C   UNL     1       6.629  -5.142  24.803  0.00  0.00    +0.166 C 
BRANCH  12  14
ATOM     13  C   UNL     1       7.023  -4.445  27.075  0.00  0.00    +0.101 C 
ATOM     14  N   UNL     1       6.690  -3.995  25.728  0.00  0.00    -0.312 NA
ATOM     15  H   UNL     1       7.413  -3.344  25.417  0.00  0.00    +0.122 HD
ENDBRANCH  12  14
ENDBRANCH  10  12
ENDBRANCH   1  10
TORSDOF 4
ENDMDL
