MODEL 1
REMARK VINA RESULT:      -5.0      0.000      0.000
REMARK  Name = 
REMARK  11 active torsions:
REMARK  status: ('A' for Active; 'I' for Inactive)
REMARK    1  A    between atoms: C_1  and  C_2
REMARK    2  A    between atoms: C_2  and  C_4
REMARK    3  A    between atoms: C_2  and  C_15
REMARK    4  A    between atoms: C_4  and  P_5
REMARK    5  A    between atoms: P_5  and  O_6
REMARK    6  A    between atoms: P_5  and  C_8
REMARK    7  A    between atoms: C_8  and  N_10
REMARK    8  A    between atoms: C_8  and  C_11
REMARK    9  A    between atoms: C_11  and  C_12
REMARK   10  A    between atoms: C_12  and  O_13
REMARK   11  A    between atoms: C_15  and  O_16
REMARK                            x       y       z     vdW  Elec       q    Type
REMARK                         _______ _______ _______ _____ _____    ______ ____
ROOT
ATOM      1  P   UNL     1       8.784  -2.728  24.002  0.00  0.00    +0.220 P 
ATOM      2  O   UNL     1      10.099  -3.436  24.165  0.00  0.00    -0.289 OA
ENDROOT
BRANCH   1   3
ATOM      3  O   UNL     1       8.122  -2.915  22.534  0.00  0.00    -0.343 OA
ATOM      4  H   UNL     1       7.396  -3.583  22.566  0.00  0.00    +0.218 HD
ENDBRANCH   1   3
BRANCH   1   5
ATOM      5  C   UNL     1       8.931  -0.951  24.100  0.00  0.00    +0.113 C 
BRANCH   5   7
ATOM      6  C   UNL     1      10.905   0.691  24.380  0.00  0.00    +0.020 C 
ATOM      7  C   UNL     1      10.212  -0.353  23.503  0.00  0.00    +0.104 C 
BRANCH   7   8
ATOM      8  C   UNL     1       9.925   0.149  22.108  0.00  0.00    +0.308 C 
ATOM      9  O   UNL     1       9.960   1.338  21.815  0.00  0.00    -0.251 OA
BRANCH   8  10
ATOM     10  O   UNL     1       9.795  -0.803  21.163  0.00  0.00    -0.480 OA
ATOM     11  H   UNL     1       9.424  -1.676  21.452  0.00  0.00    +0.295 HD
ENDBRANCH   8  10
ENDBRANCH   7   8
ENDBRANCH   5   7
ENDBRANCH   1   5
BRANCH   1  12
ATOM     12  C   UNL     1       7.505  -3.421  25.101  0.00  0.00    +0.149 C 
BRANCH  12  13
ATOM     13  N   UNL     1       7.551  -2.579  26.331  0.00  0.00    -0.319 NA
ATOM     14  H   UNL     1       7.141  -1.667  26.081  0.00  0.00    +0.119 HD
ATOM     15  H   UNL     1       6.825  -2.949  26.967  0.00  0.00    +0.119 HD
ENDBRANCH  12  13
BRANCH  12  16
ATOM     16  C   UNL     1       7.629  -4.916  25.356  0.00  0.00    +0.148 C 
BRANCH  16  17
ATOM     17  C   UNL     1       8.179  -5.237  26.716  0.00  0.00    +0.307 C 
ATOM     18  O   UNL     1       7.524  -5.670  27.651  0.00  0.00    -0.251 OA
BRANCH  17  19
ATOM     19  O   UNL     1       9.502  -4.960  26.820  0.00  0.00    -0.481 OA
ATOM     20  H   UNL     1       9.710  -4.181  27.382  0.00  0.00    +0.295 HD
ENDBRANCH  17  19
ENDBRANCH  16  17
ENDBRANCH  12  16
ENDBRANCH   1  12
TORSDOF 10
ENDMDL
MODEL 2
REMARK VINA RESULT:      -5.0      2.153      6.051
REMARK  Name = 
REMARK  11 active torsions:
REMARK  status: ('A' for Active; 'I' for Inactive)
REMARK    1  A    between atoms: C_1  and  C_2
REMARK    2  A    between atoms: C_2  and  C_4
REMARK    3  A    between atoms: C_2  and  C_15
REMARK    4  A    between atoms: C_4  and  P_5
REMARK    5  A    between atoms: P_5  and  O_6
REMARK    6  A    between atoms: P_5  and  C_8
REMARK    7  A    between atoms: C_8  and  N_10
REMARK    8  A    between atoms: C_8  and  C_11
REMARK    9  A    between atoms: C_11  and  C_12
REMARK   10  A    between atoms: C_12  and  O_13
REMARK   11  A    between atoms: C_15  and  O_16
REMARK                            x       y       z     vdW  Elec       q    Type
REMARK                         _______ _______ _______ _____ _____    ______ ____
ROOT
ATOM      1  P   UNL     1       9.250  -2.198  23.859  0.00  0.00    +0.220 P 
ATOM      2  O   UNL     1      10.506  -3.008  23.704  0.00  0.00    -0.289 OA
ENDROOT
BRANCH   1   3
ATOM      3  O   UNL     1       9.359  -1.040  24.989  0.00  0.00    -0.343 OA
ATOM      4  H   UNL     1      10.173  -1.165  25.533  0.00  0.00    +0.218 HD
ENDBRANCH   1   3
BRANCH   1   5
ATOM      5  C   UNL     1       7.872  -3.156  24.466  0.00  0.00    +0.113 C 
BRANCH   5   7
ATOM      6  C   UNL     1       6.615  -5.319  23.821  0.00  0.00    +0.020 C 
ATOM      7  C   UNL     1       7.943  -4.667  24.208  0.00  0.00    +0.104 C 
BRANCH   7   8
ATOM      8  C   UNL     1       8.608  -5.343  25.383  0.00  0.00    +0.308 C 
ATOM      9  O   UNL     1       7.984  -5.726  26.364  0.00  0.00    -0.251 OA
BRANCH   8  10
ATOM     10  O   UNL     1       9.909  -5.654  25.214  0.00  0.00    -0.480 OA
ATOM     11  H   UNL     1      10.334  -5.365  24.366  0.00  0.00    +0.295 HD
ENDBRANCH   8  10
ENDBRANCH   7   8
ENDBRANCH   5   7
ENDBRANCH   1   5
BRANCH   1  12
ATOM     12  C   UNL     1       8.874  -1.242  22.352  0.00  0.00    +0.149 C 
BRANCH  12  13
ATOM     13  N   UNL     1      10.063  -1.425  21.470  0.00  0.00    -0.319 NA
ATOM     14  H   UNL     1      10.819  -1.794  22.065  0.00  0.00    +0.119 HD
ATOM     15  H   UNL     1       9.864  -2.249  20.877  0.00  0.00    +0.119 HD
ENDBRANCH  12  13
BRANCH  12  16
ATOM     16  C   UNL     1       8.489   0.208  22.600  0.00  0.00    +0.148 C 
BRANCH  16  17
ATOM     17  C   UNL     1       9.647   1.155  22.464  0.00  0.00    +0.307 C 
ATOM     18  O   UNL     1      10.531   1.303  23.294  0.00  0.00    -0.251 OA
BRANCH  17  19
ATOM     19  O   UNL     1       9.597   1.876  21.317  0.00  0.00    -0.481 OA
ATOM     20  H   UNL     1       9.215   2.775  21.420  0.00  0.00    +0.295 HD
ENDBRANCH  17  19
ENDBRANCH  16  17
ENDBRANCH  12  16
ENDBRANCH   1  12
TORSDOF 10
ENDMDL
MODEL 3
REMARK VINA RESULT:      -5.0      3.838      7.342
REMARK  Name = 
REMARK  11 active torsions:
REMARK  status: ('A' for Active; 'I' for Inactive)
REMARK    1  A    between atoms: C_1  and  C_2
REMARK    2  A    between atoms: C_2  and  C_4
REMARK    3  A    between atoms: C_2  and  C_15
REMARK    4  A    between atoms: C_4  and  P_5
REMARK    5  A    between atoms: P_5  and  O_6
REMARK    6  A    between atoms: P_5  and  C_8
REMARK    7  A    between atoms: C_8  and  N_10
REMARK    8  A    between atoms: C_8  and  C_11
REMARK    9  A    between atoms: C_11  and  C_12
REMARK   10  A    between atoms: C_12  and  O_13
REMARK   11  A    between atoms: C_15  and  O_16
REMARK                            x       y       z     vdW  Elec       q    Type
REMARK                         _______ _______ _______ _____ _____    ______ ____
ROOT
ATOM      1  P   UNL     1       9.706   2.234  23.125  0.00  0.00    +0.220 P 
ATOM      2  O   UNL     1       8.251   2.295  23.492  0.00  0.00    -0.289 OA
ENDROOT
BRANCH   1   3
ATOM      3  O   UNL     1       9.972   2.207  21.526  0.00  0.00    -0.343 OA
ATOM      4  H   UNL     1      10.147   1.285  21.221  0.00  0.00    +0.218 HD
ENDBRANCH   1   3
BRANCH   1   5
ATOM      5  C   UNL     1      10.493   0.717  23.640  0.00  0.00    +0.113 C 
BRANCH   5   7
ATOM      6  C   UNL     1       9.182  -0.794  25.274  0.00  0.00    +0.020 C 
ATOM      7  C   UNL     1       9.563  -0.489  23.824  0.00  0.00    +0.104 C 
BRANCH   7   8
ATOM      8  C   UNL     1      10.146  -1.684  23.108  0.00  0.00    +0.308 C 
ATOM      9  O   UNL     1      10.300  -2.770  23.652  0.00  0.00    -0.251 OA
BRANCH   8  10
ATOM     10  O   UNL     1      10.329  -1.532  21.781  0.00  0.00    -0.480 OA
ATOM     11  H   UNL     1       9.909  -0.740  21.356  0.00  0.00    +0.295 HD
ENDBRANCH   8  10
ENDBRANCH   7   8
ENDBRANCH   5   7
ENDBRANCH   1   5
BRANCH   1  12
ATOM     12  C   UNL     1      10.597   3.738  23.646  0.00  0.00    +0.149 C 
BRANCH  12  13
ATOM     13  N   UNL     1       9.672   4.865  23.331  0.00  0.00    -0.319 NA
ATOM     14  H   UNL     1       8.765   4.632  23.761  0.00  0.00    +0.119 HD
ATOM     15  H   UNL     1       9.969   5.660  23.922  0.00  0.00    +0.119 HD
ENDBRANCH  12  13
BRANCH  12  16
ATOM     16  C   UNL     1      11.993   3.884  23.061  0.00  0.00    +0.148 C 
BRANCH  16  17
ATOM     17  C   UNL     1      12.709   5.110  23.548  0.00  0.00    +0.307 C 
ATOM     18  O   UNL     1      12.187   6.029  24.161  0.00  0.00    -0.251 OA
BRANCH  17  19
ATOM     19  O   UNL     1      14.020   5.118  23.203  0.00  0.00    -0.481 OA
ATOM     20  H   UNL     1      14.569   5.755  23.711  0.00  0.00    +0.295 HD
ENDBRANCH  17  19
ENDBRANCH  16  17
ENDBRANCH  12  16
ENDBRANCH   1  12
TORSDOF 10
ENDMDL
MODEL 4
REMARK VINA RESULT:      -4.9      2.543      3.377
REMARK  Name = 
REMARK  11 active torsions:
REMARK  status: ('A' for Active; 'I' for Inactive)
REMARK    1  A    between atoms: C_1  and  C_2
REMARK    2  A    between atoms: C_2  and  C_4
REMARK    3  A    between atoms: C_2  and  C_15
REMARK    4  A    between atoms: C_4  and  P_5
REMARK    5  A    between atoms: P_5  and  O_6
REMARK    6  A    between atoms: P_5  and  C_8
REMARK    7  A    between atoms: C_8  and  N_10
REMARK    8  A    between atoms: C_8  and  C_11
REMARK    9  A    between atoms: C_11  and  C_12
REMARK   10  A    between atoms: C_12  and  O_13
REMARK   11  A    between atoms: C_15  and  O_16
REMARK                            x       y       z     vdW  Elec       q    Type
REMARK                         _______ _______ _______ _____ _____    ______ ____
ROOT
ATOM      1  P   UNL     1       9.457  -2.098  23.095  0.00  0.00    +0.220 P 
ATOM      2  O   UNL     1      10.090  -3.139  23.974  0.00  0.00    -0.289 OA
ENDROOT
BRANCH   1   3
ATOM      3  O   UNL     1      10.325  -1.751  21.770  0.00  0.00    -0.343 OA
ATOM      4  H   UNL     1      11.290  -1.793  21.970  0.00  0.00    +0.218 HD
ENDBRANCH   1   3
BRANCH   1   5
ATOM      5  C   UNL     1       9.349  -0.497  23.877  0.00  0.00    +0.113 C 
BRANCH   5   7
ATOM      6  C   UNL     1      10.789   1.637  24.085  0.00  0.00    +0.020 C 
ATOM      7  C   UNL     1      10.079   0.646  23.161  0.00  0.00    +0.104 C 
BRANCH   7   8
ATOM      8  C   UNL     1       9.129   1.319  22.199  0.00  0.00    +0.308 C 
ATOM      9  O   UNL     1       7.915   1.172  22.259  0.00  0.00    -0.251 OA
BRANCH   8  10
ATOM     10  O   UNL     1       9.685   2.229  21.374  0.00  0.00    -0.480 OA
ATOM     11  H   UNL     1       9.940   3.101  21.773  0.00  0.00    +0.295 HD
ENDBRANCH   8  10
ENDBRANCH   7   8
ENDBRANCH   5   7
ENDBRANCH   1   5
BRANCH   1  12
ATOM     12  C   UNL     1       7.879  -2.681  22.390  0.00  0.00    +0.149 C 
BRANCH  12  13
ATOM     13  N   UNL     1       6.872  -1.659  22.797  0.00  0.00    -0.319 NA
ATOM     14  H   UNL     1       5.957  -2.133  22.805  0.00  0.00    +0.119 HD
ATOM     15  H   UNL     1       7.014  -1.495  23.808  0.00  0.00    +0.119 HD
ENDBRANCH  12  13
BRANCH  12  16
ATOM     16  C   UNL     1       7.510  -4.110  22.754  0.00  0.00    +0.148 C 
BRANCH  16  17
ATOM     17  C   UNL     1       6.580  -4.748  21.763  0.00  0.00    +0.307 C 
ATOM     18  O   UNL     1       6.825  -5.758  21.122  0.00  0.00    -0.251 OA
BRANCH  17  19
ATOM     19  O   UNL     1       5.423  -4.058  21.617  0.00  0.00    -0.481 OA
ATOM     20  H   UNL     1       4.701  -4.564  21.185  0.00  0.00    +0.295 HD
ENDBRANCH  17  19
ENDBRANCH  16  17
ENDBRANCH  12  16
ENDBRANCH   1  12
TORSDOF 10
ENDMDL
MODEL 5
REMARK VINA RESULT:      -4.8      2.849      5.893
REMARK  Name = 
REMARK  11 active torsions:
REMARK  status: ('A' for Active; 'I' for Inactive)
REMARK    1  A    between atoms: C_1  and  C_2
REMARK    2  A    between atoms: C_2  and  C_4
REMARK    3  A    between atoms: C_2  and  C_15
REMARK    4  A    between atoms: C_4  and  P_5
REMARK    5  A    between atoms: P_5  and  O_6
REMARK    6  A    between atoms: P_5  and  C_8
REMARK    7  A    between atoms: C_8  and  N_10
REMARK    8  A    between atoms: C_8  and  C_11
REMARK    9  A    between atoms: C_11  and  C_12
REMARK   10  A    between atoms: C_12  and  O_13
REMARK   11  A    between atoms: C_15  and  O_16
REMARK                            x       y       z     vdW  Elec       q    Type
REMARK                         _______ _______ _______ _____ _____    ______ ____
ROOT
ATOM      1  P   UNL     1       8.890  -2.426  23.540  0.00  0.00    +0.220 P 
ATOM      2  O   UNL     1      10.279  -2.930  23.809  0.00  0.00    -0.289 OA
ENDROOT
BRANCH   1   3
ATOM      3  O   UNL     1       8.278  -1.532  24.746  0.00  0.00    -0.343 OA
ATOM      4  H   UNL     1       8.771  -0.680  24.829  0.00  0.00    +0.218 HD
ENDBRANCH   1   3
BRANCH   1   5
ATOM      5  C   UNL     1       7.682  -3.735  23.423  0.00  0.00    +0.113 C 
BRANCH   5   7
ATOM      6  C   UNL     1       5.549  -3.134  22.095  0.00  0.00    +0.020 C 
ATOM      7  C   UNL     1       6.916  -3.821  22.096  0.00  0.00    +0.104 C 
BRANCH   7   8
ATOM      8  C   UNL     1       6.849  -5.263  21.652  0.00  0.00    +0.308 C 
ATOM      9  O   UNL     1       7.522  -6.145  22.169  0.00  0.00    -0.251 OA
BRANCH   8  10
ATOM     10  O   UNL     1       5.876  -5.552  20.765  0.00  0.00    -0.480 OA
ATOM     11  H   UNL     1       5.137  -4.896  20.678  0.00  0.00    +0.295 HD
ENDBRANCH   8  10
ENDBRANCH   7   8
ENDBRANCH   5   7
ENDBRANCH   1   5
BRANCH   1  12
ATOM     12  C   UNL     1       8.855  -1.265  22.134  0.00  0.00    +0.149 C 
BRANCH  12  13
ATOM     13  N   UNL     1      10.186  -1.410  21.477  0.00  0.00    -0.319 NA
ATOM     14  H   UNL     1      10.041  -1.992  20.639  0.00  0.00    +0.119 HD
ATOM     15  H   UNL     1      10.399  -0.496  21.044  0.00  0.00    +0.119 HD
ENDBRANCH  12  13
BRANCH  12  16
ATOM     16  C   UNL     1       8.484   0.164  22.499  0.00  0.00    +0.148 C 
BRANCH  16  17
ATOM     17  C   UNL     1       9.664   1.091  22.520  0.00  0.00    +0.307 C 
ATOM     18  O   UNL     1      10.489   1.154  23.418  0.00  0.00    -0.251 OA
BRANCH  17  19
ATOM     19  O   UNL     1       9.710   1.899  21.433  0.00  0.00    -0.481 OA
ATOM     20  H   UNL     1       9.713   1.423  20.574  0.00  0.00    +0.295 HD
ENDBRANCH  17  19
ENDBRANCH  16  17
ENDBRANCH  12  16
ENDBRANCH   1  12
TORSDOF 10
ENDMDL
MODEL 6
REMARK VINA RESULT:      -4.8      3.201      5.927
REMARK  Name = 
REMARK  11 active torsions:
REMARK  status: ('A' for Active; 'I' for Inactive)
REMARK    1  A    between atoms: C_1  and  C_2
REMARK    2  A    between atoms: C_2  and  C_4
REMARK    3  A    between atoms: C_2  and  C_15
REMARK    4  A    between atoms: C_4  and  P_5
REMARK    5  A    between atoms: P_5  and  O_6
REMARK    6  A    between atoms: P_5  and  C_8
REMARK    7  A    between atoms: C_8  and  N_10
REMARK    8  A    between atoms: C_8  and  C_11
REMARK    9  A    between atoms: C_11  and  C_12
REMARK   10  A    between atoms: C_12  and  O_13
REMARK   11  A    between atoms: C_15  and  O_16
REMARK                            x       y       z     vdW  Elec       q    Type
REMARK                         _______ _______ _______ _____ _____    ______ ____
ROOT
ATOM      1  P   UNL     1       8.050  -3.459  23.991  0.00  0.00    +0.220 P 
ATOM      2  O   UNL     1       9.435  -4.003  24.202  0.00  0.00    -0.289 OA
ENDROOT
BRANCH   1   3
ATOM      3  O   UNL     1       7.983  -1.839  23.976  0.00  0.00    -0.343 OA
ATOM      4  H   UNL     1       8.805  -1.464  23.579  0.00  0.00    +0.218 HD
ENDBRANCH   1   3
BRANCH   1   5
ATOM      5  C   UNL     1       6.937  -3.846  25.332  0.00  0.00    +0.113 C 
BRANCH   5   7
ATOM      6  C   UNL     1       5.564  -5.976  25.836  0.00  0.00    +0.020 C 
ATOM      7  C   UNL     1       6.939  -5.307  25.802  0.00  0.00    +0.104 C 
BRANCH   7   8
ATOM      8  C   UNL     1       7.673  -5.406  27.118  0.00  0.00    +0.308 C 
ATOM      9  O   UNL     1       7.209  -5.989  28.090  0.00  0.00    -0.251 OA
BRANCH   8  10
ATOM     10  O   UNL     1       8.945  -4.961  27.109  0.00  0.00    -0.480 OA
ATOM     11  H   UNL     1       9.088  -4.012  26.856  0.00  0.00    +0.295 HD
ENDBRANCH   8  10
ENDBRANCH   7   8
ENDBRANCH   5   7
ENDBRANCH   1   5
BRANCH   1  12
ATOM     12  C   UNL     1       7.399  -3.896  22.345  0.00  0.00    +0.149 C 
BRANCH  12  13
ATOM     13  N   UNL     1       6.144  -3.101  22.201  0.00  0.00    -0.319 NA
ATOM     14  H   UNL     1       5.617  -3.520  21.421  0.00  0.00    +0.119 HD
ATOM     15  H   UNL     1       5.542  -3.357  23.002  0.00  0.00    +0.119 HD
ENDBRANCH  12  13
BRANCH  12  16
ATOM     16  C   UNL     1       7.231  -5.388  22.103  0.00  0.00    +0.148 C 
BRANCH  16  17
ATOM     17  C   UNL     1       6.020  -5.718  21.279  0.00  0.00    +0.307 C 
ATOM     18  O   UNL     1       5.965  -5.659  20.061  0.00  0.00    -0.251 OA
BRANCH  17  19
ATOM     19  O   UNL     1       4.952  -6.063  22.040  0.00  0.00    -0.481 OA
ATOM     20  H   UNL     1       4.420  -6.805  21.678  0.00  0.00    +0.295 HD
ENDBRANCH  17  19
ENDBRANCH  16  17
ENDBRANCH  12  16
ENDBRANCH   1  12
TORSDOF 10
ENDMDL
MODEL 7
REMARK VINA RESULT:      -4.8      1.994      2.475
REMARK  Name = 
REMARK  11 active torsions:
REMARK  status: ('A' for Active; 'I' for Inactive)
REMARK    1  A    between atoms: C_1  and  C_2
REMARK    2  A    between atoms: C_2  and  C_4
REMARK    3  A    between atoms: C_2  and  C_15
REMARK    4  A    between atoms: C_4  and  P_5
REMARK    5  A    between atoms: P_5  and  O_6
REMARK    6  A    between atoms: P_5  and  C_8
REMARK    7  A    between atoms: C_8  and  N_10
REMARK    8  A    between atoms: C_8  and  C_11
REMARK    9  A    between atoms: C_11  and  C_12
REMARK   10  A    between atoms: C_12  and  O_13
REMARK   11  A    between atoms: C_15  and  O_16
REMARK                            x       y       z     vdW  Elec       q    Type
REMARK                         _______ _______ _______ _____ _____    ______ ____
ROOT
ATOM      1  P   UNL     1       8.845  -3.074  24.080  0.00  0.00    +0.220 P 
ATOM      2  O   UNL     1       8.047  -3.704  22.974  0.00  0.00    -0.289 OA
ENDROOT
BRANCH   1   3
ATOM      3  O   UNL     1       7.970  -2.104  25.041  0.00  0.00    -0.343 OA
ATOM      4  H   UNL     1       7.012  -2.167  24.814  0.00  0.00    +0.218 HD
ENDBRANCH   1   3
BRANCH   1   5
ATOM      5  C   UNL     1      10.095  -1.947  23.484  0.00  0.00    +0.113 C 
BRANCH   5   7
ATOM      6  C   UNL     1       9.833   0.162  22.016  0.00  0.00    +0.020 C 
ATOM      7  C   UNL     1       9.680  -0.473  23.400  0.00  0.00    +0.104 C 
BRANCH   7   8
ATOM      8  C   UNL     1      10.384   0.307  24.484  0.00  0.00    +0.308 C 
ATOM      9  O   UNL     1      11.203   1.184  24.241  0.00  0.00    -0.251 OA
BRANCH   8  10
ATOM     10  O   UNL     1       9.931   0.099  25.737  0.00  0.00    -0.480 OA
ATOM     11  H   UNL     1      10.093  -0.798  26.130  0.00  0.00    +0.295 HD
ENDBRANCH   8  10
ENDBRANCH   7   8
ENDBRANCH   5   7
ENDBRANCH   1   5
BRANCH   1  12
ATOM     12  C   UNL     1       9.477  -4.321  25.251  0.00  0.00    +0.149 C 
BRANCH  12  13
ATOM     13  N   UNL     1       9.443  -5.610  24.501  0.00  0.00    -0.319 NA
ATOM     14  H   UNL     1       9.079  -6.321  25.152  0.00  0.00    +0.119 HD
ATOM     15  H   UNL     1       8.656  -5.539  23.833  0.00  0.00    +0.119 HD
ENDBRANCH  12  13
BRANCH  12  16
ATOM     16  C   UNL     1       8.760  -4.352  26.592  0.00  0.00    +0.148 C 
BRANCH  16  17
ATOM     17  C   UNL     1       7.647  -5.359  26.641  0.00  0.00    +0.307 C 
ATOM     18  O   UNL     1       6.793  -5.500  25.780  0.00  0.00    -0.251 OA
BRANCH  17  19
ATOM     19  O   UNL     1       7.660  -6.094  27.780  0.00  0.00    -0.481 OA
ATOM     20  H   UNL     1       8.255  -5.746  28.480  0.00  0.00    +0.295 HD
ENDBRANCH  17  19
ENDBRANCH  16  17
ENDBRANCH  12  16
ENDBRANCH   1  12
TORSDOF 10
ENDMDL
MODEL 8
REMARK VINA RESULT:      -4.7      2.284      3.489
REMARK  Name = 
REMARK  11 active torsions:
REMARK  status: ('A' for Active; 'I' for Inactive)
REMARK    1  A    between atoms: C_1  and  C_2
REMARK    2  A    between atoms: C_2  and  C_4
REMARK    3  A    between atoms: C_2  and  C_15
REMARK    4  A    between atoms: C_4  and  P_5
REMARK    5  A    between atoms: P_5  and  O_6
REMARK    6  A    between atoms: P_5  and  C_8
REMARK    7  A    between atoms: C_8  and  N_10
REMARK    8  A    between atoms: C_8  and  C_11
REMARK    9  A    between atoms: C_11  and  C_12
REMARK   10  A    between atoms: C_12  and  O_13
REMARK   11  A    between atoms: C_15  and  O_16
REMARK                            x       y       z     vdW  Elec       q    Type
REMARK                         _______ _______ _______ _____ _____    ______ ____
ROOT
ATOM      1  P   UNL     1       8.417  -3.933  25.202  0.00  0.00    +0.220 P 
ATOM      2  O   UNL     1       8.249  -4.143  26.680  0.00  0.00    -0.289 OA
ENDROOT
BRANCH   1   3
ATOM      3  O   UNL     1       9.839  -4.461  24.629  0.00  0.00    -0.343 OA
ATOM      4  H   UNL     1      10.320  -3.729  24.174  0.00  0.00    +0.218 HD
ENDBRANCH   1   3
BRANCH   1   5
ATOM      5  C   UNL     1       8.470  -2.208  24.744  0.00  0.00    +0.113 C 
BRANCH   5   7
ATOM      6  C   UNL     1      10.256  -0.428  24.184  0.00  0.00    +0.020 C 
ATOM      7  C   UNL     1       9.645  -1.790  23.851  0.00  0.00    +0.104 C 
BRANCH   7   8
ATOM      8  C   UNL     1       9.238  -1.911  22.401  0.00  0.00    +0.308 C 
ATOM      9  O   UNL     1       8.095  -2.187  22.058  0.00  0.00    -0.251 OA
BRANCH   8  10
ATOM     10  O   UNL     1      10.167  -1.529  21.503  0.00  0.00    -0.480 OA
ATOM     11  H   UNL     1       9.970  -1.711  20.548  0.00  0.00    +0.295 HD
ENDBRANCH   8  10
ENDBRANCH   7   8
ENDBRANCH   5   7
ENDBRANCH   1   5
BRANCH   1  12
ATOM     12  C   UNL     1       7.217  -4.913  24.241  0.00  0.00    +0.149 C 
BRANCH  12  13
ATOM     13  N   UNL     1       7.913  -5.232  22.961  0.00  0.00    -0.319 NA
ATOM     14  H   UNL     1       7.275  -4.955  22.200  0.00  0.00    +0.119 HD
ATOM     15  H   UNL     1       8.662  -4.528  22.852  0.00  0.00    +0.119 HD
ENDBRANCH  12  13
BRANCH  12  16
ATOM     16  C   UNL     1       5.854  -4.259  24.071  0.00  0.00    +0.148 C 
BRANCH  16  17
ATOM     17  C   UNL     1       5.271  -4.461  22.703  0.00  0.00    +0.307 C 
ATOM     18  O   UNL     1       4.753  -5.494  22.307  0.00  0.00    -0.251 OA
BRANCH  17  19
ATOM     19  O   UNL     1       5.410  -3.368  21.911  0.00  0.00    -0.481 OA
ATOM     20  H   UNL     1       4.608  -2.804  21.857  0.00  0.00    +0.295 HD
ENDBRANCH  17  19
ENDBRANCH  16  17
ENDBRANCH  12  16
ENDBRANCH   1  12
TORSDOF 10
ENDMDL
MODEL 9
REMARK VINA RESULT:      -4.7      2.714      5.854
REMARK  Name = 
REMARK  11 active torsions:
REMARK  status: ('A' for Active; 'I' for Inactive)
REMARK    1  A    between atoms: C_1  and  C_2
REMARK    2  A    between atoms: C_2  and  C_4
REMARK    3  A    between atoms: C_2  and  C_15
REMARK    4  A    between atoms: C_4  and  P_5
REMARK    5  A    between atoms: P_5  and  O_6
REMARK    6  A    between atoms: P_5  and  C_8
REMARK    7  A    between atoms: C_8  and  N_10
REMARK    8  A    between atoms: C_8  and  C_11
REMARK    9  A    between atoms: C_11  and  C_12
REMARK   10  A    between atoms: C_12  and  O_13
REMARK   11  A    between atoms: C_15  and  O_16
REMARK                            x       y       z     vdW  Elec       q    Type
REMARK                         _______ _______ _______ _____ _____    ______ ____
ROOT
ATOM      1  P   UNL     1       9.218  -2.141  23.560  0.00  0.00    +0.220 P 
ATOM      2  O   UNL     1      10.203  -3.201  23.964  0.00  0.00    -0.289 OA
ENDROOT
BRANCH   1   3
ATOM      3  O   UNL     1       8.290  -1.617  24.782  0.00  0.00    -0.343 OA
ATOM      4  H   UNL     1       8.852  -1.284  25.523  0.00  0.00    +0.218 HD
ENDBRANCH   1   3
BRANCH   1   5
ATOM      5  C   UNL     1       7.987  -2.733  22.411  0.00  0.00    +0.113 C 
BRANCH   5   7
ATOM      6  C   UNL     1       7.178  -5.160  22.052  0.00  0.00    +0.020 C 
ATOM      7  C   UNL     1       7.114  -3.893  22.907  0.00  0.00    +0.104 C 
BRANCH   7   8
ATOM      8  C   UNL     1       5.702  -3.399  23.119  0.00  0.00    +0.308 C 
ATOM      9  O   UNL     1       5.444  -2.409  23.791  0.00  0.00    -0.251 OA
BRANCH   8  10
ATOM     10  O   UNL     1       4.755  -4.014  22.383  0.00  0.00    -0.480 OA
ATOM     11  H   UNL     1       3.838  -4.039  22.760  0.00  0.00    +0.295 HD
ENDBRANCH   8  10
ENDBRANCH   7   8
ENDBRANCH   5   7
ENDBRANCH   1   5
BRANCH   1  12
ATOM     12  C   UNL     1      10.055  -0.614  23.019  0.00  0.00    +0.149 C 
BRANCH  12  13
ATOM     13  N   UNL     1       9.796   0.376  24.104  0.00  0.00    -0.319 NA
ATOM     14  H   UNL     1      10.204  -0.016  24.966  0.00  0.00    +0.119 HD
ATOM     15  H   UNL     1      10.434   1.172  23.932  0.00  0.00    +0.119 HD
ENDBRANCH  12  13
BRANCH  12  16
ATOM     16  C   UNL     1       9.671  -0.139  21.627  0.00  0.00    +0.148 C 
BRANCH  16  17
ATOM     17  C   UNL     1       9.159   1.273  21.608  0.00  0.00    +0.307 C 
ATOM     18  O   UNL     1       7.980   1.590  21.591  0.00  0.00    -0.251 OA
BRANCH  17  19
ATOM     19  O   UNL     1      10.159   2.188  21.574  0.00  0.00    -0.481 OA
ATOM     20  H   UNL     1      10.799   2.062  20.840  0.00  0.00    +0.295 HD
ENDBRANCH  17  19
ENDBRANCH  16  17
ENDBRANCH  12  16
ENDBRANCH   1  12
TORSDOF 10
ENDMDL
