MODEL 1
REMARK VINA RESULT:      -4.3      0.000      0.000
REMARK  Name = 
REMARK  9 active torsions:
REMARK  status: ('A' for Active; 'I' for Inactive)
REMARK    1  A    between atoms: C_1  and  N_2
REMARK    2  A    between atoms: N_2  and  C_3
REMARK    3  A    between atoms: C_3  and  C_4
REMARK    4  A    between atoms: C_4  and  C_5
REMARK    5  A    between atoms: C_5  and  C_6
REMARK    6  A    between atoms: C_6  and  C_7
REMARK    7  A    between atoms: C_7  and  N_9
REMARK    8  A    between atoms: C_7  and  C_10
REMARK    9  A    between atoms: C_10  and  O_11
REMARK                            x       y       z     vdW  Elec       q    Type
REMARK                         _______ _______ _______ _____ _____    ______ ____
ROOT
ATOM      1  C   UNK     1      10.118  -1.775  23.486  0.00  0.00    +0.161 C 
ENDROOT
BRANCH   1   2
ATOM      2  N   UNK     1       9.982  -3.179  23.970  0.00  0.00    -0.318 NA
ATOM      3  H   UNK     1      10.591  -3.286  24.790  0.00  0.00    +0.119 HD
ATOM      4  H   UNK     1       9.040  -3.298  24.351  0.00  0.00    +0.119 HD
ENDBRANCH   1   2
BRANCH   1   5
ATOM      5  C   UNK     1       9.240  -1.619  22.234  0.00  0.00    +0.322 C 
ATOM      6  O   UNK     1       8.080  -1.986  22.136  0.00  0.00    -0.249 OA
BRANCH   5   7
ATOM      7  O   UNK     1       9.933  -1.036  21.220  0.00  0.00    -0.480 OA
ATOM      8  H   UNK     1       9.262  -0.564  20.666  0.00  0.00    +0.295 HD
ENDBRANCH   5   7
ENDBRANCH   1   5
BRANCH   1   9
ATOM      9  C   UNK     1       9.655  -0.764  24.545  0.00  0.00    +0.030 C 
BRANCH   9  10
ATOM     10  C   UNK     1      10.490   0.518  24.562  0.00  0.00    +0.003 C 
BRANCH  10  11
ATOM     11  C   UNK     1       9.696   1.720  24.038  0.00  0.00    +0.015 C 
BRANCH  11  12
ATOM     12  C   UNK     1      10.401   2.350  22.833  0.00  0.00    +0.080 C 
BRANCH  12  14
ATOM     13  C   UNK     1       8.259   2.020  21.791  0.00  0.00    +0.101 C 
ATOM     14  N   UNK     1       9.704   1.993  21.599  0.00  0.00    -0.319 NA
ATOM     15  H   UNK     1       9.957   2.645  20.858  0.00  0.00    +0.122 HD
ENDBRANCH  12  14
ENDBRANCH  11  12
ENDBRANCH  10  11
ENDBRANCH   9  10
ENDBRANCH   1   9
TORSDOF 8
ENDMDL
MODEL 2
REMARK VINA RESULT:      -4.0      3.430      4.486
REMARK  Name = 
REMARK  9 active torsions:
REMARK  status: ('A' for Active; 'I' for Inactive)
REMARK    1  A    between atoms: C_1  and  N_2
REMARK    2  A    between atoms: N_2  and  C_3
REMARK    3  A    between atoms: C_3  and  C_4
REMARK    4  A    between atoms: C_4  and  C_5
REMARK    5  A    between atoms: C_5  and  C_6
REMARK    6  A    between atoms: C_6  and  C_7
REMARK    7  A    between atoms: C_7  and  N_9
REMARK    8  A    between atoms: C_7  and  C_10
REMARK    9  A    between atoms: C_10  and  O_11
REMARK                            x       y       z     vdW  Elec       q    Type
REMARK                         _______ _______ _______ _____ _____    ______ ____
ROOT
ATOM      1  C   UNK     1       8.692  -4.545  26.561  0.00  0.00    +0.161 C 
ENDROOT
BRANCH   1   2
ATOM      2  N   UNK     1       7.958  -5.658  27.229  0.00  0.00    -0.318 NA
ATOM      3  H   UNK     1       6.973  -5.593  26.948  0.00  0.00    +0.119 HD
ATOM      4  H   UNK     1       8.271  -6.541  26.817  0.00  0.00    +0.119 HD
ENDBRANCH   1   2
BRANCH   1   5
ATOM      5  C   UNK     1       9.318  -5.098  25.270  0.00  0.00    +0.322 C 
ATOM      6  O   UNK     1       8.746  -5.200  24.197  0.00  0.00    -0.249 OA
BRANCH   5   7
ATOM      7  O   UNK     1      10.602  -5.493  25.480  0.00  0.00    -0.480 OA
ATOM      8  H   UNK     1      11.122  -4.664  25.626  0.00  0.00    +0.295 HD
ENDBRANCH   5   7
ENDBRANCH   1   5
BRANCH   1   9
ATOM      9  C   UNK     1       7.754  -3.385  26.199  0.00  0.00    +0.030 C 
BRANCH   9  10
ATOM     10  C   UNK     1       8.376  -2.007  26.441  0.00  0.00    +0.003 C 
BRANCH  10  11
ATOM     11  C   UNK     1       8.744  -1.311  25.127  0.00  0.00    +0.015 C 
BRANCH  11  12
ATOM     12  C   UNK     1       7.876  -1.832  23.977  0.00  0.00    +0.080 C 
BRANCH  12  14
ATOM     13  C   UNK     1      10.101  -1.938  23.073  0.00  0.00    +0.101 C 
ATOM     14  N   UNK     1       8.720  -2.377  22.916  0.00  0.00    -0.319 NA
ATOM     15  H   UNK     1       8.685  -3.395  22.936  0.00  0.00    +0.122 HD
ENDBRANCH  12  14
ENDBRANCH  11  12
ENDBRANCH  10  11
ENDBRANCH   9  10
ENDBRANCH   1   9
TORSDOF 8
ENDMDL
MODEL 3
REMARK VINA RESULT:      -3.9      3.450      4.297
REMARK  Name = 
REMARK  9 active torsions:
REMARK  status: ('A' for Active; 'I' for Inactive)
REMARK    1  A    between atoms: C_1  and  N_2
REMARK    2  A    between atoms: N_2  and  C_3
REMARK    3  A    between atoms: C_3  and  C_4
REMARK    4  A    between atoms: C_4  and  C_5
REMARK    5  A    between atoms: C_5  and  C_6
REMARK    6  A    between atoms: C_6  and  C_7
REMARK    7  A    between atoms: C_7  and  N_9
REMARK    8  A    between atoms: C_7  and  C_10
REMARK    9  A    between atoms: C_10  and  O_11
REMARK                            x       y       z     vdW  Elec       q    Type
REMARK                         _______ _______ _______ _____ _____    ______ ____
ROOT
ATOM      1  C   UNK     1       8.742  -5.208  24.726  0.00  0.00    +0.161 C 
ENDROOT
BRANCH   1   2
ATOM      2  N   UNK     1      10.163  -5.259  25.175  0.00  0.00    -0.318 NA
ATOM      3  H   UNK     1      10.261  -4.617  25.970  0.00  0.00    +0.119 HD
ATOM      4  H   UNK     1      10.336  -6.181  25.585  0.00  0.00    +0.119 HD
ENDBRANCH   1   2
BRANCH   1   5
ATOM      5  C   UNK     1       7.848  -5.279  25.975  0.00  0.00    +0.322 C 
ATOM      6  O   UNK     1       6.629  -5.332  25.967  0.00  0.00    -0.249 OA
BRANCH   5   7
ATOM      7  O   UNK     1       8.593  -5.249  27.111  0.00  0.00    -0.480 OA
ATOM      8  H   UNK     1       9.395  -4.708  26.899  0.00  0.00    +0.295 HD
ENDBRANCH   5   7
ENDBRANCH   1   5
BRANCH   1   9
ATOM      9  C   UNK     1       8.433  -3.909  23.969  0.00  0.00    +0.030 C 
BRANCH   9  10
ATOM     10  C   UNK     1       9.286  -2.724  24.430  0.00  0.00    +0.003 C 
BRANCH  10  11
ATOM     11  C   UNK     1      10.017  -2.061  23.258  0.00  0.00    +0.015 C 
BRANCH  11  12
ATOM     12  C   UNK     1       9.054  -1.797  22.097  0.00  0.00    +0.080 C 
BRANCH  12  14
ATOM     13  C   UNK     1       9.629   0.512  21.756  0.00  0.00    +0.101 C 
ATOM     14  N   UNK     1       9.632  -0.824  21.173  0.00  0.00    -0.319 NA
ATOM     15  H   UNK     1      10.589  -1.091  20.945  0.00  0.00    +0.122 HD
ENDBRANCH  12  14
ENDBRANCH  11  12
ENDBRANCH  10  11
ENDBRANCH   9  10
ENDBRANCH   1   9
TORSDOF 8
ENDMDL
MODEL 4
REMARK VINA RESULT:      -3.9      5.303      6.174
REMARK  Name = 
REMARK  9 active torsions:
REMARK  status: ('A' for Active; 'I' for Inactive)
REMARK    1  A    between atoms: C_1  and  N_2
REMARK    2  A    between atoms: N_2  and  C_3
REMARK    3  A    between atoms: C_3  and  C_4
REMARK    4  A    between atoms: C_4  and  C_5
REMARK    5  A    between atoms: C_5  and  C_6
REMARK    6  A    between atoms: C_6  and  C_7
REMARK    7  A    between atoms: C_7  and  N_9
REMARK    8  A    between atoms: C_7  and  C_10
REMARK    9  A    between atoms: C_10  and  O_11
REMARK                            x       y       z     vdW  Elec       q    Type
REMARK                         _______ _______ _______ _____ _____    ______ ____
ROOT
ATOM      1  C   UNK     1       8.338  -4.522  26.360  0.00  0.00    +0.161 C 
ENDROOT
BRANCH   1   2
ATOM      2  N   UNK     1       8.221  -5.775  27.160  0.00  0.00    -0.318 NA
ATOM      3  H   UNK     1       7.270  -5.809  27.546  0.00  0.00    +0.119 HD
ATOM      4  H   UNK     1       8.250  -6.570  26.516  0.00  0.00    +0.119 HD
ENDBRANCH   1   2
BRANCH   1   5
ATOM      5  C   UNK     1       9.333  -4.782  25.217  0.00  0.00    +0.322 C 
ATOM      6  O   UNK     1       9.593  -3.999  24.317  0.00  0.00    -0.249 OA
BRANCH   5   7
ATOM      7  O   UNK     1       9.879  -6.023  25.317  0.00  0.00    -0.480 OA
ATOM      8  H   UNK     1      10.834  -5.884  25.539  0.00  0.00    +0.295 HD
ENDBRANCH   5   7
ENDBRANCH   1   5
BRANCH   1   9
ATOM      9  C   UNK     1       6.989  -4.106  25.758  0.00  0.00    +0.030 C 
BRANCH   9  10
ATOM     10  C   UNK     1       6.088  -5.294  25.415  0.00  0.00    +0.003 C 
BRANCH  10  11
ATOM     11  C   UNK     1       5.771  -5.352  23.917  0.00  0.00    +0.015 C 
BRANCH  11  12
ATOM     12  C   UNK     1       6.263  -4.087  23.209  0.00  0.00    +0.080 C 
BRANCH  12  14
ATOM     13  C   UNK     1       7.214  -5.861  21.894  0.00  0.00    +0.101 C 
ATOM     14  N   UNK     1       7.247  -4.433  22.184  0.00  0.00    -0.319 NA
ATOM     15  H   UNK     1       7.054  -3.910  21.331  0.00  0.00    +0.122 HD
ENDBRANCH  12  14
ENDBRANCH  11  12
ENDBRANCH  10  11
ENDBRANCH   9  10
ENDBRANCH   1   9
TORSDOF 8
ENDMDL
MODEL 5
REMARK VINA RESULT:      -3.9      5.380      6.631
REMARK  Name = 
REMARK  9 active torsions:
REMARK  status: ('A' for Active; 'I' for Inactive)
REMARK    1  A    between atoms: C_1  and  N_2
REMARK    2  A    between atoms: N_2  and  C_3
REMARK    3  A    between atoms: C_3  and  C_4
REMARK    4  A    between atoms: C_4  and  C_5
REMARK    5  A    between atoms: C_5  and  C_6
REMARK    6  A    between atoms: C_6  and  C_7
REMARK    7  A    between atoms: C_7  and  N_9
REMARK    8  A    between atoms: C_7  and  C_10
REMARK    9  A    between atoms: C_10  and  O_11
REMARK                            x       y       z     vdW  Elec       q    Type
REMARK                         _______ _______ _______ _____ _____    ______ ____
ROOT
ATOM      1  C   UNK     1       8.791  -5.183  25.199  0.00  0.00    +0.161 C 
ENDROOT
BRANCH   1   2
ATOM      2  N   UNK     1      10.207  -5.616  25.379  0.00  0.00    -0.318 NA
ATOM      3  H   UNK     1      10.440  -5.511  26.374  0.00  0.00    +0.119 HD
ATOM      4  H   UNK     1      10.256  -6.627  25.224  0.00  0.00    +0.119 HD
ENDBRANCH   1   2
BRANCH   1   5
ATOM      5  C   UNK     1       8.186  -4.952  26.593  0.00  0.00    +0.322 C 
ATOM      6  O   UNK     1       7.893  -3.865  27.063  0.00  0.00    -0.249 OA
BRANCH   5   7
ATOM      7  O   UNK     1       8.038  -6.126  27.262  0.00  0.00    -0.480 OA
ATOM      8  H   UNK     1       7.737  -5.885  28.174  0.00  0.00    +0.295 HD
ENDBRANCH   5   7
ENDBRANCH   1   5
BRANCH   1   9
ATOM      9  C   UNK     1       8.695  -3.879  24.395  0.00  0.00    +0.030 C 
BRANCH   9  10
ATOM     10  C   UNK     1       7.913  -4.031  23.088  0.00  0.00    +0.003 C 
BRANCH  10  11
ATOM     11  C   UNK     1       7.333  -5.441  22.934  0.00  0.00    +0.015 C 
BRANCH  11  12
ATOM     12  C   UNK     1       6.794  -5.653  21.517  0.00  0.00    +0.080 C 
BRANCH  12  14
ATOM     13  C   UNK     1       4.776  -5.719  22.823  0.00  0.00    +0.101 C 
ATOM     14  N   UNK     1       5.407  -6.112  21.569  0.00  0.00    -0.319 NA
ATOM     15  H   UNK     1       4.883  -5.718  20.789  0.00  0.00    +0.122 HD
ENDBRANCH  12  14
ENDBRANCH  11  12
ENDBRANCH  10  11
ENDBRANCH   9  10
ENDBRANCH   1   9
TORSDOF 8
ENDMDL
MODEL 6
REMARK VINA RESULT:      -3.9      1.570      1.808
REMARK  Name = 
REMARK  9 active torsions:
REMARK  status: ('A' for Active; 'I' for Inactive)
REMARK    1  A    between atoms: C_1  and  N_2
REMARK    2  A    between atoms: N_2  and  C_3
REMARK    3  A    between atoms: C_3  and  C_4
REMARK    4  A    between atoms: C_4  and  C_5
REMARK    5  A    between atoms: C_5  and  C_6
REMARK    6  A    between atoms: C_6  and  C_7
REMARK    7  A    between atoms: C_7  and  N_9
REMARK    8  A    between atoms: C_7  and  C_10
REMARK    9  A    between atoms: C_10  and  O_11
REMARK                            x       y       z     vdW  Elec       q    Type
REMARK                         _______ _______ _______ _____ _____    ______ ____
ROOT
ATOM      1  C   UNK     1       9.423  -1.129  22.965  0.00  0.00    +0.161 C 
ENDROOT
BRANCH   1   2
ATOM      2  N   UNK     1       9.721  -1.102  21.504  0.00  0.00    -0.318 NA
ATOM      3  H   UNK     1      10.520  -1.725  21.338  0.00  0.00    +0.119 HD
ATOM      4  H   UNK     1       8.950  -1.560  21.011  0.00  0.00    +0.119 HD
ENDBRANCH   1   2
BRANCH   1   5
ATOM      5  C   UNK     1       9.302  -2.600  23.396  0.00  0.00    +0.322 C 
ATOM      6  O   UNK     1      10.139  -3.219  24.032  0.00  0.00    -0.249 OA
BRANCH   5   7
ATOM      7  O   UNK     1       8.139  -3.145  22.952  0.00  0.00    -0.480 OA
ATOM      8  H   UNK     1       8.134  -4.081  23.276  0.00  0.00    +0.295 HD
ENDBRANCH   5   7
ENDBRANCH   1   5
BRANCH   1   9
ATOM      9  C   UNK     1      10.538  -0.463  23.783  0.00  0.00    +0.030 C 
BRANCH   9  10
ATOM     10  C   UNK     1      10.024   0.614  24.742  0.00  0.00    +0.003 C 
BRANCH  10  11
ATOM     11  C   UNK     1       9.327   1.755  23.993  0.00  0.00    +0.015 C 
BRANCH  11  12
ATOM     12  C   UNK     1      10.240   2.324  22.903  0.00  0.00    +0.080 C 
BRANCH  12  14
ATOM     13  C   UNK     1       8.148   2.169  21.729  0.00  0.00    +0.101 C 
ATOM     14  N   UNK     1       9.599   2.205  21.595  0.00  0.00    -0.319 NA
ATOM     15  H   UNK     1       9.864   2.994  21.008  0.00  0.00    +0.122 HD
ENDBRANCH  12  14
ENDBRANCH  11  12
ENDBRANCH  10  11
ENDBRANCH   9  10
ENDBRANCH   1   9
TORSDOF 8
ENDMDL
MODEL 7
REMARK VINA RESULT:      -3.9      4.096      5.515
REMARK  Name = 
REMARK  9 active torsions:
REMARK  status: ('A' for Active; 'I' for Inactive)
REMARK    1  A    between atoms: C_1  and  N_2
REMARK    2  A    between atoms: N_2  and  C_3
REMARK    3  A    between atoms: C_3  and  C_4
REMARK    4  A    between atoms: C_4  and  C_5
REMARK    5  A    between atoms: C_5  and  C_6
REMARK    6  A    between atoms: C_6  and  C_7
REMARK    7  A    between atoms: C_7  and  N_9
REMARK    8  A    between atoms: C_7  and  C_10
REMARK    9  A    between atoms: C_10  and  O_11
REMARK                            x       y       z     vdW  Elec       q    Type
REMARK                         _______ _______ _______ _____ _____    ______ ____
ROOT
ATOM      1  C   UNK     1       8.387  -4.519  26.444  0.00  0.00    +0.161 C 
ENDROOT
BRANCH   1   2
ATOM      2  N   UNK     1       8.122  -5.738  27.263  0.00  0.00    -0.318 NA
ATOM      3  H   UNK     1       7.111  -5.779  27.440  0.00  0.00    +0.119 HD
ATOM      4  H   UNK     1       8.299  -6.560  26.680  0.00  0.00    +0.119 HD
ENDBRANCH   1   2
BRANCH   1   5
ATOM      5  C   UNK     1       9.472  -4.870  25.412  0.00  0.00    +0.322 C 
ATOM      6  O   UNK     1       9.882  -4.122  24.540  0.00  0.00    -0.249 OA
BRANCH   5   7
ATOM      7  O   UNK     1       9.908  -6.147  25.576  0.00  0.00    -0.480 OA
ATOM      8  H   UNK     1       9.095  -6.704  25.667  0.00  0.00    +0.295 HD
ENDBRANCH   5   7
ENDBRANCH   1   5
BRANCH   1   9
ATOM      9  C   UNK     1       7.128  -4.052  25.700  0.00  0.00    +0.030 C 
BRANCH   9  10
ATOM     10  C   UNK     1       6.441  -5.170  24.914  0.00  0.00    +0.003 C 
BRANCH  10  11
ATOM     11  C   UNK     1       6.380  -4.856  23.415  0.00  0.00    +0.015 C 
BRANCH  11  12
ATOM     12  C   UNK     1       6.627  -3.366  23.164  0.00  0.00    +0.080 C 
BRANCH  12  14
ATOM     13  C   UNK     1       8.296  -1.808  22.408  0.00  0.00    +0.101 C 
ATOM     14  N   UNK     1       7.824  -3.185  22.343  0.00  0.00    -0.319 NA
ATOM     15  H   UNK     1       8.561  -3.810  22.666  0.00  0.00    +0.122 HD
ENDBRANCH  12  14
ENDBRANCH  11  12
ENDBRANCH  10  11
ENDBRANCH   9  10
ENDBRANCH   1   9
TORSDOF 8
ENDMDL
MODEL 8
REMARK VINA RESULT:      -3.8      1.809      3.649
REMARK  Name = 
REMARK  9 active torsions:
REMARK  status: ('A' for Active; 'I' for Inactive)
REMARK    1  A    between atoms: C_1  and  N_2
REMARK    2  A    between atoms: N_2  and  C_3
REMARK    3  A    between atoms: C_3  and  C_4
REMARK    4  A    between atoms: C_4  and  C_5
REMARK    5  A    between atoms: C_5  and  C_6
REMARK    6  A    between atoms: C_6  and  C_7
REMARK    7  A    between atoms: C_7  and  N_9
REMARK    8  A    between atoms: C_7  and  C_10
REMARK    9  A    between atoms: C_10  and  O_11
REMARK                            x       y       z     vdW  Elec       q    Type
REMARK                         _______ _______ _______ _____ _____    ______ ____
ROOT
ATOM      1  C   UNK     1       9.171   2.487  23.115  0.00  0.00    +0.161 C 
ENDROOT
BRANCH   1   2
ATOM      2  N   UNK     1      10.488   2.806  22.491  0.00  0.00    -0.318 NA
ATOM      3  H   UNK     1      11.179   2.150  22.872  0.00  0.00    +0.119 HD
ATOM      4  H   UNK     1      10.440   2.559  21.499  0.00  0.00    +0.119 HD
ENDBRANCH   1   2
BRANCH   1   5
ATOM      5  C   UNK     1       8.297   1.802  22.051  0.00  0.00    +0.322 C 
ATOM      6  O   UNK     1       7.092   1.631  22.133  0.00  0.00    -0.249 OA
BRANCH   5   7
ATOM      7  O   UNK     1       9.049   1.379  21.000  0.00  0.00    -0.480 OA
ATOM      8  H   UNK     1       8.450   0.821  20.443  0.00  0.00    +0.295 HD
ENDBRANCH   5   7
ENDBRANCH   1   5
BRANCH   1   9
ATOM      9  C   UNK     1       9.326   1.540  24.313  0.00  0.00    +0.030 C 
BRANCH   9  10
ATOM     10  C   UNK     1      10.486   0.554  24.157  0.00  0.00    +0.003 C 
BRANCH  10  11
ATOM     11  C   UNK     1       9.987  -0.880  23.946  0.00  0.00    +0.015 C 
BRANCH  11  12
ATOM     12  C   UNK     1      10.529  -1.455  22.635  0.00  0.00    +0.080 C 
BRANCH  12  14
ATOM     13  C   UNK     1       8.211  -1.966  22.253  0.00  0.00    +0.101 C 
ATOM     14  N   UNK     1       9.461  -1.534  21.640  0.00  0.00    -0.319 NA
ATOM     15  H   UNK     1       9.327  -0.623  21.204  0.00  0.00    +0.122 HD
ENDBRANCH  12  14
ENDBRANCH  11  12
ENDBRANCH  10  11
ENDBRANCH   9  10
ENDBRANCH   1   9
TORSDOF 8
ENDMDL
MODEL 9
REMARK VINA RESULT:      -3.7      6.059      7.831
REMARK  Name = 
REMARK  9 active torsions:
REMARK  status: ('A' for Active; 'I' for Inactive)
REMARK    1  A    between atoms: C_1  and  N_2
REMARK    2  A    between atoms: N_2  and  C_3
REMARK    3  A    between atoms: C_3  and  C_4
REMARK    4  A    between atoms: C_4  and  C_5
REMARK    5  A    between atoms: C_5  and  C_6
REMARK    6  A    between atoms: C_6  and  C_7
REMARK    7  A    between atoms: C_7  and  N_9
REMARK    8  A    between atoms: C_7  and  C_10
REMARK    9  A    between atoms: C_10  and  O_11
REMARK                            x       y       z     vdW  Elec       q    Type
REMARK                         _______ _______ _______ _____ _____    ______ ____
ROOT
ATOM      1  C   UNK     1       8.165  -4.681  26.001  0.00  0.00    +0.161 C 
ENDROOT
BRANCH   1   2
ATOM      2  N   UNK     1       8.319  -5.686  27.093  0.00  0.00    -0.318 NA
ATOM      3  H   UNK     1       7.476  -5.641  27.678  0.00  0.00    +0.119 HD
ATOM      4  H   UNK     1       8.277  -6.620  26.677  0.00  0.00    +0.119 HD
ENDBRANCH   1   2
BRANCH   1   5
ATOM      5  C   UNK     1       9.462  -4.676  25.177  0.00  0.00    +0.322 C 
ATOM      6  O   UNK     1       9.785  -3.813  24.376  0.00  0.00    -0.249 OA
BRANCH   5   7
ATOM      7  O   UNK     1      10.209  -5.783  25.433  0.00  0.00    -0.480 OA
ATOM      8  H   UNK     1       9.613  -6.409  25.915  0.00  0.00    +0.295 HD
ENDBRANCH   5   7
ENDBRANCH   1   5
BRANCH   1   9
ATOM      9  C   UNK     1       6.990  -5.027  25.075  0.00  0.00    +0.030 C 
BRANCH   9  10
ATOM     10  C   UNK     1       5.646  -5.089  25.803  0.00  0.00    +0.003 C 
BRANCH  10  11
ATOM     11  C   UNK     1       4.980  -6.461  25.650  0.00  0.00    +0.015 C 
BRANCH  11  12
ATOM     12  C   UNK     1       4.660  -6.748  24.181  0.00  0.00    +0.080 C 
BRANCH  12  14
ATOM     13  C   UNK     1       2.760  -7.747  25.263  0.00  0.00    +0.101 C 
ATOM     14  N   UNK     1       3.614  -7.763  24.082  0.00  0.00    -0.319 NA
ATOM     15  H   UNK     1       3.046  -7.595  23.253  0.00  0.00    +0.122 HD
ENDBRANCH  12  14
ENDBRANCH  11  12
ENDBRANCH  10  11
ENDBRANCH   9  10
ENDBRANCH   1   9
TORSDOF 8
ENDMDL
