MODEL 1
REMARK VINA RESULT:      -4.4      0.000      0.000
REMARK  Name = 
REMARK  4 active torsions:
REMARK  status: ('A' for Active; 'I' for Inactive)
REMARK    1  A    between atoms: C_1  and  C_2
REMARK    2  A    between atoms: C_5  and  O_7
REMARK    3  A    between atoms: C_8  and  O_10
REMARK    4  A    between atoms: C_11  and  O_13
REMARK                            x       y       z     vdW  Elec       q    Type
REMARK                         _______ _______ _______ _____ _____    ______ ____
ROOT
ATOM      1  C   UNL     1       5.567  -2.515  24.680  0.00  0.00    +0.038 C 
ATOM      2  C   UNL     1       6.632  -3.595  24.764  0.00  0.00    +0.121 C 
ATOM      3  O   UNL     1       7.901  -2.992  24.494  0.00  0.00    -0.346 OA
ATOM      4  C   UNL     1       8.948  -3.955  24.413  0.00  0.00    +0.279 C 
ATOM      5  C   UNL     1       9.107  -4.684  25.761  0.00  0.00    +0.198 C 
ATOM      6  C   UNL     1       7.768  -5.292  26.189  0.00  0.00    +0.150 C 
ATOM      7  C   UNL     1       6.660  -4.250  26.143  0.00  0.00    +0.065 C 
ENDROOT
BRANCH   4   8
ATOM      8  O   UNL     1      10.164  -3.299  24.065  0.00  0.00    -0.365 OA
ATOM      9  H   UNL     1       9.909  -2.423  23.725  0.00  0.00    +0.213 HD
ENDBRANCH   4   8
BRANCH   5  10
ATOM     10  O   UNL     1      10.102  -5.712  25.650  0.00  0.00    -0.384 OA
ATOM     11  H   UNL     1      10.954  -5.239  25.579  0.00  0.00    +0.210 HD
ENDBRANCH   5  10
BRANCH   6  12
ATOM     12  O   UNL     1       7.911  -5.831  27.506  0.00  0.00    -0.389 OA
ATOM     13  H   UNL     1       8.809  -6.201  27.583  0.00  0.00    +0.210 HD
ENDBRANCH   6  12
TORSDOF 3
ENDMDL
MODEL 2
REMARK VINA RESULT:      -4.4      1.462      2.194
REMARK  Name = 
REMARK  4 active torsions:
REMARK  status: ('A' for Active; 'I' for Inactive)
REMARK    1  A    between atoms: C_1  and  C_2
REMARK    2  A    between atoms: C_5  and  O_7
REMARK    3  A    between atoms: C_8  and  O_10
REMARK    4  A    between atoms: C_11  and  O_13
REMARK                            x       y       z     vdW  Elec       q    Type
REMARK                         _______ _______ _______ _____ _____    ______ ____
ROOT
ATOM      1  C   UNL     1       7.569  -3.669  22.369  0.00  0.00    +0.038 C 
ATOM      2  C   UNL     1       7.538  -4.529  23.621  0.00  0.00    +0.121 C 
ATOM      3  O   UNL     1       8.856  -4.554  24.177  0.00  0.00    -0.346 OA
ATOM      4  C   UNL     1       8.958  -5.451  25.279  0.00  0.00    +0.279 C 
ATOM      5  C   UNL     1       8.029  -4.999  26.422  0.00  0.00    +0.198 C 
ATOM      6  C   UNL     1       6.594  -4.852  25.902  0.00  0.00    +0.150 C 
ATOM      7  C   UNL     1       6.557  -3.982  24.654  0.00  0.00    +0.065 C 
ENDROOT
BRANCH   4   8
ATOM      8  O   UNL     1      10.308  -5.486  25.733  0.00  0.00    -0.365 OA
ATOM      9  H   UNL     1      10.860  -5.311  24.949  0.00  0.00    +0.213 HD
ENDBRANCH   4   8
BRANCH   5  10
ATOM     10  O   UNL     1       8.068  -5.952  27.494  0.00  0.00    -0.384 OA
ATOM     11  H   UNL     1       7.326  -5.709  28.082  0.00  0.00    +0.210 HD
ENDBRANCH   5  10
BRANCH   6  12
ATOM     12  O   UNL     1       5.788  -4.292  26.943  0.00  0.00    -0.389 OA
ATOM     13  H   UNL     1       5.926  -3.328  26.943  0.00  0.00    +0.210 HD
ENDBRANCH   6  12
TORSDOF 3
ENDMDL
MODEL 3
REMARK VINA RESULT:      -4.3      4.789      6.056
REMARK  Name = 
REMARK  4 active torsions:
REMARK  status: ('A' for Active; 'I' for Inactive)
REMARK    1  A    between atoms: C_1  and  C_2
REMARK    2  A    between atoms: C_5  and  O_7
REMARK    3  A    between atoms: C_8  and  O_10
REMARK    4  A    between atoms: C_11  and  O_13
REMARK                            x       y       z     vdW  Elec       q    Type
REMARK                         _______ _______ _______ _____ _____    ______ ____
ROOT
ATOM      1  C   UNL     1      10.292   3.495  23.477  0.00  0.00    +0.038 C 
ATOM      2  C   UNL     1      10.531   1.997  23.564  0.00  0.00    +0.121 C 
ATOM      3  O   UNL     1       9.834   1.500  24.710  0.00  0.00    -0.346 OA
ATOM      4  C   UNL     1      10.113   0.124  24.954  0.00  0.00    +0.279 C 
ATOM      5  C   UNL     1       9.637  -0.735  23.767  0.00  0.00    +0.198 C 
ATOM      6  C   UNL     1      10.261  -0.221  22.465  0.00  0.00    +0.150 C 
ATOM      7  C   UNL     1      10.038   1.276  22.312  0.00  0.00    +0.065 C 
ENDROOT
BRANCH   4   8
ATOM      8  O   UNL     1       9.452  -0.284  26.148  0.00  0.00    -0.365 OA
ATOM      9  H   UNL     1       9.786   0.299  26.853  0.00  0.00    +0.213 HD
ENDBRANCH   4   8
BRANCH   5  10
ATOM     10  O   UNL     1       9.998  -2.108  23.978  0.00  0.00    -0.384 OA
ATOM     11  H   UNL     1       9.453  -2.617  23.346  0.00  0.00    +0.210 HD
ENDBRANCH   5  10
BRANCH   6  12
ATOM     12  O   UNL     1       9.689  -0.941  21.369  0.00  0.00    -0.389 OA
ATOM     13  H   UNL     1       9.727  -0.368  20.582  0.00  0.00    +0.210 HD
ENDBRANCH   6  12
TORSDOF 3
ENDMDL
MODEL 4
REMARK VINA RESULT:      -4.2      4.772      6.390
REMARK  Name = 
REMARK  4 active torsions:
REMARK  status: ('A' for Active; 'I' for Inactive)
REMARK    1  A    between atoms: C_1  and  C_2
REMARK    2  A    between atoms: C_5  and  O_7
REMARK    3  A    between atoms: C_8  and  O_10
REMARK    4  A    between atoms: C_11  and  O_13
REMARK                            x       y       z     vdW  Elec       q    Type
REMARK                         _______ _______ _______ _____ _____    ______ ____
ROOT
ATOM      1  C   UNL     1       8.486  -2.247  22.216  0.00  0.00    +0.038 C 
ATOM      2  C   UNL     1       8.606  -0.817  22.715  0.00  0.00    +0.121 C 
ATOM      3  O   UNL     1       9.318  -0.835  23.956  0.00  0.00    -0.346 OA
ATOM      4  C   UNL     1       9.359   0.448  24.572  0.00  0.00    +0.279 C 
ATOM      5  C   UNL     1      10.109   1.448  23.672  0.00  0.00    +0.198 C 
ATOM      6  C   UNL     1       9.476   1.475  22.277  0.00  0.00    +0.150 C 
ATOM      7  C   UNL     1       9.346   0.067  21.714  0.00  0.00    +0.065 C 
ENDROOT
BRANCH   4   8
ATOM      8  O   UNL     1      10.010   0.343  25.834  0.00  0.00    -0.365 OA
ATOM      9  H   UNL     1       9.738   1.128  26.343  0.00  0.00    +0.213 HD
ENDBRANCH   4   8
BRANCH   5  10
ATOM     10  O   UNL     1      10.073   2.759  24.255  0.00  0.00    -0.384 OA
ATOM     11  H   UNL     1       9.286   3.191  23.868  0.00  0.00    +0.210 HD
ENDBRANCH   5  10
BRANCH   6  12
ATOM     12  O   UNL     1      10.281   2.296  21.425  0.00  0.00    -0.389 OA
ATOM     13  H   UNL     1      10.482   1.786  20.620  0.00  0.00    +0.210 HD
ENDBRANCH   6  12
TORSDOF 3
ENDMDL
MODEL 5
REMARK VINA RESULT:      -4.2      4.853      6.296
REMARK  Name = 
REMARK  4 active torsions:
REMARK  status: ('A' for Active; 'I' for Inactive)
REMARK    1  A    between atoms: C_1  and  C_2
REMARK    2  A    between atoms: C_5  and  O_7
REMARK    3  A    between atoms: C_8  and  O_10
REMARK    4  A    between atoms: C_11  and  O_13
REMARK                            x       y       z     vdW  Elec       q    Type
REMARK                         _______ _______ _______ _____ _____    ______ ____
ROOT
ATOM      1  C   UNL     1       8.902  -1.533  25.497  0.00  0.00    +0.038 C 
ATOM      2  C   UNL     1       9.586  -0.545  24.567  0.00  0.00    +0.121 C 
ATOM      3  O   UNL     1       9.177  -0.837  23.228  0.00  0.00    -0.346 OA
ATOM      4  C   UNL     1       9.876  -0.049  22.269  0.00  0.00    +0.279 C 
ATOM      5  C   UNL     1       9.574   1.447  22.484  0.00  0.00    +0.198 C 
ATOM      6  C   UNL     1       9.893   1.843  23.930  0.00  0.00    +0.150 C 
ATOM      7  C   UNL     1       9.218   0.896  24.912  0.00  0.00    +0.065 C 
ENDROOT
BRANCH   4   8
ATOM      8  O   UNL     1       9.481  -0.443  20.958  0.00  0.00    -0.365 OA
ATOM      9  H   UNL     1       9.791  -1.359  20.848  0.00  0.00    +0.213 HD
ENDBRANCH   4   8
BRANCH   5  10
ATOM     10  O   UNL     1      10.347   2.242  21.573  0.00  0.00    -0.384 OA
ATOM     11  H   UNL     1      10.967   1.617  21.149  0.00  0.00    +0.210 HD
ENDBRANCH   5  10
BRANCH   6  12
ATOM     12  O   UNL     1       9.465   3.191  24.139  0.00  0.00    -0.389 OA
ATOM     13  H   UNL     1       9.055   3.507  23.313  0.00  0.00    +0.210 HD
ENDBRANCH   6  12
TORSDOF 3
ENDMDL
MODEL 6
REMARK VINA RESULT:      -4.1      1.552      2.969
REMARK  Name = 
REMARK  4 active torsions:
REMARK  status: ('A' for Active; 'I' for Inactive)
REMARK    1  A    between atoms: C_1  and  C_2
REMARK    2  A    between atoms: C_5  and  O_7
REMARK    3  A    between atoms: C_8  and  O_10
REMARK    4  A    between atoms: C_11  and  O_13
REMARK                            x       y       z     vdW  Elec       q    Type
REMARK                         _______ _______ _______ _____ _____    ______ ____
ROOT
ATOM      1  C   UNL     1       6.478  -1.594  26.707  0.00  0.00    +0.038 C 
ATOM      2  C   UNL     1       7.742  -2.396  26.450  0.00  0.00    +0.121 C 
ATOM      3  O   UNL     1       7.444  -3.779  26.662  0.00  0.00    -0.346 OA
ATOM      4  C   UNL     1       8.606  -4.599  26.580  0.00  0.00    +0.279 C 
ATOM      5  C   UNL     1       9.221  -4.514  25.170  0.00  0.00    +0.198 C 
ATOM      6  C   UNL     1       9.494  -3.051  24.805  0.00  0.00    +0.150 C 
ATOM      7  C   UNL     1       8.254  -2.196  25.025  0.00  0.00    +0.065 C 
ENDROOT
BRANCH   4   8
ATOM      8  O   UNL     1       8.253  -5.946  26.879  0.00  0.00    -0.365 OA
ATOM      9  H   UNL     1       8.113  -5.980  27.842  0.00  0.00    +0.213 HD
ENDBRANCH   4   8
BRANCH   5  10
ATOM     10  O   UNL     1      10.439  -5.271  25.116  0.00  0.00    -0.384 OA
ATOM     11  H   UNL     1      10.891  -5.090  25.964  0.00  0.00    +0.210 HD
ENDBRANCH   5  10
BRANCH   6  12
ATOM     12  O   UNL     1       9.923  -2.992  23.442  0.00  0.00    -0.389 OA
ATOM     13  H   UNL     1      10.887  -2.852  23.436  0.00  0.00    +0.210 HD
ENDBRANCH   6  12
TORSDOF 3
ENDMDL
MODEL 7
REMARK VINA RESULT:      -4.1      4.791      6.188
REMARK  Name = 
REMARK  4 active torsions:
REMARK  status: ('A' for Active; 'I' for Inactive)
REMARK    1  A    between atoms: C_1  and  C_2
REMARK    2  A    between atoms: C_5  and  O_7
REMARK    3  A    between atoms: C_8  and  O_10
REMARK    4  A    between atoms: C_11  and  O_13
REMARK                            x       y       z     vdW  Elec       q    Type
REMARK                         _______ _______ _______ _____ _____    ______ ____
ROOT
ATOM      1  C   UNL     1       8.598  -0.953  25.972  0.00  0.00    +0.038 C 
ATOM      2  C   UNL     1       8.606  -0.165  24.673  0.00  0.00    +0.121 C 
ATOM      3  O   UNL     1       9.409   1.003  24.865  0.00  0.00    -0.346 OA
ATOM      4  C   UNL     1       9.364   1.878  23.741  0.00  0.00    +0.279 C 
ATOM      5  C   UNL     1       9.934   1.175  22.495  0.00  0.00    +0.198 C 
ATOM      6  C   UNL     1       9.196  -0.146  22.254  0.00  0.00    +0.150 C 
ATOM      7  C   UNL     1       9.170  -0.991  23.520  0.00  0.00    +0.065 C 
ENDROOT
BRANCH   4   8
ATOM      8  O   UNL     1      10.118   3.052  24.029  0.00  0.00    -0.365 OA
ATOM      9  H   UNL     1      10.071   3.172  24.994  0.00  0.00    +0.213 HD
ENDBRANCH   4   8
BRANCH   5  10
ATOM     10  O   UNL     1       9.806   2.027  21.347  0.00  0.00    -0.384 OA
ATOM     11  H   UNL     1       8.905   2.400  21.403  0.00  0.00    +0.210 HD
ENDBRANCH   5  10
BRANCH   6  12
ATOM     12  O   UNL     1       9.843  -0.843  21.185  0.00  0.00    -0.389 OA
ATOM     13  H   UNL     1       9.191  -0.969  20.472  0.00  0.00    +0.210 HD
ENDBRANCH   6  12
TORSDOF 3
ENDMDL
MODEL 8
REMARK VINA RESULT:      -4.0      3.272      4.780
REMARK  Name = 
REMARK  4 active torsions:
REMARK  status: ('A' for Active; 'I' for Inactive)
REMARK    1  A    between atoms: C_1  and  C_2
REMARK    2  A    between atoms: C_5  and  O_7
REMARK    3  A    between atoms: C_8  and  O_10
REMARK    4  A    between atoms: C_11  and  O_13
REMARK                            x       y       z     vdW  Elec       q    Type
REMARK                         _______ _______ _______ _____ _____    ______ ____
ROOT
ATOM      1  C   UNL     1       8.697  -4.055  24.433  0.00  0.00    +0.038 C 
ATOM      2  C   UNL     1       9.450  -2.769  24.136  0.00  0.00    +0.121 C 
ATOM      3  O   UNL     1       9.144  -2.373  22.795  0.00  0.00    -0.346 OA
ATOM      4  C   UNL     1       9.914  -1.250  22.377  0.00  0.00    +0.279 C 
ATOM      5  C   UNL     1       9.597  -0.027  23.259  0.00  0.00    +0.198 C 
ATOM      6  C   UNL     1       9.806  -0.378  24.736  0.00  0.00    +0.150 C 
ATOM      7  C   UNL     1       9.058  -1.653  25.101  0.00  0.00    +0.065 C 
ENDROOT
BRANCH   4   8
ATOM      8  O   UNL     1       9.619  -0.959  21.014  0.00  0.00    -0.365 OA
ATOM      9  H   UNL     1       9.745  -1.793  20.528  0.00  0.00    +0.213 HD
ENDBRANCH   4   8
BRANCH   5  10
ATOM     10  O   UNL     1      10.437   1.077  22.892  0.00  0.00    -0.384 OA
ATOM     11  H   UNL     1       9.906   1.608  22.266  0.00  0.00    +0.210 HD
ENDBRANCH   5  10
BRANCH   6  12
ATOM     12  O   UNL     1       9.363   0.723  25.534  0.00  0.00    -0.389 OA
ATOM     13  H   UNL     1       8.398   0.804  25.425  0.00  0.00    +0.210 HD
ENDBRANCH   6  12
TORSDOF 3
ENDMDL
MODEL 9
REMARK VINA RESULT:      -4.0      5.102      6.801
REMARK  Name = 
REMARK  4 active torsions:
REMARK  status: ('A' for Active; 'I' for Inactive)
REMARK    1  A    between atoms: C_1  and  C_2
REMARK    2  A    between atoms: C_5  and  O_7
REMARK    3  A    between atoms: C_8  and  O_10
REMARK    4  A    between atoms: C_11  and  O_13
REMARK                            x       y       z     vdW  Elec       q    Type
REMARK                         _______ _______ _______ _____ _____    ______ ____
ROOT
ATOM      1  C   UNL     1       9.585  -1.611  23.725  0.00  0.00    +0.038 C 
ATOM      2  C   UNL     1       9.129  -0.168  23.584  0.00  0.00    +0.121 C 
ATOM      3  O   UNL     1       9.945   0.463  22.593  0.00  0.00    -0.346 OA
ATOM      4  C   UNL     1       9.683   1.859  22.490  0.00  0.00    +0.279 C 
ATOM      5  C   UNL     1       8.226   2.098  22.049  0.00  0.00    +0.198 C 
ATOM      6  C   UNL     1       7.266   1.379  23.003  0.00  0.00    +0.150 C 
ATOM      7  C   UNL     1       7.662  -0.081  23.171  0.00  0.00    +0.065 C 
ENDROOT
BRANCH   4   8
ATOM      8  O   UNL     1      10.580   2.437  21.546  0.00  0.00    -0.365 OA
ATOM      9  H   UNL     1      10.580   1.841  20.776  0.00  0.00    +0.213 HD
ENDBRANCH   4   8
BRANCH   5  10
ATOM     10  O   UNL     1       7.941   3.504  22.031  0.00  0.00    -0.384 OA
ATOM     11  H   UNL     1       7.002   3.573  21.769  0.00  0.00    +0.210 HD
ENDBRANCH   5  10
BRANCH   6  12
ATOM     12  O   UNL     1       5.937   1.494  22.486  0.00  0.00    -0.389 OA
ATOM     13  H   UNL     1       5.320   1.469  23.238  0.00  0.00    +0.210 HD
ENDBRANCH   6  12
TORSDOF 3
ENDMDL
