MODEL 1
REMARK VINA RESULT:      -5.9      0.000      0.000
REMARK  Name = 
REMARK  17 active torsions:
REMARK  status: ('A' for Active; 'I' for Inactive)
REMARK    1  A    between atoms: CA_2  and  CB_3
REMARK    2  A    between atoms: CA_2  and  N_11
REMARK    3  A    between atoms: CA_2  and  C_25
REMARK    4  A    between atoms: CB_3  and  CG_4
REMARK    5  A    between atoms: CZ_7  and  OH_8
REMARK    6  A    between atoms: C_12  and  C_14
REMARK    7  A    between atoms: C_14  and  C_15
REMARK    8  A    between atoms: C_15  and  C_16
REMARK    9  A    between atoms: C_16  and  C_17
REMARK   10  A    between atoms: C_17  and  C_18
REMARK   11  A    between atoms: C_18  and  C_19
REMARK   12  A    between atoms: C_19  and  C_20
REMARK   13  A    between atoms: C_20  and  C_21
REMARK   14  A    between atoms: C_21  and  C_22
REMARK   15  A    between atoms: C_22  and  C_23
REMARK   16  A    between atoms: C_23  and  C_24
REMARK   17  A    between atoms: C_25  and  O_26
REMARK                            x       y       z     vdW  Elec       q    Type
REMARK                         _______ _______ _______ _____ _____    ______ ____
ROOT
ATOM      1  N   TYR A   1       6.822  -5.961  26.843  0.00  0.00    -0.302 N 
ATOM      2  H   TYR A   1       7.339  -6.768  26.502  0.00  0.00    +0.150 HD
ATOM      3  C   UNK A   0       7.439  -4.737  26.910  0.00  0.00    +0.214 C 
ATOM      4  O   UNK A   0       6.831  -3.712  27.198  0.00  0.00    -0.276 OA
ENDROOT
BRANCH   3   5
ATOM      5  C   UNK A   0       8.928  -4.786  26.632  0.00  0.00    +0.096 C 
BRANCH   5   6
ATOM      6  C   UNK A   0       9.199  -5.249  25.204  0.00  0.00    +0.009 C 
BRANCH   6   7
ATOM      7  C   UNK A   0       8.644  -4.280  24.166  0.00  0.00    +0.000 C 
BRANCH   7   8
ATOM      8  C   UNK A   0       9.432  -2.970  24.191  0.00  0.00    +0.000 C 
BRANCH   8   9
ATOM      9  C   UNK A   0       8.516  -1.765  24.381  0.00  0.00    +0.000 C 
BRANCH   9  10
ATOM     10  C   UNK A   0       7.903  -1.328  23.050  0.00  0.00    +0.000 C 
BRANCH  10  11
ATOM     11  C   UNK A   0       8.839  -1.645  21.884  0.00  0.00    -0.000 C 
BRANCH  11  12
ATOM     12  C   UNK A   0       9.850  -0.522  21.660  0.00  0.00    -0.000 C 
BRANCH  12  13
ATOM     13  C   UNK A   0       9.148   0.832  21.549  0.00  0.00    -0.000 C 
BRANCH  13  14
ATOM     14  C   UNK A   0       9.941   1.931  22.254  0.00  0.00    -0.003 C 
ATOM     15  C   UNK A   0      10.392   1.485  23.638  0.00  0.00    +0.004 C 
ENDBRANCH  13  14
ENDBRANCH  12  13
ENDBRANCH  11  12
ENDBRANCH  10  11
ENDBRANCH   9  10
ENDBRANCH   8   9
ENDBRANCH   7   8
ENDBRANCH   6   7
ENDBRANCH   5   6
ENDBRANCH   3   5
BRANCH   1  16
ATOM     16  CA  TYR A   1       5.376  -6.084  27.028  0.00  0.00    +0.186 C 
BRANCH  16  17
ATOM     17  C   TYR A   1       5.163  -7.065  28.185  0.00  0.00    +0.326 C 
ATOM     18  OXT TYR A   1       6.065  -7.528  28.871  0.00  0.00    -0.249 OA
BRANCH  17  19
ATOM     19  O   TYR A   1       3.859  -7.237  28.514  0.00  0.00    -0.479 OA
ATOM     20  H   TYR A   1       3.651  -7.018  29.442  0.00  0.00    +0.295 HD
ENDBRANCH  17  19
ENDBRANCH  16  17
BRANCH  16  21
ATOM     21  CB  TYR A   1       4.666  -6.575  25.752  0.00  0.00    +0.069 C 
BRANCH  21  22
ATOM     22  CG  TYR A   1       4.948  -5.715  24.542  0.00  0.00    -0.045 A 
ATOM     23  CD2 TYR A   1       5.498  -6.294  23.390  0.00  0.00    +0.007 A 
ATOM     24  CE2 TYR A   1       5.737  -5.517  22.257  0.00  0.00    +0.045 A 
ATOM     25  CZ  TYR A   1       5.423  -4.165  22.270  0.00  0.00    +0.117 A 
ATOM     26  CE1 TYR A   1       4.897  -3.566  23.410  0.00  0.00    +0.045 A 
ATOM     27  CD1 TYR A   1       4.670  -4.340  24.550  0.00  0.00    +0.007 A 
BRANCH  25  28
ATOM     28  OH  TYR A   1       5.646  -3.452  21.129  0.00  0.00    -0.507 OA
ATOM     29  HH  TYR A   1       6.474  -2.954  21.234  0.00  0.00    +0.292 HD
ENDBRANCH  25  28
ENDBRANCH  21  22
ENDBRANCH  16  21
ENDBRANCH   1  16
TORSDOF 16
ENDMDL
MODEL 2
REMARK VINA RESULT:      -5.6      2.093      3.898
REMARK  Name = 
REMARK  17 active torsions:
REMARK  status: ('A' for Active; 'I' for Inactive)
REMARK    1  A    between atoms: CA_2  and  CB_3
REMARK    2  A    between atoms: CA_2  and  N_11
REMARK    3  A    between atoms: CA_2  and  C_25
REMARK    4  A    between atoms: CB_3  and  CG_4
REMARK    5  A    between atoms: CZ_7  and  OH_8
REMARK    6  A    between atoms: C_12  and  C_14
REMARK    7  A    between atoms: C_14  and  C_15
REMARK    8  A    between atoms: C_15  and  C_16
REMARK    9  A    between atoms: C_16  and  C_17
REMARK   10  A    between atoms: C_17  and  C_18
REMARK   11  A    between atoms: C_18  and  C_19
REMARK   12  A    between atoms: C_19  and  C_20
REMARK   13  A    between atoms: C_20  and  C_21
REMARK   14  A    between atoms: C_21  and  C_22
REMARK   15  A    between atoms: C_22  and  C_23
REMARK   16  A    between atoms: C_23  and  C_24
REMARK   17  A    between atoms: C_25  and  O_26
REMARK                            x       y       z     vdW  Elec       q    Type
REMARK                         _______ _______ _______ _____ _____    ______ ____
ROOT
ATOM      1  N   TYR A   1       8.712  -3.391  24.867  0.00  0.00    -0.302 N 
ATOM      2  H   TYR A   1       8.809  -4.104  24.148  0.00  0.00    +0.150 HD
ATOM      3  C   UNK A   0       9.270  -2.152  24.672  0.00  0.00    +0.214 C 
ATOM      4  O   UNK A   0       9.083  -1.221  25.447  0.00  0.00    -0.276 OA
ENDROOT
BRANCH   3   5
ATOM      5  C   UNK A   0      10.152  -2.064  23.443  0.00  0.00    +0.096 C 
BRANCH   5   6
ATOM      6  C   UNK A   0      10.321  -0.614  22.998  0.00  0.00    +0.009 C 
BRANCH   6   7
ATOM      7  C   UNK A   0       9.629  -0.332  21.668  0.00  0.00    +0.000 C 
BRANCH   7   8
ATOM      8  C   UNK A   0       9.309   1.157  21.544  0.00  0.00    +0.000 C 
BRANCH   8   9
ATOM      9  C   UNK A   0      10.140   1.994  22.511  0.00  0.00    +0.000 C 
BRANCH   9  10
ATOM     10  C   UNK A   0       9.248   2.902  23.357  0.00  0.00    +0.000 C 
BRANCH  10  11
ATOM     11  C   UNK A   0       8.925   2.256  24.704  0.00  0.00    -0.000 C 
BRANCH  11  12
ATOM     12  C   UNK A   0       7.432   2.341  25.019  0.00  0.00    -0.000 C 
BRANCH  12  13
ATOM     13  C   UNK A   0       6.595   1.838  23.842  0.00  0.00    -0.000 C 
BRANCH  13  14
ATOM     14  C   UNK A   0       6.501   0.314  23.835  0.00  0.00    -0.003 C 
ATOM     15  C   UNK A   0       5.768  -0.199  25.067  0.00  0.00    +0.004 C 
ENDBRANCH  13  14
ENDBRANCH  12  13
ENDBRANCH  11  12
ENDBRANCH  10  11
ENDBRANCH   9  10
ENDBRANCH   8   9
ENDBRANCH   7   8
ENDBRANCH   6   7
ENDBRANCH   5   6
ENDBRANCH   3   5
BRANCH   1  16
ATOM     16  CA  TYR A   1       7.788  -3.633  25.974  0.00  0.00    +0.186 C 
BRANCH  16  17
ATOM     17  C   TYR A   1       8.332  -4.839  26.745  0.00  0.00    +0.326 C 
ATOM     18  OXT TYR A   1       7.644  -5.596  27.416  0.00  0.00    -0.249 OA
BRANCH  17  19
ATOM     19  O   TYR A   1       9.630  -5.115  26.468  0.00  0.00    -0.479 OA
ATOM     20  H   TYR A   1       9.835  -5.156  25.514  0.00  0.00    +0.295 HD
ENDBRANCH  17  19
ENDBRANCH  16  17
BRANCH  16  21
ATOM     21  CB  TYR A   1       6.351  -3.894  25.486  0.00  0.00    +0.069 C 
BRANCH  21  22
ATOM     22  CG  TYR A   1       6.277  -4.294  24.030  0.00  0.00    -0.045 A 
ATOM     23  CD2 TYR A   1       6.397  -5.644  23.673  0.00  0.00    +0.007 A 
ATOM     24  CE2 TYR A   1       6.303  -6.030  22.336  0.00  0.00    +0.045 A 
ATOM     25  CZ  TYR A   1       6.082  -5.072  21.357  0.00  0.00    +0.117 A 
ATOM     26  CE1 TYR A   1       5.982  -3.724  21.687  0.00  0.00    +0.045 A 
ATOM     27  CD1 TYR A   1       6.090  -3.335  23.024  0.00  0.00    +0.007 A 
BRANCH  25  28
ATOM     28  OH  TYR A   1       5.967  -5.498  20.067  0.00  0.00    -0.507 OA
ATOM     29  HH  TYR A   1       5.066  -5.305  19.758  0.00  0.00    +0.292 HD
ENDBRANCH  25  28
ENDBRANCH  21  22
ENDBRANCH  16  21
ENDBRANCH   1  16
TORSDOF 16
ENDMDL
MODEL 3
REMARK VINA RESULT:      -5.5      1.768      3.048
REMARK  Name = 
REMARK  17 active torsions:
REMARK  status: ('A' for Active; 'I' for Inactive)
REMARK    1  A    between atoms: CA_2  and  CB_3
REMARK    2  A    between atoms: CA_2  and  N_11
REMARK    3  A    between atoms: CA_2  and  C_25
REMARK    4  A    between atoms: CB_3  and  CG_4
REMARK    5  A    between atoms: CZ_7  and  OH_8
REMARK    6  A    between atoms: C_12  and  C_14
REMARK    7  A    between atoms: C_14  and  C_15
REMARK    8  A    between atoms: C_15  and  C_16
REMARK    9  A    between atoms: C_16  and  C_17
REMARK   10  A    between atoms: C_17  and  C_18
REMARK   11  A    between atoms: C_18  and  C_19
REMARK   12  A    between atoms: C_19  and  C_20
REMARK   13  A    between atoms: C_20  and  C_21
REMARK   14  A    between atoms: C_21  and  C_22
REMARK   15  A    between atoms: C_22  and  C_23
REMARK   16  A    between atoms: C_23  and  C_24
REMARK   17  A    between atoms: C_25  and  O_26
REMARK                            x       y       z     vdW  Elec       q    Type
REMARK                         _______ _______ _______ _____ _____    ______ ____
ROOT
ATOM      1  N   TYR A   1       8.048  -3.426  25.807  0.00  0.00    -0.302 N 
ATOM      2  H   TYR A   1       8.358  -3.968  25.003  0.00  0.00    +0.150 HD
ATOM      3  C   UNK A   0       8.379  -2.097  25.898  0.00  0.00    +0.214 C 
ATOM      4  O   UNK A   0       7.933  -1.371  26.780  0.00  0.00    -0.276 OA
ENDROOT
BRANCH   3   5
ATOM      5  C   UNK A   0       9.360  -1.636  24.839  0.00  0.00    +0.096 C 
BRANCH   5   6
ATOM      6  C   UNK A   0       9.362  -2.589  23.648  0.00  0.00    +0.009 C 
BRANCH   6   7
ATOM      7  C   UNK A   0       8.974  -1.892  22.348  0.00  0.00    +0.000 C 
BRANCH   7   8
ATOM      8  C   UNK A   0       8.720  -0.406  22.601  0.00  0.00    +0.000 C 
BRANCH   8   9
ATOM      9  C   UNK A   0       9.251   0.457  21.461  0.00  0.00    +0.000 C 
BRANCH   9  10
ATOM     10  C   UNK A   0      10.031   1.657  22.000  0.00  0.00    +0.000 C 
BRANCH  10  11
ATOM     11  C   UNK A   0       9.972   1.709  23.527  0.00  0.00    -0.000 C 
BRANCH  11  12
ATOM     12  C   UNK A   0       9.540   3.088  24.021  0.00  0.00    -0.000 C 
BRANCH  12  13
ATOM     13  C   UNK A   0       8.390   3.637  23.175  0.00  0.00    -0.000 C 
BRANCH  13  14
ATOM     14  C   UNK A   0       7.055   3.013  23.576  0.00  0.00    -0.003 C 
ATOM     15  C   UNK A   0       6.101   2.942  22.393  0.00  0.00    +0.004 C 
ENDBRANCH  13  14
ENDBRANCH  12  13
ENDBRANCH  11  12
ENDBRANCH  10  11
ENDBRANCH   9  10
ENDBRANCH   8   9
ENDBRANCH   7   8
ENDBRANCH   6   7
ENDBRANCH   5   6
ENDBRANCH   3   5
BRANCH   1  16
ATOM     16  CA  TYR A   1       7.069  -4.021  26.716  0.00  0.00    +0.186 C 
BRANCH  16  17
ATOM     17  C   TYR A   1       7.653  -5.360  27.175  0.00  0.00    +0.326 C 
ATOM     18  OXT TYR A   1       7.201  -6.031  28.094  0.00  0.00    -0.249 OA
BRANCH  17  19
ATOM     19  O   TYR A   1       8.613  -5.842  26.348  0.00  0.00    -0.479 OA
ATOM     20  H   TYR A   1       8.358  -6.658  25.874  0.00  0.00    +0.295 HD
ENDBRANCH  17  19
ENDBRANCH  16  17
BRANCH  16  21
ATOM     21  CB  TYR A   1       5.697  -4.220  26.044  0.00  0.00    +0.069 C 
BRANCH  21  22
ATOM     22  CG  TYR A   1       5.768  -4.244  24.535  0.00  0.00    -0.045 A 
ATOM     23  CD2 TYR A   1       6.138  -5.424  23.876  0.00  0.00    +0.007 A 
ATOM     24  CE2 TYR A   1       6.180  -5.469  22.482  0.00  0.00    +0.045 A 
ATOM     25  CZ  TYR A   1       5.847  -4.340  21.747  0.00  0.00    +0.117 A 
ATOM     26  CE1 TYR A   1       5.498  -3.152  22.382  0.00  0.00    +0.045 A 
ATOM     27  CD1 TYR A   1       5.469  -3.103  23.777  0.00  0.00    +0.007 A 
BRANCH  25  28
ATOM     28  OH  TYR A   1       5.873  -4.439  20.387  0.00  0.00    -0.507 OA
ATOM     29  HH  TYR A   1       5.549  -5.319  20.136  0.00  0.00    +0.292 HD
ENDBRANCH  25  28
ENDBRANCH  21  22
ENDBRANCH  16  21
ENDBRANCH   1  16
TORSDOF 16
ENDMDL
MODEL 4
REMARK VINA RESULT:      -5.5      2.915      5.174
REMARK  Name = 
REMARK  17 active torsions:
REMARK  status: ('A' for Active; 'I' for Inactive)
REMARK    1  A    between atoms: CA_2  and  CB_3
REMARK    2  A    between atoms: CA_2  and  N_11
REMARK    3  A    between atoms: CA_2  and  C_25
REMARK    4  A    between atoms: CB_3  and  CG_4
REMARK    5  A    between atoms: CZ_7  and  OH_8
REMARK    6  A    between atoms: C_12  and  C_14
REMARK    7  A    between atoms: C_14  and  C_15
REMARK    8  A    between atoms: C_15  and  C_16
REMARK    9  A    between atoms: C_16  and  C_17
REMARK   10  A    between atoms: C_17  and  C_18
REMARK   11  A    between atoms: C_18  and  C_19
REMARK   12  A    between atoms: C_19  and  C_20
REMARK   13  A    between atoms: C_20  and  C_21
REMARK   14  A    between atoms: C_21  and  C_22
REMARK   15  A    between atoms: C_22  and  C_23
REMARK   16  A    between atoms: C_23  and  C_24
REMARK   17  A    between atoms: C_25  and  O_26
REMARK                            x       y       z     vdW  Elec       q    Type
REMARK                         _______ _______ _______ _____ _____    ______ ____
ROOT
ATOM      1  N   TYR A   1       9.659  -1.385  24.090  0.00  0.00    -0.302 N 
ATOM      2  H   TYR A   1      10.404  -1.515  23.410  0.00  0.00    +0.150 HD
ATOM      3  C   UNK A   0       9.579  -0.209  24.793  0.00  0.00    +0.214 C 
ATOM      4  O   UNK A   0       8.637   0.048  25.534  0.00  0.00    -0.276 OA
ENDROOT
BRANCH   3   5
ATOM      5  C   UNK A   0      10.770   0.707  24.592  0.00  0.00    +0.096 C 
BRANCH   5   6
ATOM      6  C   UNK A   0      10.374   1.946  23.795  0.00  0.00    +0.009 C 
BRANCH   6   7
ATOM      7  C   UNK A   0      10.250   1.658  22.302  0.00  0.00    +0.000 C 
BRANCH   7   8
ATOM      8  C   UNK A   0       8.824   1.939  21.827  0.00  0.00    +0.000 C 
BRANCH   8   9
ATOM      9  C   UNK A   0       8.044   2.767  22.843  0.00  0.00    +0.000 C 
BRANCH   9  10
ATOM     10  C   UNK A   0       7.076   3.721  22.145  0.00  0.00    +0.000 C 
BRANCH  10  11
ATOM     11  C   UNK A   0       7.369   5.173  22.519  0.00  0.00    -0.000 C 
BRANCH  11  12
ATOM     12  C   UNK A   0       8.373   5.261  23.667  0.00  0.00    -0.000 C 
BRANCH  12  13
ATOM     13  C   UNK A   0       9.436   6.324  23.383  0.00  0.00    -0.000 C 
BRANCH  13  14
ATOM     14  C   UNK A   0      10.675   6.120  24.254  0.00  0.00    -0.003 C 
ATOM     15  C   UNK A   0      11.780   5.412  23.483  0.00  0.00    +0.004 C 
ENDBRANCH  13  14
ENDBRANCH  12  13
ENDBRANCH  11  12
ENDBRANCH  10  11
ENDBRANCH   9  10
ENDBRANCH   8   9
ENDBRANCH   7   8
ENDBRANCH   6   7
ENDBRANCH   5   6
ENDBRANCH   3   5
BRANCH   1  16
ATOM     16  CA  TYR A   1       8.566  -2.357  24.125  0.00  0.00    +0.186 C 
BRANCH  16  17
ATOM     17  C   TYR A   1       9.006  -3.477  25.072  0.00  0.00    +0.326 C 
ATOM     18  OXT TYR A   1       8.443  -3.751  26.124  0.00  0.00    -0.249 OA
BRANCH  17  19
ATOM     19  O   TYR A   1       9.971  -4.276  24.553  0.00  0.00    -0.479 OA
ATOM     20  H   TYR A   1      10.871  -4.074  24.876  0.00  0.00    +0.295 HD
ENDBRANCH  17  19
ENDBRANCH  16  17
BRANCH  16  21
ATOM     21  CB  TYR A   1       8.238  -2.915  22.727  0.00  0.00    +0.069 C 
BRANCH  21  22
ATOM     22  CG  TYR A   1       7.040  -3.835  22.717  0.00  0.00    -0.045 A 
ATOM     23  CD2 TYR A   1       7.180  -5.154  22.263  0.00  0.00    +0.007 A 
ATOM     24  CE2 TYR A   1       6.089  -6.023  22.275  0.00  0.00    +0.045 A 
ATOM     25  CZ  TYR A   1       4.861  -5.579  22.744  0.00  0.00    +0.117 A 
ATOM     26  CE1 TYR A   1       4.694  -4.268  23.179  0.00  0.00    +0.045 A 
ATOM     27  CD1 TYR A   1       5.783  -3.394  23.154  0.00  0.00    +0.007 A 
BRANCH  25  28
ATOM     28  OH  TYR A   1       3.830  -6.472  22.765  0.00  0.00    -0.507 OA
ATOM     29  HH  TYR A   1       3.033  -6.030  22.427  0.00  0.00    +0.292 HD
ENDBRANCH  25  28
ENDBRANCH  21  22
ENDBRANCH  16  21
ENDBRANCH   1  16
TORSDOF 16
ENDMDL
MODEL 5
REMARK VINA RESULT:      -5.5      2.234      5.462
REMARK  Name = 
REMARK  17 active torsions:
REMARK  status: ('A' for Active; 'I' for Inactive)
REMARK    1  A    between atoms: CA_2  and  CB_3
REMARK    2  A    between atoms: CA_2  and  N_11
REMARK    3  A    between atoms: CA_2  and  C_25
REMARK    4  A    between atoms: CB_3  and  CG_4
REMARK    5  A    between atoms: CZ_7  and  OH_8
REMARK    6  A    between atoms: C_12  and  C_14
REMARK    7  A    between atoms: C_14  and  C_15
REMARK    8  A    between atoms: C_15  and  C_16
REMARK    9  A    between atoms: C_16  and  C_17
REMARK   10  A    between atoms: C_17  and  C_18
REMARK   11  A    between atoms: C_18  and  C_19
REMARK   12  A    between atoms: C_19  and  C_20
REMARK   13  A    between atoms: C_20  and  C_21
REMARK   14  A    between atoms: C_21  and  C_22
REMARK   15  A    between atoms: C_22  and  C_23
REMARK   16  A    between atoms: C_23  and  C_24
REMARK   17  A    between atoms: C_25  and  O_26
REMARK                            x       y       z     vdW  Elec       q    Type
REMARK                         _______ _______ _______ _____ _____    ______ ____
ROOT
ATOM      1  N   TYR A   1       8.213  -2.794  22.528  0.00  0.00    -0.302 N 
ATOM      2  H   TYR A   1       7.823  -2.139  21.853  0.00  0.00    +0.150 HD
ATOM      3  C   UNK A   0       9.430  -2.529  23.103  0.00  0.00    +0.214 C 
ATOM      4  O   UNK A   0       9.891  -3.219  24.007  0.00  0.00    -0.276 OA
ENDROOT
BRANCH   3   5
ATOM      5  C   UNK A   0      10.151  -1.343  22.495  0.00  0.00    +0.096 C 
BRANCH   5   6
ATOM      6  C   UNK A   0       9.225  -0.562  21.568  0.00  0.00    +0.009 C 
BRANCH   6   7
ATOM      7  C   UNK A   0       9.472   0.942  21.635  0.00  0.00    +0.000 C 
BRANCH   7   8
ATOM      8  C   UNK A   0       8.155   1.702  21.480  0.00  0.00    +0.000 C 
BRANCH   8   9
ATOM      9  C   UNK A   0       8.144   2.984  22.306  0.00  0.00    +0.000 C 
BRANCH   9  10
ATOM     10  C   UNK A   0       9.319   3.016  23.283  0.00  0.00    +0.000 C 
BRANCH  10  11
ATOM     11  C   UNK A   0       8.858   3.415  24.684  0.00  0.00    -0.000 C 
BRANCH  11  12
ATOM     12  C   UNK A   0       7.975   2.335  25.309  0.00  0.00    -0.000 C 
BRANCH  12  13
ATOM     13  C   UNK A   0       8.649   0.964  25.230  0.00  0.00    -0.000 C 
BRANCH  13  14
ATOM     14  C   UNK A   0       7.621  -0.165  25.237  0.00  0.00    -0.003 C 
ATOM     15  C   UNK A   0       6.426   0.172  24.356  0.00  0.00    +0.004 C 
ENDBRANCH  13  14
ENDBRANCH  12  13
ENDBRANCH  11  12
ENDBRANCH  10  11
ENDBRANCH   9  10
ENDBRANCH   8   9
ENDBRANCH   7   8
ENDBRANCH   6   7
ENDBRANCH   5   6
ENDBRANCH   3   5
BRANCH   1  16
ATOM     16  CA  TYR A   1       7.360  -3.869  23.033  0.00  0.00    +0.186 C 
BRANCH  16  17
ATOM     17  C   TYR A   1       6.728  -4.539  21.810  0.00  0.00    +0.326 C 
ATOM     18  OXT TYR A   1       5.863  -4.025  21.112  0.00  0.00    -0.249 OA
BRANCH  17  19
ATOM     19  O   TYR A   1       7.344  -5.691  21.446  0.00  0.00    -0.479 OA
ATOM     20  H   TYR A   1       7.604  -5.723  20.505  0.00  0.00    +0.295 HD
ENDBRANCH  17  19
ENDBRANCH  16  17
BRANCH  16  21
ATOM     21  CB  TYR A   1       6.278  -3.349  23.998  0.00  0.00    +0.069 C 
BRANCH  21  22
ATOM     22  CG  TYR A   1       6.360  -3.964  25.375  0.00  0.00    -0.045 A 
ATOM     23  CD2 TYR A   1       5.360  -3.691  26.320  0.00  0.00    +0.007 A 
ATOM     24  CE2 TYR A   1       5.408  -4.274  27.586  0.00  0.00    +0.045 A 
ATOM     25  CZ  TYR A   1       6.448  -5.135  27.908  0.00  0.00    +0.117 A 
ATOM     26  CE1 TYR A   1       7.462  -5.403  26.993  0.00  0.00    +0.045 A 
ATOM     27  CD1 TYR A   1       7.422  -4.808  25.731  0.00  0.00    +0.007 A 
BRANCH  25  28
ATOM     28  OH  TYR A   1       6.439  -5.705  29.146  0.00  0.00    -0.507 OA
ATOM     29  HH  TYR A   1       5.517  -5.775  29.446  0.00  0.00    +0.292 HD
ENDBRANCH  25  28
ENDBRANCH  21  22
ENDBRANCH  16  21
ENDBRANCH   1  16
TORSDOF 16
ENDMDL
MODEL 6
REMARK VINA RESULT:      -5.5      3.336      6.124
REMARK  Name = 
REMARK  17 active torsions:
REMARK  status: ('A' for Active; 'I' for Inactive)
REMARK    1  A    between atoms: CA_2  and  CB_3
REMARK    2  A    between atoms: CA_2  and  N_11
REMARK    3  A    between atoms: CA_2  and  C_25
REMARK    4  A    between atoms: CB_3  and  CG_4
REMARK    5  A    between atoms: CZ_7  and  OH_8
REMARK    6  A    between atoms: C_12  and  C_14
REMARK    7  A    between atoms: C_14  and  C_15
REMARK    8  A    between atoms: C_15  and  C_16
REMARK    9  A    between atoms: C_16  and  C_17
REMARK   10  A    between atoms: C_17  and  C_18
REMARK   11  A    between atoms: C_18  and  C_19
REMARK   12  A    between atoms: C_19  and  C_20
REMARK   13  A    between atoms: C_20  and  C_21
REMARK   14  A    between atoms: C_21  and  C_22
REMARK   15  A    between atoms: C_22  and  C_23
REMARK   16  A    between atoms: C_23  and  C_24
REMARK   17  A    between atoms: C_25  and  O_26
REMARK                            x       y       z     vdW  Elec       q    Type
REMARK                         _______ _______ _______ _____ _____    ______ ____
ROOT
ATOM      1  N   TYR A   1       7.572  -2.547  24.605  0.00  0.00    -0.302 N 
ATOM      2  H   TYR A   1       7.842  -2.265  25.545  0.00  0.00    +0.150 HD
ATOM      3  C   UNK A   0       6.447  -2.008  24.032  0.00  0.00    +0.214 C 
ATOM      4  O   UNK A   0       6.143  -2.220  22.863  0.00  0.00    -0.276 OA
ENDROOT
BRANCH   3   5
ATOM      5  C   UNK A   0       5.616  -1.171  24.983  0.00  0.00    +0.096 C 
BRANCH   5   6
ATOM      6  C   UNK A   0       6.468  -0.091  25.642  0.00  0.00    +0.009 C 
BRANCH   6   7
ATOM      7  C   UNK A   0       6.877   1.002  24.661  0.00  0.00    +0.000 C 
BRANCH   7   8
ATOM      8  C   UNK A   0       7.456   2.200  25.415  0.00  0.00    +0.000 C 
BRANCH   8   9
ATOM      9  C   UNK A   0       7.570   3.428  24.517  0.00  0.00    +0.000 C 
BRANCH   9  10
ATOM     10  C   UNK A   0       8.870   4.185  24.788  0.00  0.00    +0.000 C 
BRANCH  10  11
ATOM     11  C   UNK A   0       8.598   5.665  25.059  0.00  0.00    -0.000 C 
BRANCH  11  12
ATOM     12  C   UNK A   0       9.812   6.526  24.716  0.00  0.00    -0.000 C 
BRANCH  12  13
ATOM     13  C   UNK A   0      10.669   5.859  23.639  0.00  0.00    -0.000 C 
BRANCH  13  14
ATOM     14  C   UNK A   0      12.153   5.902  24.001  0.00  0.00    -0.003 C 
ATOM     15  C   UNK A   0      12.980   5.065  23.036  0.00  0.00    +0.004 C 
ENDBRANCH  13  14
ENDBRANCH  12  13
ENDBRANCH  11  12
ENDBRANCH  10  11
ENDBRANCH   9  10
ENDBRANCH   8   9
ENDBRANCH   7   8
ENDBRANCH   6   7
ENDBRANCH   5   6
ENDBRANCH   3   5
BRANCH   1  16
ATOM     16  CA  TYR A   1       8.516  -3.334  23.812  0.00  0.00    +0.186 C 
BRANCH  16  17
ATOM     17  C   TYR A   1       8.545  -4.735  24.427  0.00  0.00    +0.326 C 
ATOM     18  OXT TYR A   1       9.560  -5.294  24.824  0.00  0.00    -0.249 OA
BRANCH  17  19
ATOM     19  O   TYR A   1       7.312  -5.243  24.673  0.00  0.00    -0.479 OA
ATOM     20  H   TYR A   1       7.186  -5.555  25.590  0.00  0.00    +0.295 HD
ENDBRANCH  17  19
ENDBRANCH  16  17
BRANCH  16  21
ATOM     21  CB  TYR A   1       9.925  -2.710  23.796  0.00  0.00    +0.069 C 
BRANCH  21  22
ATOM     22  CG  TYR A   1       9.946  -1.295  23.268  0.00  0.00    -0.045 A 
ATOM     23  CD2 TYR A   1      10.407  -0.254  24.086  0.00  0.00    +0.007 A 
ATOM     24  CE2 TYR A   1      10.459   1.053  23.601  0.00  0.00    +0.045 A 
ATOM     25  CZ  TYR A   1      10.057   1.321  22.300  0.00  0.00    +0.117 A 
ATOM     26  CE1 TYR A   1       9.575   0.307  21.479  0.00  0.00    +0.045 A 
ATOM     27  CD1 TYR A   1       9.510  -1.000  21.968  0.00  0.00    +0.007 A 
BRANCH  25  28
ATOM     28  OH  TYR A   1      10.153   2.608  21.859  0.00  0.00    -0.507 OA
ATOM     29  HH  TYR A   1      10.320   3.184  22.624  0.00  0.00    +0.292 HD
ENDBRANCH  25  28
ENDBRANCH  21  22
ENDBRANCH  16  21
ENDBRANCH   1  16
TORSDOF 16
ENDMDL
MODEL 7
REMARK VINA RESULT:      -5.5      1.836      3.253
REMARK  Name = 
REMARK  17 active torsions:
REMARK  status: ('A' for Active; 'I' for Inactive)
REMARK    1  A    between atoms: CA_2  and  CB_3
REMARK    2  A    between atoms: CA_2  and  N_11
REMARK    3  A    between atoms: CA_2  and  C_25
REMARK    4  A    between atoms: CB_3  and  CG_4
REMARK    5  A    between atoms: CZ_7  and  OH_8
REMARK    6  A    between atoms: C_12  and  C_14
REMARK    7  A    between atoms: C_14  and  C_15
REMARK    8  A    between atoms: C_15  and  C_16
REMARK    9  A    between atoms: C_16  and  C_17
REMARK   10  A    between atoms: C_17  and  C_18
REMARK   11  A    between atoms: C_18  and  C_19
REMARK   12  A    between atoms: C_19  and  C_20
REMARK   13  A    between atoms: C_20  and  C_21
REMARK   14  A    between atoms: C_21  and  C_22
REMARK   15  A    between atoms: C_22  and  C_23
REMARK   16  A    between atoms: C_23  and  C_24
REMARK   17  A    between atoms: C_25  and  O_26
REMARK                            x       y       z     vdW  Elec       q    Type
REMARK                         _______ _______ _______ _____ _____    ______ ____
ROOT
ATOM      1  N   TYR A   1       7.349  -3.032  26.714  0.00  0.00    -0.302 N 
ATOM      2  H   TYR A   1       8.360  -3.095  26.812  0.00  0.00    +0.150 HD
ATOM      3  C   UNK A   0       6.754  -1.803  26.585  0.00  0.00    +0.214 C 
ATOM      4  O   UNK A   0       5.558  -1.676  26.345  0.00  0.00    -0.276 OA
ENDROOT
BRANCH   3   5
ATOM      5  C   UNK A   0       7.700  -0.639  26.803  0.00  0.00    +0.096 C 
BRANCH   5   6
ATOM      6  C   UNK A   0       7.750   0.258  25.570  0.00  0.00    +0.009 C 
BRANCH   6   7
ATOM      7  C   UNK A   0       9.161   0.754  25.273  0.00  0.00    +0.000 C 
BRANCH   7   8
ATOM      8  C   UNK A   0       9.108   2.013  24.406  0.00  0.00    +0.000 C 
BRANCH   8   9
ATOM      9  C   UNK A   0       8.034   1.908  23.328  0.00  0.00    +0.000 C 
BRANCH   9  10
ATOM     10  C   UNK A   0       8.647   2.012  21.932  0.00  0.00    +0.000 C 
BRANCH  10  11
ATOM     11  C   UNK A   0       9.861   1.093  21.796  0.00  0.00    -0.000 C 
BRANCH  11  12
ATOM     12  C   UNK A   0       9.445  -0.326  21.411  0.00  0.00    -0.000 C 
BRANCH  12  13
ATOM     13  C   UNK A   0      10.136  -1.359  22.303  0.00  0.00    -0.000 C 
BRANCH  13  14
ATOM     14  C   UNK A   0       9.122  -2.172  23.105  0.00  0.00    -0.003 C 
ATOM     15  C   UNK A   0       7.700  -1.898  22.635  0.00  0.00    +0.004 C 
ENDBRANCH  13  14
ENDBRANCH  12  13
ENDBRANCH  11  12
ENDBRANCH  10  11
ENDBRANCH   9  10
ENDBRANCH   8   9
ENDBRANCH   7   8
ENDBRANCH   6   7
ENDBRANCH   5   6
ENDBRANCH   3   5
BRANCH   1  16
ATOM     16  CA  TYR A   1       6.592  -4.262  26.479  0.00  0.00    +0.186 C 
BRANCH  16  17
ATOM     17  C   TYR A   1       6.295  -4.865  27.854  0.00  0.00    +0.326 C 
ATOM     18  OXT TYR A   1       5.348  -4.540  28.560  0.00  0.00    -0.249 OA
BRANCH  17  19
ATOM     19  O   TYR A   1       7.069  -5.937  28.153  0.00  0.00    -0.479 OA
ATOM     20  H   TYR A   1       6.861  -6.351  29.013  0.00  0.00    +0.295 HD
ENDBRANCH  17  19
ENDBRANCH  16  17
BRANCH  16  21
ATOM     21  CB  TYR A   1       7.364  -5.260  25.595  0.00  0.00    +0.069 C 
BRANCH  21  22
ATOM     22  CG  TYR A   1       6.941  -5.225  24.144  0.00  0.00    -0.045 A 
ATOM     23  CD2 TYR A   1       7.834  -5.647  23.150  0.00  0.00    +0.007 A 
ATOM     24  CE2 TYR A   1       7.447  -5.647  21.809  0.00  0.00    +0.045 A 
ATOM     25  CZ  TYR A   1       6.168  -5.233  21.462  0.00  0.00    +0.117 A 
ATOM     26  CE1 TYR A   1       5.274  -4.790  22.431  0.00  0.00    +0.045 A 
ATOM     27  CD1 TYR A   1       5.665  -4.776  23.772  0.00  0.00    +0.007 A 
BRANCH  25  28
ATOM     28  OH  TYR A   1       5.824  -5.278  20.144  0.00  0.00    -0.507 OA
ATOM     29  HH  TYR A   1       5.377  -4.447  19.913  0.00  0.00    +0.292 HD
ENDBRANCH  25  28
ENDBRANCH  21  22
ENDBRANCH  16  21
ENDBRANCH   1  16
TORSDOF 16
ENDMDL
MODEL 8
REMARK VINA RESULT:      -5.4      2.661      5.557
REMARK  Name = 
REMARK  17 active torsions:
REMARK  status: ('A' for Active; 'I' for Inactive)
REMARK    1  A    between atoms: CA_2  and  CB_3
REMARK    2  A    between atoms: CA_2  and  N_11
REMARK    3  A    between atoms: CA_2  and  C_25
REMARK    4  A    between atoms: CB_3  and  CG_4
REMARK    5  A    between atoms: CZ_7  and  OH_8
REMARK    6  A    between atoms: C_12  and  C_14
REMARK    7  A    between atoms: C_14  and  C_15
REMARK    8  A    between atoms: C_15  and  C_16
REMARK    9  A    between atoms: C_16  and  C_17
REMARK   10  A    between atoms: C_17  and  C_18
REMARK   11  A    between atoms: C_18  and  C_19
REMARK   12  A    between atoms: C_19  and  C_20
REMARK   13  A    between atoms: C_20  and  C_21
REMARK   14  A    between atoms: C_21  and  C_22
REMARK   15  A    between atoms: C_22  and  C_23
REMARK   16  A    between atoms: C_23  and  C_24
REMARK   17  A    between atoms: C_25  and  O_26
REMARK                            x       y       z     vdW  Elec       q    Type
REMARK                         _______ _______ _______ _____ _____    ______ ____
ROOT
ATOM      1  N   TYR A   1       8.736  -3.076  24.548  0.00  0.00    -0.302 N 
ATOM      2  H   TYR A   1       8.094  -2.458  25.040  0.00  0.00    +0.150 HD
ATOM      3  C   UNK A   0       9.187  -4.216  25.164  0.00  0.00    +0.214 C 
ATOM      4  O   UNK A   0       9.863  -5.054  24.577  0.00  0.00    -0.276 OA
ENDROOT
BRANCH   3   5
ATOM      5  C   UNK A   0       8.802  -4.315  26.627  0.00  0.00    +0.096 C 
BRANCH   5   6
ATOM      6  C   UNK A   0       7.290  -4.450  26.783  0.00  0.00    +0.009 C 
BRANCH   6   7
ATOM      7  C   UNK A   0       6.719  -5.575  25.926  0.00  0.00    +0.000 C 
BRANCH   7   8
ATOM      8  C   UNK A   0       5.371  -6.033  26.485  0.00  0.00    +0.000 C 
BRANCH   8   9
ATOM      9  C   UNK A   0       4.686  -4.925  27.279  0.00  0.00    +0.000 C 
BRANCH   9  10
ATOM     10  C   UNK A   0       3.326  -4.579  26.674  0.00  0.00    +0.000 C 
BRANCH  10  11
ATOM     11  C   UNK A   0       3.178  -3.070  26.482  0.00  0.00    -0.000 C 
BRANCH  11  12
ATOM     12  C   UNK A   0       4.404  -2.319  26.999  0.00  0.00    -0.000 C 
BRANCH  12  13
ATOM     13  C   UNK A   0       4.780  -1.173  26.058  0.00  0.00    -0.000 C 
BRANCH  13  14
ATOM     14  C   UNK A   0       6.289  -0.936  26.043  0.00  0.00    -0.003 C 
ATOM     15  C   UNK A   0       6.704  -0.097  24.842  0.00  0.00    +0.004 C 
ENDBRANCH  13  14
ENDBRANCH  12  13
ENDBRANCH  11  12
ENDBRANCH  10  11
ENDBRANCH   9  10
ENDBRANCH   8   9
ENDBRANCH   7   8
ENDBRANCH   6   7
ENDBRANCH   5   6
ENDBRANCH   3   5
BRANCH   1  16
ATOM     16  CA  TYR A   1       8.969  -2.850  23.122  0.00  0.00    +0.186 C 
BRANCH  16  17
ATOM     17  C   TYR A   1       9.915  -1.650  23.016  0.00  0.00    +0.326 C 
ATOM     18  OXT TYR A   1      10.217  -0.925  23.955  0.00  0.00    -0.249 OA
BRANCH  17  19
ATOM     19  O   TYR A   1      10.548  -1.565  21.820  0.00  0.00    -0.479 OA
ATOM     20  H   TYR A   1       9.980  -1.248  21.091  0.00  0.00    +0.295 HD
ENDBRANCH  17  19
ENDBRANCH  16  17
BRANCH  16  21
ATOM     21  CB  TYR A   1       7.661  -2.589  22.352  0.00  0.00    +0.069 C 
BRANCH  21  22
ATOM     22  CG  TYR A   1       6.637  -3.687  22.524  0.00  0.00    -0.045 A 
ATOM     23  CD2 TYR A   1       5.380  -3.386  23.067  0.00  0.00    +0.007 A 
ATOM     24  CE2 TYR A   1       4.415  -4.384  23.206  0.00  0.00    +0.045 A 
ATOM     25  CZ  TYR A   1       4.701  -5.679  22.798  0.00  0.00    +0.117 A 
ATOM     26  CE1 TYR A   1       5.950  -6.004  22.277  0.00  0.00    +0.045 A 
ATOM     27  CD1 TYR A   1       6.921  -5.008  22.151  0.00  0.00    +0.007 A 
BRANCH  25  28
ATOM     28  OH  TYR A   1       3.718  -6.616  22.925  0.00  0.00    -0.507 OA
ATOM     29  HH  TYR A   1       3.172  -6.600  22.121  0.00  0.00    +0.292 HD
ENDBRANCH  25  28
ENDBRANCH  21  22
ENDBRANCH  16  21
ENDBRANCH   1  16
TORSDOF 16
ENDMDL
MODEL 9
REMARK VINA RESULT:      -5.3      3.272      5.962
REMARK  Name = 
REMARK  17 active torsions:
REMARK  status: ('A' for Active; 'I' for Inactive)
REMARK    1  A    between atoms: CA_2  and  CB_3
REMARK    2  A    between atoms: CA_2  and  N_11
REMARK    3  A    between atoms: CA_2  and  C_25
REMARK    4  A    between atoms: CB_3  and  CG_4
REMARK    5  A    between atoms: CZ_7  and  OH_8
REMARK    6  A    between atoms: C_12  and  C_14
REMARK    7  A    between atoms: C_14  and  C_15
REMARK    8  A    between atoms: C_15  and  C_16
REMARK    9  A    between atoms: C_16  and  C_17
REMARK   10  A    between atoms: C_17  and  C_18
REMARK   11  A    between atoms: C_18  and  C_19
REMARK   12  A    between atoms: C_19  and  C_20
REMARK   13  A    between atoms: C_20  and  C_21
REMARK   14  A    between atoms: C_21  and  C_22
REMARK   15  A    between atoms: C_22  and  C_23
REMARK   16  A    between atoms: C_23  and  C_24
REMARK   17  A    between atoms: C_25  and  O_26
REMARK                            x       y       z     vdW  Elec       q    Type
REMARK                         _______ _______ _______ _____ _____    ______ ____
ROOT
ATOM      1  N   TYR A   1       7.527  -2.620  24.792  0.00  0.00    -0.302 N 
ATOM      2  H   TYR A   1       7.735  -2.330  25.745  0.00  0.00    +0.150 HD
ATOM      3  C   UNK A   0       6.454  -2.074  24.135  0.00  0.00    +0.214 C 
ATOM      4  O   UNK A   0       6.229  -2.297  22.950  0.00  0.00    -0.276 OA
ENDROOT
BRANCH   3   5
ATOM      5  C   UNK A   0       5.571  -1.211  25.014  0.00  0.00    +0.096 C 
BRANCH   5   6
ATOM      6  C   UNK A   0       5.939   0.263  24.874  0.00  0.00    +0.009 C 
BRANCH   6   7
ATOM      7  C   UNK A   0       6.722   0.780  26.077  0.00  0.00    +0.000 C 
BRANCH   7   8
ATOM      8  C   UNK A   0       7.629   1.938  25.658  0.00  0.00    +0.000 C 
BRANCH   8   9
ATOM      9  C   UNK A   0       6.944   3.288  25.852  0.00  0.00    +0.000 C 
BRANCH   9  10
ATOM     10  C   UNK A   0       7.970   4.420  25.900  0.00  0.00    +0.000 C 
BRANCH  10  11
ATOM     11  C   UNK A   0       8.255   4.963  24.500  0.00  0.00    -0.000 C 
BRANCH  11  12
ATOM     12  C   UNK A   0       6.996   4.963  23.635  0.00  0.00    -0.000 C 
BRANCH  12  13
ATOM     13  C   UNK A   0       7.258   4.290  22.287  0.00  0.00    -0.000 C 
BRANCH  13  14
ATOM     14  C   UNK A   0       6.534   2.950  22.181  0.00  0.00    -0.003 C 
ATOM     15  C   UNK A   0       5.079   3.073  22.611  0.00  0.00    +0.004 C 
ENDBRANCH  13  14
ENDBRANCH  12  13
ENDBRANCH  11  12
ENDBRANCH  10  11
ENDBRANCH   9  10
ENDBRANCH   8   9
ENDBRANCH   7   8
ENDBRANCH   6   7
ENDBRANCH   5   6
ENDBRANCH   3   5
BRANCH   1  16
ATOM     16  CA  TYR A   1       8.512  -3.432  24.078  0.00  0.00    +0.186 C 
BRANCH  16  17
ATOM     17  C   TYR A   1       8.579  -4.779  24.803  0.00  0.00    +0.326 C 
ATOM     18  OXT TYR A   1       7.633  -5.300  25.381  0.00  0.00    -0.249 OA
BRANCH  17  19
ATOM     19  O   TYR A   1       9.739  -5.449  24.591  0.00  0.00    -0.479 OA
ATOM     20  H   TYR A   1      10.537  -4.888  24.634  0.00  0.00    +0.295 HD
ENDBRANCH  17  19
ENDBRANCH  16  17
BRANCH  16  21
ATOM     21  CB  TYR A   1       9.898  -2.761  24.034  0.00  0.00    +0.069 C 
BRANCH  21  22
ATOM     22  CG  TYR A   1       9.889  -1.415  23.347  0.00  0.00    -0.045 A 
ATOM     23  CD2 TYR A   1      10.311  -0.275  24.046  0.00  0.00    +0.007 A 
ATOM     24  CE2 TYR A   1      10.334   0.969  23.415  0.00  0.00    +0.045 A 
ATOM     25  CZ  TYR A   1       9.943   1.075  22.087  0.00  0.00    +0.117 A 
ATOM     26  CE1 TYR A   1       9.500  -0.040  21.383  0.00  0.00    +0.045 A 
ATOM     27  CD1 TYR A   1       9.463  -1.283  22.017  0.00  0.00    +0.007 A 
BRANCH  25  28
ATOM     28  OH  TYR A   1      10.011   2.305  21.503  0.00  0.00    -0.507 OA
ATOM     29  HH  TYR A   1      10.861   2.711  21.738  0.00  0.00    +0.292 HD
ENDBRANCH  25  28
ENDBRANCH  21  22
ENDBRANCH  16  21
ENDBRANCH   1  16
TORSDOF 16
ENDMDL
