MODEL 1
REMARK VINA RESULT:      -6.3      0.000      0.000
REMARK  Name = 
REMARK  11 active torsions:
REMARK  status: ('A' for Active; 'I' for Inactive)
REMARK    1  A    between atoms: C_1  and  O_2
REMARK    2  A    between atoms: O_2  and  C_3
REMARK    3  A    between atoms: C_6  and  S_9
REMARK    4  A    between atoms: S_9  and  N_12
REMARK    5  A    between atoms: N_12  and  C_13
REMARK    6  A    between atoms: N_12  and  C_17
REMARK    7  A    between atoms: C_13  and  C_14
REMARK    8  A    between atoms: C_14  and  C_15
REMARK    9  A    between atoms: C_14  and  C_16
REMARK   10  A    between atoms: C_17  and  C_18
REMARK   11  A    between atoms: N_20  and  O_21
REMARK                            x       y       z     vdW  Elec       q    Type
REMARK                         _______ _______ _______ _____ _____    ______ ____
ROOT
ATOM      1  N   UNL     1       7.889  -3.642  23.703  0.00  0.00    -0.167 NA
ENDROOT
BRANCH   1   2
ATOM      2  S   UNL     1       8.995  -2.327  23.851  0.00  0.00    +0.061 S 
ATOM      3  O   UNL     1       8.977  -1.893  25.232  0.00  0.00    -0.153 OA
ATOM      4  O   UNL     1      10.241  -2.804  23.280  0.00  0.00    -0.153 OA
BRANCH   2   8
ATOM      5  C   UNL     1       7.962   1.657  21.931  0.00  0.00    +0.120 A 
ATOM      6  C   UNL     1       9.127   0.985  21.560  0.00  0.00    +0.047 A 
ATOM      7  C   UNL     1       9.369  -0.312  22.031  0.00  0.00    +0.032 A 
ATOM      8  C   UNL     1       8.445  -0.944  22.870  0.00  0.00    +0.106 A 
ATOM      9  C   UNL     1       7.245  -0.297  23.191  0.00  0.00    +0.032 A 
ATOM     10  C   UNL     1       6.999   0.998  22.701  0.00  0.00    +0.047 A 
BRANCH   5  12
ATOM     11  C   UNL     1       7.621   3.867  22.675  0.00  0.00    +0.277 C 
ATOM     12  O   UNL     1       7.674   2.948  21.582  0.00  0.00    -0.495 OA
ENDBRANCH   5  12
ENDBRANCH   2   8
ENDBRANCH   1   2
BRANCH   1  13
ATOM     13  C   UNL     1       8.440  -4.820  24.479  0.00  0.00    +0.207 C 
BRANCH  13  14
ATOM     14  C   UNL     1       7.621  -5.331  25.647  0.00  0.00    +0.251 C 
ATOM     15  N   UNL     1       8.363  -5.651  26.768  0.00  0.00    -0.196 N 
ATOM     16  H   UNL     1       9.192  -5.114  27.011  0.00  0.00    +0.182 HD
ATOM     17  O   UNL     1       6.407  -5.529  25.591  0.00  0.00    -0.272 OA
BRANCH  15  18
ATOM     18  O   UNL     1       7.596  -6.105  27.871  0.00  0.00    -0.295 OA
ATOM     19  H   UNL     1       8.196  -5.933  28.632  0.00  0.00    +0.241 HD
ENDBRANCH  15  18
ENDBRANCH  13  14
ENDBRANCH   1  13
BRANCH   1  20
ATOM     20  C   UNL     1       7.531  -4.037  22.293  0.00  0.00    +0.113 C 
BRANCH  20  21
ATOM     21  C   UNL     1       6.004  -4.227  22.077  0.00  0.00    -0.001 C 
ATOM     22  C   UNL     1       5.189  -3.410  23.084  0.00  0.00    +0.008 C 
ATOM     23  C   UNL     1       5.577  -5.693  22.140  0.00  0.00    +0.008 C 
ENDBRANCH  20  21
ENDBRANCH   1  20
TORSDOF 8
ENDMDL
MODEL 2
REMARK VINA RESULT:      -6.3      2.670      6.089
REMARK  Name = 
REMARK  11 active torsions:
REMARK  status: ('A' for Active; 'I' for Inactive)
REMARK    1  A    between atoms: C_1  and  O_2
REMARK    2  A    between atoms: O_2  and  C_3
REMARK    3  A    between atoms: C_6  and  S_9
REMARK    4  A    between atoms: S_9  and  N_12
REMARK    5  A    between atoms: N_12  and  C_13
REMARK    6  A    between atoms: N_12  and  C_17
REMARK    7  A    between atoms: C_13  and  C_14
REMARK    8  A    between atoms: C_14  and  C_15
REMARK    9  A    between atoms: C_14  and  C_16
REMARK   10  A    between atoms: C_17  and  C_18
REMARK   11  A    between atoms: N_20  and  O_21
REMARK                            x       y       z     vdW  Elec       q    Type
REMARK                         _______ _______ _______ _____ _____    ______ ____
ROOT
ATOM      1  N   UNL     1       9.043  -1.170  24.430  0.00  0.00    -0.167 NA
ENDROOT
BRANCH   1   2
ATOM      2  S   UNL     1       9.420  -2.519  23.424  0.00  0.00    +0.061 S 
ATOM      3  O   UNL     1      10.086  -2.013  22.243  0.00  0.00    -0.153 OA
ATOM      4  O   UNL     1      10.123  -3.456  24.281  0.00  0.00    -0.153 OA
BRANCH   2   8
ATOM      5  C   UNL     1       5.282  -4.252  22.715  0.00  0.00    +0.120 A 
ATOM      6  C   UNL     1       5.607  -2.993  22.211  0.00  0.00    +0.047 A 
ATOM      7  C   UNL     1       6.924  -2.523  22.291  0.00  0.00    +0.032 A 
ATOM      8  C   UNL     1       7.923  -3.313  22.869  0.00  0.00    +0.106 A 
ATOM      9  C   UNL     1       7.614  -4.604  23.316  0.00  0.00    +0.032 A 
ATOM     10  C   UNL     1       6.293  -5.077  23.218  0.00  0.00    +0.047 A 
BRANCH   5  12
ATOM     11  C   UNL     1       3.891  -6.017  23.426  0.00  0.00    +0.277 C 
ATOM     12  O   UNL     1       4.014  -4.765  22.748  0.00  0.00    -0.495 OA
ENDBRANCH   5  12
ENDBRANCH   2   8
ENDBRANCH   1   2
BRANCH   1  13
ATOM     13  C   UNL     1      10.220  -0.219  24.414  0.00  0.00    +0.207 C 
BRANCH  13  14
ATOM     14  C   UNL     1      10.049   1.094  23.675  0.00  0.00    +0.251 C 
ATOM     15  N   UNL     1      10.160   0.994  22.301  0.00  0.00    -0.196 N 
ATOM     16  H   UNL     1       9.827   0.165  21.814  0.00  0.00    +0.182 HD
ATOM     17  O   UNL     1       9.905   2.178  24.240  0.00  0.00    -0.272 OA
BRANCH  15  18
ATOM     18  O   UNL     1       9.973   2.216  21.606  0.00  0.00    -0.295 OA
ATOM     19  H   UNL     1      10.535   2.094  20.808  0.00  0.00    +0.241 HD
ENDBRANCH  15  18
ENDBRANCH  13  14
ENDBRANCH   1  13
BRANCH   1  20
ATOM     20  C   UNL     1       8.630  -1.504  25.840  0.00  0.00    +0.113 C 
BRANCH  20  21
ATOM     21  C   UNL     1       7.126  -1.231  26.120  0.00  0.00    -0.001 C 
ATOM     22  C   UNL     1       6.317  -2.531  26.163  0.00  0.00    +0.008 C 
ATOM     23  C   UNL     1       6.502  -0.271  25.107  0.00  0.00    +0.008 C 
ENDBRANCH  20  21
ENDBRANCH   1  20
TORSDOF 8
ENDMDL
MODEL 3
REMARK VINA RESULT:      -6.2      2.437      3.478
REMARK  Name = 
REMARK  11 active torsions:
REMARK  status: ('A' for Active; 'I' for Inactive)
REMARK    1  A    between atoms: C_1  and  O_2
REMARK    2  A    between atoms: O_2  and  C_3
REMARK    3  A    between atoms: C_6  and  S_9
REMARK    4  A    between atoms: S_9  and  N_12
REMARK    5  A    between atoms: N_12  and  C_13
REMARK    6  A    between atoms: N_12  and  C_17
REMARK    7  A    between atoms: C_13  and  C_14
REMARK    8  A    between atoms: C_14  and  C_15
REMARK    9  A    between atoms: C_14  and  C_16
REMARK   10  A    between atoms: C_17  and  C_18
REMARK   11  A    between atoms: N_20  and  O_21
REMARK                            x       y       z     vdW  Elec       q    Type
REMARK                         _______ _______ _______ _____ _____    ______ ____
ROOT
ATOM      1  N   UNL     1       8.277  -2.082  24.362  0.00  0.00    -0.167 NA
ENDROOT
BRANCH   1   2
ATOM      2  S   UNL     1       9.379  -1.946  23.042  0.00  0.00    +0.061 S 
ATOM      3  O   UNL     1      10.507  -2.808  23.323  0.00  0.00    -0.153 OA
ATOM      4  O   UNL     1       8.586  -2.190  21.851  0.00  0.00    -0.153 OA
BRANCH   2   8
ATOM      5  C   UNL     1      10.372   2.479  23.282  0.00  0.00    +0.120 A 
ATOM      6  C   UNL     1      10.967   1.581  24.168  0.00  0.00    +0.047 A 
ATOM      7  C   UNL     1      10.786   0.203  23.998  0.00  0.00    +0.032 A 
ATOM      8  C   UNL     1      10.015  -0.284  22.938  0.00  0.00    +0.106 A 
ATOM      9  C   UNL     1       9.470   0.612  22.008  0.00  0.00    +0.032 A 
ATOM     10  C   UNL     1       9.670   1.994  22.175  0.00  0.00    +0.047 A 
BRANCH   5  12
ATOM     11  C   UNL     1      11.750   4.388  23.393  0.00  0.00    +0.277 C 
ATOM     12  O   UNL     1      10.431   3.840  23.409  0.00  0.00    -0.495 OA
ENDBRANCH   5  12
ENDBRANCH   2   8
ENDBRANCH   1   2
BRANCH   1  13
ATOM     13  C   UNL     1       7.508  -3.378  24.211  0.00  0.00    +0.207 C 
BRANCH  13  14
ATOM     14  C   UNL     1       8.289  -4.672  24.326  0.00  0.00    +0.251 C 
ATOM     15  N   UNL     1       9.104  -4.749  25.439  0.00  0.00    -0.196 N 
ATOM     16  H   UNL     1       8.822  -4.323  26.318  0.00  0.00    +0.182 HD
ATOM     17  O   UNL     1       8.272  -5.554  23.468  0.00  0.00    -0.272 OA
BRANCH  15  18
ATOM     18  O   UNL     1       9.816  -5.970  25.562  0.00  0.00    -0.295 OA
ATOM     19  H   UNL     1       9.202  -6.616  25.145  0.00  0.00    +0.241 HD
ENDBRANCH  15  18
ENDBRANCH  13  14
ENDBRANCH   1  13
BRANCH   1  20
ATOM     20  C   UNL     1       7.345  -0.914  24.556  0.00  0.00    +0.113 C 
BRANCH  20  21
ATOM     21  C   UNL     1       7.482  -0.245  25.952  0.00  0.00    -0.001 C 
ATOM     22  C   UNL     1       7.664   1.271  25.834  0.00  0.00    +0.008 C 
ATOM     23  C   UNL     1       8.623  -0.836  26.780  0.00  0.00    +0.008 C 
ENDBRANCH  20  21
ENDBRANCH   1  20
TORSDOF 8
ENDMDL
MODEL 4
REMARK VINA RESULT:      -6.2      2.091      2.921
REMARK  Name = 
REMARK  11 active torsions:
REMARK  status: ('A' for Active; 'I' for Inactive)
REMARK    1  A    between atoms: C_1  and  O_2
REMARK    2  A    between atoms: O_2  and  C_3
REMARK    3  A    between atoms: C_6  and  S_9
REMARK    4  A    between atoms: S_9  and  N_12
REMARK    5  A    between atoms: N_12  and  C_13
REMARK    6  A    between atoms: N_12  and  C_17
REMARK    7  A    between atoms: C_13  and  C_14
REMARK    8  A    between atoms: C_14  and  C_15
REMARK    9  A    between atoms: C_14  and  C_16
REMARK   10  A    between atoms: C_17  and  C_18
REMARK   11  A    between atoms: N_20  and  O_21
REMARK                            x       y       z     vdW  Elec       q    Type
REMARK                         _______ _______ _______ _____ _____    ______ ____
ROOT
ATOM      1  N   UNL     1       6.923  -2.996  24.537  0.00  0.00    -0.167 NA
ENDROOT
BRANCH   1   2
ATOM      2  S   UNL     1       8.196  -3.458  23.470  0.00  0.00    +0.061 S 
ATOM      3  O   UNL     1       9.069  -4.358  24.193  0.00  0.00    -0.153 OA
ATOM      4  O   UNL     1       7.538  -3.933  22.266  0.00  0.00    -0.153 OA
BRANCH   2   8
ATOM      5  C   UNL     1      10.032   0.600  22.584  0.00  0.00    +0.120 A 
ATOM      6  C   UNL     1      10.240  -0.005  23.823  0.00  0.00    +0.047 A 
ATOM      7  C   UNL     1       9.810  -1.319  24.044  0.00  0.00    +0.032 A 
ATOM      8  C   UNL     1       9.175  -2.036  23.025  0.00  0.00    +0.106 A 
ATOM      9  C   UNL     1       9.022  -1.455  21.760  0.00  0.00    +0.032 A 
ATOM     10  C   UNL     1       9.472  -0.141  21.539  0.00  0.00    +0.047 A 
BRANCH   5  12
ATOM     11  C   UNL     1      10.557   2.732  23.440  0.00  0.00    +0.277 C 
ATOM     12  O   UNL     1      10.350   1.900  22.298  0.00  0.00    -0.495 OA
ENDBRANCH   5  12
ENDBRANCH   2   8
ENDBRANCH   1   2
BRANCH   1  13
ATOM     13  C   UNL     1       6.194  -4.247  24.982  0.00  0.00    +0.207 C 
BRANCH  13  14
ATOM     14  C   UNL     1       6.424  -4.723  26.402  0.00  0.00    +0.251 C 
ATOM     15  N   UNL     1       7.416  -5.676  26.532  0.00  0.00    -0.196 N 
ATOM     16  H   UNL     1       8.240  -5.650  25.935  0.00  0.00    +0.182 HD
ATOM     17  O   UNL     1       5.738  -4.363  27.359  0.00  0.00    -0.272 OA
BRANCH  15  18
ATOM     18  O   UNL     1       7.651  -6.104  27.863  0.00  0.00    -0.295 OA
ATOM     19  H   UNL     1       8.293  -5.435  28.190  0.00  0.00    +0.241 HD
ENDBRANCH  15  18
ENDBRANCH  13  14
ENDBRANCH   1  13
BRANCH   1  20
ATOM     20  C   UNL     1       5.962  -1.967  23.999  0.00  0.00    +0.113 C 
BRANCH  20  21
ATOM     21  C   UNL     1       5.963  -0.643  24.812  0.00  0.00    -0.001 C 
ATOM     22  C   UNL     1       6.507   0.525  23.984  0.00  0.00    +0.008 C 
ATOM     23  C   UNL     1       6.748  -0.753  26.120  0.00  0.00    +0.008 C 
ENDBRANCH  20  21
ENDBRANCH   1  20
TORSDOF 8
ENDMDL
MODEL 5
REMARK VINA RESULT:      -6.2      1.719      2.170
REMARK  Name = 
REMARK  11 active torsions:
REMARK  status: ('A' for Active; 'I' for Inactive)
REMARK    1  A    between atoms: C_1  and  O_2
REMARK    2  A    between atoms: O_2  and  C_3
REMARK    3  A    between atoms: C_6  and  S_9
REMARK    4  A    between atoms: S_9  and  N_12
REMARK    5  A    between atoms: N_12  and  C_13
REMARK    6  A    between atoms: N_12  and  C_17
REMARK    7  A    between atoms: C_13  and  C_14
REMARK    8  A    between atoms: C_14  and  C_15
REMARK    9  A    between atoms: C_14  and  C_16
REMARK   10  A    between atoms: C_17  and  C_18
REMARK   11  A    between atoms: N_20  and  O_21
REMARK                            x       y       z     vdW  Elec       q    Type
REMARK                         _______ _______ _______ _____ _____    ______ ____
ROOT
ATOM      1  N   UNL     1       7.379  -3.875  24.386  0.00  0.00    -0.167 NA
ENDROOT
BRANCH   1   2
ATOM      2  S   UNL     1       8.954  -3.424  24.925  0.00  0.00    +0.061 S 
ATOM      3  O   UNL     1       8.835  -2.967  26.293  0.00  0.00    -0.153 OA
ATOM      4  O   UNL     1       9.803  -4.565  24.635  0.00  0.00    -0.153 OA
BRANCH   2   8
ATOM      5  C   UNL     1       9.715   0.357  22.527  0.00  0.00    +0.120 A 
ATOM      6  C   UNL     1       9.889   0.362  23.911  0.00  0.00    +0.047 A 
ATOM      7  C   UNL     1       9.808  -0.836  24.632  0.00  0.00    +0.032 A 
ATOM      8  C   UNL     1       9.560  -2.044  23.972  0.00  0.00    +0.106 A 
ATOM      9  C   UNL     1       9.450  -2.061  22.576  0.00  0.00    +0.032 A 
ATOM     10  C   UNL     1       9.549  -0.857  21.855  0.00  0.00    +0.047 A 
BRANCH   5  12
ATOM     11  C   UNL     1       8.546   2.308  21.904  0.00  0.00    +0.277 C 
ATOM     12  O   UNL     1       9.703   1.483  21.749  0.00  0.00    -0.495 OA
ENDBRANCH   5  12
ENDBRANCH   2   8
ENDBRANCH   1   2
BRANCH   1  13
ATOM     13  C   UNL     1       6.487  -4.034  25.599  0.00  0.00    +0.207 C 
BRANCH  13  14
ATOM     14  C   UNL     1       6.417  -5.405  26.241  0.00  0.00    +0.251 C 
ATOM     15  N   UNL     1       5.153  -5.964  26.258  0.00  0.00    -0.196 N 
ATOM     16  H   UNL     1       4.504  -5.800  25.492  0.00  0.00    +0.182 HD
ATOM     17  O   UNL     1       7.378  -5.953  26.780  0.00  0.00    -0.272 OA
BRANCH  15  18
ATOM     18  O   UNL     1       5.090  -7.258  26.835  0.00  0.00    -0.295 OA
ATOM     19  H   UNL     1       4.161  -7.302  27.156  0.00  0.00    +0.241 HD
ENDBRANCH  15  18
ENDBRANCH  13  14
ENDBRANCH   1  13
BRANCH   1  20
ATOM     20  C   UNL     1       7.317  -5.093  23.500  0.00  0.00    +0.113 C 
BRANCH  20  21
ATOM     21  C   UNL     1       6.969  -4.759  22.023  0.00  0.00    -0.001 C 
ATOM     22  C   UNL     1       6.097  -3.505  21.920  0.00  0.00    +0.008 C 
ATOM     23  C   UNL     1       6.285  -5.921  21.301  0.00  0.00    +0.008 C 
ENDBRANCH  20  21
ENDBRANCH   1  20
TORSDOF 8
ENDMDL
MODEL 6
REMARK VINA RESULT:      -5.9      1.735      2.130
REMARK  Name = 
REMARK  11 active torsions:
REMARK  status: ('A' for Active; 'I' for Inactive)
REMARK    1  A    between atoms: C_1  and  O_2
REMARK    2  A    between atoms: O_2  and  C_3
REMARK    3  A    between atoms: C_6  and  S_9
REMARK    4  A    between atoms: S_9  and  N_12
REMARK    5  A    between atoms: N_12  and  C_13
REMARK    6  A    between atoms: N_12  and  C_17
REMARK    7  A    between atoms: C_13  and  C_14
REMARK    8  A    between atoms: C_14  and  C_15
REMARK    9  A    between atoms: C_14  and  C_16
REMARK   10  A    between atoms: C_17  and  C_18
REMARK   11  A    between atoms: N_20  and  O_21
REMARK                            x       y       z     vdW  Elec       q    Type
REMARK                         _______ _______ _______ _____ _____    ______ ____
ROOT
ATOM      1  N   UNL     1       7.722  -3.548  24.068  0.00  0.00    -0.167 NA
ENDROOT
BRANCH   1   2
ATOM      2  S   UNL     1       8.857  -2.489  23.318  0.00  0.00    +0.061 S 
ATOM      3  O   UNL     1      10.183  -2.928  23.697  0.00  0.00    -0.153 OA
ATOM      4  O   UNL     1       8.497  -2.471  21.911  0.00  0.00    -0.153 OA
BRANCH   2   8
ATOM      5  C   UNL     1       8.818   1.953  24.264  0.00  0.00    +0.120 A 
ATOM      6  C   UNL     1       7.788   1.391  23.509  0.00  0.00    +0.047 A 
ATOM      7  C   UNL     1       7.713   0.002  23.349  0.00  0.00    +0.032 A 
ATOM      8  C   UNL     1       8.664  -0.832  23.947  0.00  0.00    +0.106 A 
ATOM      9  C   UNL     1       9.661  -0.276  24.758  0.00  0.00    +0.032 A 
ATOM     10  C   UNL     1       9.721   1.119  24.930  0.00  0.00    +0.047 A 
BRANCH   5  12
ATOM     11  C   UNL     1       8.147   3.929  25.358  0.00  0.00    +0.277 C 
ATOM     12  O   UNL     1       9.016   3.298  24.416  0.00  0.00    -0.495 OA
ENDBRANCH   5  12
ENDBRANCH   2   8
ENDBRANCH   1   2
BRANCH   1  13
ATOM     13  C   UNL     1       8.460  -4.786  24.536  0.00  0.00    +0.207 C 
BRANCH  13  14
ATOM     14  C   UNL     1       8.512  -5.047  26.028  0.00  0.00    +0.251 C 
ATOM     15  N   UNL     1       7.463  -5.804  26.512  0.00  0.00    -0.196 N 
ATOM     16  H   UNL     1       7.056  -6.546  25.947  0.00  0.00    +0.182 HD
ATOM     17  O   UNL     1       9.365  -4.563  26.772  0.00  0.00    -0.272 OA
BRANCH  15  18
ATOM     18  O   UNL     1       7.524  -6.072  27.903  0.00  0.00    -0.295 OA
ATOM     19  H   UNL     1       7.692  -7.041  27.925  0.00  0.00    +0.241 HD
ENDBRANCH  15  18
ENDBRANCH  13  14
ENDBRANCH   1  13
BRANCH   1  20
ATOM     20  C   UNL     1       6.520  -3.912  23.235  0.00  0.00    +0.113 C 
BRANCH  20  21
ATOM     21  C   UNL     1       6.467  -5.420  22.861  0.00  0.00    -0.001 C 
ATOM     22  C   UNL     1       6.621  -5.630  21.352  0.00  0.00    +0.008 C 
ATOM     23  C   UNL     1       5.189  -6.104  23.347  0.00  0.00    +0.008 C 
ENDBRANCH  20  21
ENDBRANCH   1  20
TORSDOF 8
ENDMDL
MODEL 7
REMARK VINA RESULT:      -5.7      2.721      6.502
REMARK  Name = 
REMARK  11 active torsions:
REMARK  status: ('A' for Active; 'I' for Inactive)
REMARK    1  A    between atoms: C_1  and  O_2
REMARK    2  A    between atoms: O_2  and  C_3
REMARK    3  A    between atoms: C_6  and  S_9
REMARK    4  A    between atoms: S_9  and  N_12
REMARK    5  A    between atoms: N_12  and  C_13
REMARK    6  A    between atoms: N_12  and  C_17
REMARK    7  A    between atoms: C_13  and  C_14
REMARK    8  A    between atoms: C_14  and  C_15
REMARK    9  A    between atoms: C_14  and  C_16
REMARK   10  A    between atoms: C_17  and  C_18
REMARK   11  A    between atoms: N_20  and  O_21
REMARK                            x       y       z     vdW  Elec       q    Type
REMARK                         _______ _______ _______ _____ _____    ______ ____
ROOT
ATOM      1  N   UNL     1       9.526  -0.663  24.465  0.00  0.00    -0.167 NA
ENDROOT
BRANCH   1   2
ATOM      2  S   UNL     1       9.197  -2.021  23.453  0.00  0.00    +0.061 S 
ATOM      3  O   UNL     1       8.123  -1.649  22.558  0.00  0.00    -0.153 OA
ATOM      4  O   UNL     1      10.480  -2.405  22.893  0.00  0.00    -0.153 OA
BRANCH   2   8
ATOM      5  C   UNL     1       7.831  -5.009  26.588  0.00  0.00    +0.120 A 
ATOM      6  C   UNL     1       6.907  -4.150  25.995  0.00  0.00    +0.047 A 
ATOM      7  C   UNL     1       7.293  -3.339  24.920  0.00  0.00    +0.032 A 
ATOM      8  C   UNL     1       8.602  -3.389  24.431  0.00  0.00    +0.106 A 
ATOM      9  C   UNL     1       9.514  -4.298  24.982  0.00  0.00    +0.032 A 
ATOM     10  C   UNL     1       9.116  -5.122  26.049  0.00  0.00    +0.047 A 
BRANCH   5  12
ATOM     11  C   UNL     1       6.206  -5.772  28.116  0.00  0.00    +0.277 C 
ATOM     12  O   UNL     1       7.569  -5.784  27.686  0.00  0.00    -0.495 OA
ENDBRANCH   5  12
ENDBRANCH   2   8
ENDBRANCH   1   2
BRANCH   1  13
ATOM     13  C   UNL     1       8.218   0.044  24.756  0.00  0.00    +0.207 C 
BRANCH  13  14
ATOM     14  C   UNL     1       7.953   0.461  26.189  0.00  0.00    +0.251 C 
ATOM     15  N   UNL     1       8.727  -0.195  27.127  0.00  0.00    -0.196 N 
ATOM     16  H   UNL     1       9.686  -0.459  26.914  0.00  0.00    +0.182 HD
ATOM     17  O   UNL     1       7.069   1.254  26.513  0.00  0.00    -0.272 OA
BRANCH  15  18
ATOM     18  O   UNL     1       8.499   0.213  28.466  0.00  0.00    -0.295 OA
ATOM     19  H   UNL     1       8.954  -0.490  28.982  0.00  0.00    +0.241 HD
ENDBRANCH  15  18
ENDBRANCH  13  14
ENDBRANCH   1  13
BRANCH   1  20
ATOM     20  C   UNL     1      10.563   0.300  23.947  0.00  0.00    +0.113 C 
BRANCH  20  21
ATOM     21  C   UNL     1       9.949   1.546  23.251  0.00  0.00    -0.001 C 
ATOM     22  C   UNL     1       9.816   1.338  21.740  0.00  0.00    +0.008 C 
ATOM     23  C   UNL     1      10.741   2.825  23.525  0.00  0.00    +0.008 C 
ENDBRANCH  20  21
ENDBRANCH   1  20
TORSDOF 8
ENDMDL
MODEL 8
REMARK VINA RESULT:      -5.7      2.903      4.349
REMARK  Name = 
REMARK  11 active torsions:
REMARK  status: ('A' for Active; 'I' for Inactive)
REMARK    1  A    between atoms: C_1  and  O_2
REMARK    2  A    between atoms: O_2  and  C_3
REMARK    3  A    between atoms: C_6  and  S_9
REMARK    4  A    between atoms: S_9  and  N_12
REMARK    5  A    between atoms: N_12  and  C_13
REMARK    6  A    between atoms: N_12  and  C_17
REMARK    7  A    between atoms: C_13  and  C_14
REMARK    8  A    between atoms: C_14  and  C_15
REMARK    9  A    between atoms: C_14  and  C_16
REMARK   10  A    between atoms: C_17  and  C_18
REMARK   11  A    between atoms: N_20  and  O_21
REMARK                            x       y       z     vdW  Elec       q    Type
REMARK                         _______ _______ _______ _____ _____    ______ ____
ROOT
ATOM      1  N   UNL     1       6.477  -4.899  24.456  0.00  0.00    -0.167 NA
ENDROOT
BRANCH   1   2
ATOM      2  S   UNL     1       8.101  -5.047  25.015  0.00  0.00    +0.061 S 
ATOM      3  O   UNL     1       8.059  -5.654  26.328  0.00  0.00    -0.153 OA
ATOM      4  O   UNL     1       8.817  -5.724  23.949  0.00  0.00    -0.153 OA
BRANCH   2   8
ATOM      5  C   UNL     1       9.276  -0.662  25.162  0.00  0.00    +0.120 A 
ATOM      6  C   UNL     1       8.607  -1.242  26.240  0.00  0.00    +0.047 A 
ATOM      7  C   UNL     1       8.383  -2.624  26.265  0.00  0.00    +0.032 A 
ATOM      8  C   UNL     1       8.833  -3.433  25.217  0.00  0.00    +0.106 A 
ATOM      9  C   UNL     1       9.562  -2.864  24.165  0.00  0.00    +0.032 A 
ATOM     10  C   UNL     1       9.798  -1.477  24.153  0.00  0.00    +0.047 A 
BRANCH   5  12
ATOM     11  C   UNL     1      10.727   1.042  24.421  0.00  0.00    +0.277 C 
ATOM     12  O   UNL     1       9.476   0.683  25.012  0.00  0.00    -0.495 OA
ENDBRANCH   5  12
ENDBRANCH   2   8
ENDBRANCH   1   2
BRANCH   1  13
ATOM     13  C   UNL     1       6.417  -3.763  23.456  0.00  0.00    +0.207 C 
BRANCH  13  14
ATOM     14  C   UNL     1       6.012  -4.102  22.036  0.00  0.00    +0.251 C 
ATOM     15  N   UNL     1       6.350  -5.381  21.635  0.00  0.00    -0.196 N 
ATOM     16  H   UNL     1       6.329  -6.153  22.297  0.00  0.00    +0.182 HD
ATOM     17  O   UNL     1       5.498  -3.292  21.264  0.00  0.00    -0.272 OA
BRANCH  15  18
ATOM     18  O   UNL     1       5.948  -5.709  20.315  0.00  0.00    -0.295 OA
ATOM     19  H   UNL     1       6.723  -5.425  19.781  0.00  0.00    +0.241 HD
ENDBRANCH  15  18
ENDBRANCH  13  14
ENDBRANCH   1  13
BRANCH   1  20
ATOM     20  C   UNL     1       5.430  -4.739  25.528  0.00  0.00    +0.113 C 
BRANCH  20  21
ATOM     21  C   UNL     1       4.490  -5.969  25.657  0.00  0.00    -0.001 C 
ATOM     22  C   UNL     1       4.845  -6.822  26.879  0.00  0.00    +0.008 C 
ATOM     23  C   UNL     1       4.488  -6.845  24.404  0.00  0.00    +0.008 C 
ENDBRANCH  20  21
ENDBRANCH   1  20
TORSDOF 8
ENDMDL
MODEL 9
REMARK VINA RESULT:      -5.7      2.621      6.963
REMARK  Name = 
REMARK  11 active torsions:
REMARK  status: ('A' for Active; 'I' for Inactive)
REMARK    1  A    between atoms: C_1  and  O_2
REMARK    2  A    between atoms: O_2  and  C_3
REMARK    3  A    between atoms: C_6  and  S_9
REMARK    4  A    between atoms: S_9  and  N_12
REMARK    5  A    between atoms: N_12  and  C_13
REMARK    6  A    between atoms: N_12  and  C_17
REMARK    7  A    between atoms: C_13  and  C_14
REMARK    8  A    between atoms: C_14  and  C_15
REMARK    9  A    between atoms: C_14  and  C_16
REMARK   10  A    between atoms: C_17  and  C_18
REMARK   11  A    between atoms: N_20  and  O_21
REMARK                            x       y       z     vdW  Elec       q    Type
REMARK                         _______ _______ _______ _____ _____    ______ ____
ROOT
ATOM      1  N   UNL     1       8.568  -0.920  23.696  0.00  0.00    -0.167 NA
ENDROOT
BRANCH   1   2
ATOM      2  S   UNL     1       8.744  -2.628  23.536  0.00  0.00    +0.061 S 
ATOM      3  O   UNL     1       8.121  -3.018  22.290  0.00  0.00    -0.153 OA
ATOM      4  O   UNL     1      10.159  -2.890  23.728  0.00  0.00    -0.153 OA
BRANCH   2   8
ATOM      5  C   UNL     1       6.774  -5.448  26.501  0.00  0.00    +0.120 A 
ATOM      6  C   UNL     1       8.038  -4.923  26.771  0.00  0.00    +0.047 A 
ATOM      7  C   UNL     1       8.580  -3.936  25.940  0.00  0.00    +0.032 A 
ATOM      8  C   UNL     1       7.858  -3.464  24.839  0.00  0.00    +0.106 A 
ATOM      9  C   UNL     1       6.563  -3.941  24.603  0.00  0.00    +0.032 A 
ATOM     10  C   UNL     1       6.017  -4.921  25.452  0.00  0.00    +0.047 A 
BRANCH   5  12
ATOM     11  C   UNL     1       4.850  -6.768  26.834  0.00  0.00    +0.277 C 
ATOM     12  O   UNL     1       6.194  -6.464  27.211  0.00  0.00    -0.495 OA
ENDBRANCH   5  12
ENDBRANCH   2   8
ENDBRANCH   1   2
BRANCH   1  13
ATOM     13  C   UNL     1       9.913  -0.334  24.073  0.00  0.00    +0.207 C 
BRANCH  13  14
ATOM     14  C   UNL     1      10.301   0.988  23.443  0.00  0.00    +0.251 C 
ATOM     15  N   UNL     1       9.990   1.095  22.101  0.00  0.00    -0.196 N 
ATOM     16  H   UNL     1       9.152   0.656  21.727  0.00  0.00    +0.182 HD
ATOM     17  O   UNL     1      10.916   1.871  24.042  0.00  0.00    -0.272 OA
BRANCH  15  18
ATOM     18  O   UNL     1      10.329   2.342  21.516  0.00  0.00    -0.295 OA
ATOM     19  H   UNL     1      10.962   2.717  22.168  0.00  0.00    +0.241 HD
ENDBRANCH  15  18
ENDBRANCH  13  14
ENDBRANCH   1  13
BRANCH   1  20
ATOM     20  C   UNL     1       7.489  -0.461  24.642  0.00  0.00    +0.113 C 
BRANCH  20  21
ATOM     21  C   UNL     1       8.042   0.292  25.884  0.00  0.00    -0.001 C 
ATOM     22  C   UNL     1       7.805  -0.499  27.173  0.00  0.00    +0.008 C 
ATOM     23  C   UNL     1       7.458   1.698  26.030  0.00  0.00    +0.008 C 
ENDBRANCH  20  21
ENDBRANCH   1  20
TORSDOF 8
ENDMDL
