MODEL 1
REMARK VINA RESULT:      -8.2      0.000      0.000
REMARK  Name = 
REMARK  15 active torsions:
REMARK  status: ('A' for Active; 'I' for Inactive)
REMARK    1  A    between atoms: C_1  and  N_2
REMARK    2  A    between atoms: N_2  and  C_3
REMARK    3  A    between atoms: C_5  and  O_7
REMARK    4  A    between atoms: O_7  and  C_8
REMARK    5  A    between atoms: C_10  and  O_12
REMARK    6  A    between atoms: O_12  and  C_13
REMARK    7  A    between atoms: C_13  and  C_15
REMARK    8  A    between atoms: C_16  and  O_17
REMARK    9  A    between atoms: C_23  and  O_24
REMARK   10  A    between atoms: O_24  and  C_25
REMARK   11  A    between atoms: C_27  and  C_28
REMARK   12  A    between atoms: C_33  and  C_41
REMARK   13  A    between atoms: C_49  and  C_51
REMARK   14  A    between atoms: C_52  and  O_54
REMARK   15  A    between atoms: C_55  and  O_57
REMARK                            x       y       z     vdW  Elec       q    Type
REMARK                         _______ _______ _______ _____ _____    ______ ____
ROOT
ATOM      1  C   UNL     1       6.134  -1.815  23.868  0.00  0.00    +0.198 C 
ATOM      2  C   UNL     1       6.806  -0.393  23.779  0.00  0.00    +0.008 C 
ATOM      3  C   UNL     1       7.743  -0.455  22.656  0.00  0.00    +0.031 C 
ATOM      4  C   UNL     1       8.275   0.727  22.054  0.00  0.00    -0.063 C 
ATOM      5  C   UNL     1       8.794   1.813  22.077  0.00  0.00    -0.055 C 
ATOM      6  C   UNL     1       9.433   2.859  22.855  0.00  0.00    +0.208 C 
ATOM      7  C   UNL     1      10.571   1.849  23.839  0.00  0.00    +0.243 C 
ATOM      8  C   UNL     1       9.572   1.404  24.796  0.00  0.00    -0.062 C 
ATOM      9  C   UNL     1       8.484   0.932  25.030  0.00  0.00    -0.071 C 
ATOM     10  O   UNL     1      10.782   3.006  23.076  0.00  0.00    -0.334 OA
ATOM     11  C   UNL     1       8.263  -1.681  22.587  0.00  0.00    +0.037 C 
ATOM     12  C   UNL     1       7.161   0.390  24.842  0.00  0.00    +0.067 C 
ATOM     13  C   UNL     1       7.404  -2.695  23.299  0.00  0.00    +0.234 C 
ENDROOT
BRANCH   6  14
ATOM     14  C   UNL     1       8.600   3.871  23.638  0.00  0.00    +0.265 C 
ATOM     15  O   UNL     1       7.316   4.133  23.090  0.00  0.00    -0.423 OA
ATOM     16  C   UNL     1       6.977   5.373  23.578  0.00  0.00    +0.511 C 
ATOM     17  O   UNL     1       5.845   5.822  23.611  0.00  0.00    -0.203 OA
ATOM     18  O   UNL     1       8.079   6.048  24.031  0.00  0.00    -0.430 OA
ATOM     19  C   UNL     1       9.187   5.261  23.644  0.00  0.00    +0.284 C 
ENDBRANCH   6  14
BRANCH   1  20
ATOM     20  O   UNL     1       5.804  -2.287  25.190  0.00  0.00    -0.338 OA
BRANCH  20  27
ATOM     21  C   UNL     1       4.226  -2.538  27.314  0.00  0.00    +0.141 C 
ATOM     22  C   UNL     1       2.688  -2.240  27.517  0.00  0.00    +0.167 C 
ATOM     23  C   UNL     1       1.825  -3.223  26.717  0.00  0.00    +0.173 C 
ATOM     24  C   UNL     1       2.294  -3.304  25.259  0.00  0.00    +0.149 C 
ATOM     25  C   UNL     1       1.651  -4.527  24.602  0.00  0.00    +0.041 C 
ATOM     26  O   UNL     1       3.713  -3.459  25.143  0.00  0.00    -0.344 OA
ATOM     27  C   UNL     1       4.483  -2.426  25.764  0.00  0.00    +0.271 C 
BRANCH  21  29
ATOM     28  C   UNL     1       4.905  -0.237  27.785  0.00  0.00    +0.101 C 
ATOM     29  N   UNL     1       4.983  -1.632  28.196  0.00  0.00    -0.310 NA
ATOM     30  H   UNL     1       5.966  -1.924  28.226  0.00  0.00    +0.122 HD
ENDBRANCH  21  29
BRANCH  22  31
ATOM     31  O   UNL     1       2.298  -2.304  28.905  0.00  0.00    -0.387 OA
ATOM     32  H   UNL     1       2.856  -2.962  29.352  0.00  0.00    +0.210 HD
ENDBRANCH  22  31
BRANCH  23  33
ATOM     33  O   UNL     1       0.443  -2.846  26.749  0.00  0.00    -0.387 OA
ATOM     34  H   UNL     1       0.100  -3.089  27.628  0.00  0.00    +0.210 HD
ENDBRANCH  23  33
ENDBRANCH  20  27
ENDBRANCH   1  20
BRANCH  13  35
ATOM     35  O   UNL     1       7.362  -3.816  22.354  0.00  0.00    -0.451 OA
BRANCH  35  36
ATOM     36  C   UNL     1       7.332  -5.100  22.768  0.00  0.00    +0.344 C 
ATOM     37  O   UNL     1       7.575  -6.031  21.998  0.00  0.00    -0.245 OA
BRANCH  36  38
ATOM     38  C   UNL     1       7.182  -5.357  24.270  0.00  0.00    +0.108 A 
ATOM     39  C   UNL     1       6.057  -5.915  24.970  0.00  0.00    +0.003 A 
ATOM     40  C   UNL     1       4.972  -6.534  24.323  0.00  0.00    +0.055 A 
ATOM     41  C   UNL     1       3.928  -7.157  25.025  0.00  0.00    +0.121 A 
ATOM     42  C   UNL     1       3.875  -7.112  26.405  0.00  0.00    +0.049 A 
ATOM     43  C   UNL     1       4.896  -6.467  27.125  0.00  0.00    -0.039 A 
ATOM     44  C   UNL     1       4.755  -6.337  28.629  0.00  0.00    +0.044 C 
ATOM     45  C   UNL     1       6.024  -5.937  26.416  0.00  0.00    -0.014 A 
ATOM     46  C   UNL     1       7.151  -5.466  27.107  0.00  0.00    +0.012 A 
ATOM     47  C   UNL     1       8.287  -5.038  26.440  0.00  0.00    +0.047 A 
ATOM     48  C   UNL     1       8.302  -4.987  25.052  0.00  0.00    +0.131 A 
BRANCH  41  49
ATOM     49  O   UNL     1       3.059  -7.813  24.180  0.00  0.00    -0.495 OA
ATOM     50  C   UNL     1       1.976  -8.546  24.728  0.00  0.00    +0.277 C 
ENDBRANCH  41  49
BRANCH  48  51
ATOM     51  O   UNL     1       9.501  -4.577  24.527  0.00  0.00    -0.506 OA
ATOM     52  H   UNL     1      10.226  -5.048  24.993  0.00  0.00    +0.292 HD
ENDBRANCH  48  51
ENDBRANCH  36  38
ENDBRANCH  35  36
ENDBRANCH  13  35
TORSDOF 11
ENDMDL
MODEL 2
REMARK VINA RESULT:      -8.1      2.700      9.413
REMARK  Name = 
REMARK  15 active torsions:
REMARK  status: ('A' for Active; 'I' for Inactive)
REMARK    1  A    between atoms: C_1  and  N_2
REMARK    2  A    between atoms: N_2  and  C_3
REMARK    3  A    between atoms: C_5  and  O_7
REMARK    4  A    between atoms: O_7  and  C_8
REMARK    5  A    between atoms: C_10  and  O_12
REMARK    6  A    between atoms: O_12  and  C_13
REMARK    7  A    between atoms: C_13  and  C_15
REMARK    8  A    between atoms: C_16  and  O_17
REMARK    9  A    between atoms: C_23  and  O_24
REMARK   10  A    between atoms: O_24  and  C_25
REMARK   11  A    between atoms: C_27  and  C_28
REMARK   12  A    between atoms: C_33  and  C_41
REMARK   13  A    between atoms: C_49  and  C_51
REMARK   14  A    between atoms: C_52  and  O_54
REMARK   15  A    between atoms: C_55  and  O_57
REMARK                            x       y       z     vdW  Elec       q    Type
REMARK                         _______ _______ _______ _____ _____    ______ ____
ROOT
ATOM      1  C   UNL     1       8.049  -0.504  27.003  0.00  0.00    +0.198 C 
ATOM      2  C   UNL     1       7.282  -1.816  26.590  0.00  0.00    +0.008 C 
ATOM      3  C   UNL     1       7.843  -2.228  25.301  0.00  0.00    +0.031 C 
ATOM      4  C   UNL     1       7.650  -3.545  24.783  0.00  0.00    -0.063 C 
ATOM      5  C   UNL     1       6.987  -4.508  24.496  0.00  0.00    -0.055 C 
ATOM      6  C   UNL     1       5.670  -5.110  24.378  0.00  0.00    +0.208 C 
ATOM      7  C   UNL     1       4.795  -3.759  23.547  0.00  0.00    +0.243 C 
ATOM      8  C   UNL     1       4.597  -2.961  24.747  0.00  0.00    -0.062 C 
ATOM      9  C   UNL     1       5.040  -2.451  25.749  0.00  0.00    -0.071 C 
ATOM     10  O   UNL     1       4.876  -5.127  23.256  0.00  0.00    -0.334 OA
ATOM     11  C   UNL     1       8.172  -1.141  24.600  0.00  0.00    +0.037 C 
ATOM     12  C   UNL     1       5.952  -2.062  26.795  0.00  0.00    +0.067 C 
ATOM     13  C   UNL     1       8.342   0.066  25.486  0.00  0.00    +0.234 C 
ENDROOT
BRANCH   6  14
ATOM     14  C   UNL     1       4.969  -5.701  25.598  0.00  0.00    +0.265 C 
ATOM     15  O   UNL     1       5.842  -6.151  26.625  0.00  0.00    -0.423 OA
ATOM     16  C   UNL     1       5.106  -7.077  27.326  0.00  0.00    +0.511 C 
ATOM     17  O   UNL     1       5.362  -7.460  28.454  0.00  0.00    -0.203 OA
ATOM     18  O   UNL     1       4.035  -7.518  26.594  0.00  0.00    -0.430 OA
ATOM     19  C   UNL     1       4.211  -6.972  25.303  0.00  0.00    +0.284 C 
ENDBRANCH   6  14
BRANCH   1  20
ATOM     20  O   UNL     1       7.287   0.484  27.725  0.00  0.00    -0.338 OA
BRANCH  20  27
ATOM     21  C   UNL     1       6.618   3.015  28.186  0.00  0.00    +0.141 C 
ATOM     22  C   UNL     1       6.581   4.278  27.238  0.00  0.00    +0.167 C 
ATOM     23  C   UNL     1       5.476   4.143  26.183  0.00  0.00    +0.173 C 
ATOM     24  C   UNL     1       5.560   2.786  25.471  0.00  0.00    +0.149 C 
ATOM     25  C   UNL     1       4.261   2.555  24.698  0.00  0.00    +0.041 C 
ATOM     26  O   UNL     1       5.709   1.693  26.384  0.00  0.00    -0.344 OA
ATOM     27  C   UNL     1       6.851   1.776  27.241  0.00  0.00    +0.271 C 
BRANCH  21  29
ATOM     28  C   UNL     1       7.331   2.571  30.483  0.00  0.00    +0.101 C 
ATOM     29  N   UNL     1       7.622   3.267  29.236  0.00  0.00    -0.310 NA
ATOM     30  H   UNL     1       7.685   4.274  29.416  0.00  0.00    +0.122 HD
ENDBRANCH  21  29
BRANCH  22  31
ATOM     31  O   UNL     1       6.375   5.505  27.970  0.00  0.00    -0.387 OA
ATOM     32  H   UNL     1       6.112   6.198  27.343  0.00  0.00    +0.210 HD
ENDBRANCH  22  31
BRANCH  23  33
ATOM     33  O   UNL     1       5.557   5.192  25.210  0.00  0.00    -0.387 OA
ATOM     34  H   UNL     1       4.655   5.546  25.096  0.00  0.00    +0.210 HD
ENDBRANCH  23  33
ENDBRANCH  20  27
ENDBRANCH   1  20
BRANCH  13  35
ATOM     35  O   UNL     1       9.580   0.673  24.984  0.00  0.00    -0.451 OA
BRANCH  35  36
ATOM     36  C   UNL     1       9.734   1.018  23.688  0.00  0.00    +0.344 C 
ATOM     37  O   UNL     1      10.416   0.341  22.918  0.00  0.00    -0.245 OA
BRANCH  36  38
ATOM     38  C   UNL     1       8.874   2.168  23.155  0.00  0.00    +0.108 A 
ATOM     39  C   UNL     1       9.091   3.582  23.297  0.00  0.00    +0.003 A 
ATOM     40  C   UNL     1      10.291   4.137  23.780  0.00  0.00    +0.055 A 
ATOM     41  C   UNL     1      10.521   5.521  23.823  0.00  0.00    +0.121 A 
ATOM     42  C   UNL     1       9.529   6.416  23.470  0.00  0.00    +0.049 A 
ATOM     43  C   UNL     1       8.282   5.941  23.027  0.00  0.00    -0.039 A 
ATOM     44  C   UNL     1       7.178   6.943  22.753  0.00  0.00    +0.044 C 
ATOM     45  C   UNL     1       8.088   4.530  22.866  0.00  0.00    -0.014 A 
ATOM     46  C   UNL     1       6.935   4.029  22.241  0.00  0.00    +0.012 A 
ATOM     47  C   UNL     1       6.772   2.676  21.991  0.00  0.00    +0.047 A 
ATOM     48  C   UNL     1       7.723   1.767  22.437  0.00  0.00    +0.131 A 
BRANCH  41  49
ATOM     49  O   UNL     1      11.813   5.817  24.197  0.00  0.00    -0.495 OA
ATOM     50  C   UNL     1      12.889   5.407  23.369  0.00  0.00    +0.277 C 
ENDBRANCH  41  49
BRANCH  48  51
ATOM     51  O   UNL     1       7.449   0.468  22.091  0.00  0.00    -0.506 OA
ATOM     52  H   UNL     1       7.130   0.451  21.163  0.00  0.00    +0.292 HD
ENDBRANCH  48  51
ENDBRANCH  36  38
ENDBRANCH  35  36
ENDBRANCH  13  35
TORSDOF 11
ENDMDL
MODEL 3
REMARK VINA RESULT:      -7.8      1.388      2.536
REMARK  Name = 
REMARK  15 active torsions:
REMARK  status: ('A' for Active; 'I' for Inactive)
REMARK    1  A    between atoms: C_1  and  N_2
REMARK    2  A    between atoms: N_2  and  C_3
REMARK    3  A    between atoms: C_5  and  O_7
REMARK    4  A    between atoms: O_7  and  C_8
REMARK    5  A    between atoms: C_10  and  O_12
REMARK    6  A    between atoms: O_12  and  C_13
REMARK    7  A    between atoms: C_13  and  C_15
REMARK    8  A    between atoms: C_16  and  O_17
REMARK    9  A    between atoms: C_23  and  O_24
REMARK   10  A    between atoms: O_24  and  C_25
REMARK   11  A    between atoms: C_27  and  C_28
REMARK   12  A    between atoms: C_33  and  C_41
REMARK   13  A    between atoms: C_49  and  C_51
REMARK   14  A    between atoms: C_52  and  O_54
REMARK   15  A    between atoms: C_55  and  O_57
REMARK                            x       y       z     vdW  Elec       q    Type
REMARK                         _______ _______ _______ _____ _____    ______ ____
ROOT
ATOM      1  C   UNL     1       6.428  -1.548  24.328  0.00  0.00    +0.198 C 
ATOM      2  C   UNL     1       6.453  -0.001  24.032  0.00  0.00    +0.008 C 
ATOM      3  C   UNL     1       7.617   0.230  23.171  0.00  0.00    +0.031 C 
ATOM      4  C   UNL     1       7.768   1.436  22.419  0.00  0.00    -0.063 C 
ATOM      5  C   UNL     1       7.766   2.632  22.280  0.00  0.00    -0.055 C 
ATOM      6  C   UNL     1       7.663   3.945  22.891  0.00  0.00    +0.208 C 
ATOM      7  C   UNL     1       8.775   3.707  24.303  0.00  0.00    +0.243 C 
ATOM      8  C   UNL     1       7.814   2.980  25.116  0.00  0.00    -0.062 C 
ATOM      9  C   UNL     1       6.998   2.095  25.233  0.00  0.00    -0.071 C 
ATOM     10  O   UNL     1       8.706   4.722  23.339  0.00  0.00    -0.334 OA
ATOM     11  C   UNL     1       8.588  -0.618  23.513  0.00  0.00    +0.037 C 
ATOM     12  C   UNL     1       6.131   0.987  24.919  0.00  0.00    +0.067 C 
ATOM     13  C   UNL     1       8.052  -1.811  24.262  0.00  0.00    +0.234 C 
ENDROOT
BRANCH   6  14
ATOM     14  C   UNL     1       6.302   4.553  23.216  0.00  0.00    +0.265 C 
ATOM     15  O   UNL     1       5.193   3.849  22.673  0.00  0.00    -0.423 OA
ATOM     16  C   UNL     1       4.186   4.784  22.611  0.00  0.00    +0.511 C 
ATOM     17  O   UNL     1       3.001   4.523  22.508  0.00  0.00    -0.203 OA
ATOM     18  O   UNL     1       4.684   6.058  22.683  0.00  0.00    -0.430 OA
ATOM     19  C   UNL     1       6.088   5.917  22.609  0.00  0.00    +0.284 C 
ENDBRANCH   6  14
BRANCH   1  20
ATOM     20  O   UNL     1       5.952  -1.944  25.630  0.00  0.00    -0.338 OA
BRANCH  20  27
ATOM     21  C   UNL     1       4.129  -2.318  27.527  0.00  0.00    +0.141 C 
ATOM     22  C   UNL     1       2.561  -2.125  27.526  0.00  0.00    +0.167 C 
ATOM     23  C   UNL     1       1.879  -3.156  26.619  0.00  0.00    +0.173 C 
ATOM     24  C   UNL     1       2.539  -3.193  25.235  0.00  0.00    +0.149 C 
ATOM     25  C   UNL     1       2.072  -4.449  24.500  0.00  0.00    +0.041 C 
ATOM     26  O   UNL     1       3.968  -3.251  25.308  0.00  0.00    -0.344 OA
ATOM     27  C   UNL     1       4.579  -2.175  26.024  0.00  0.00    +0.271 C 
BRANCH  21  29
ATOM     28  C   UNL     1       4.533   0.021  28.111  0.00  0.00    +0.101 C 
ATOM     29  N   UNL     1       4.701  -1.372  28.502  0.00  0.00    -0.310 NA
ATOM     30  H   UNL     1       5.699  -1.571  28.629  0.00  0.00    +0.122 HD
ENDBRANCH  21  29
BRANCH  22  31
ATOM     31  O   UNL     1       1.997  -2.227  28.851  0.00  0.00    -0.387 OA
ATOM     32  H   UNL     1       2.671  -1.953  29.495  0.00  0.00    +0.210 HD
ENDBRANCH  22  31
BRANCH  23  33
ATOM     33  O   UNL     1       0.483  -2.871  26.469  0.00  0.00    -0.387 OA
ATOM     34  H   UNL     1       0.036  -3.200  27.270  0.00  0.00    +0.210 HD
ENDBRANCH  23  33
ENDBRANCH  20  27
ENDBRANCH   1  20
BRANCH  13  35
ATOM     35  O   UNL     1       8.750  -2.938  23.632  0.00  0.00    -0.451 OA
BRANCH  35  36
ATOM     36  C   UNL     1       8.658  -4.195  24.113  0.00  0.00    +0.344 C 
ATOM     37  O   UNL     1       9.579  -4.711  24.748  0.00  0.00    -0.245 OA
BRANCH  36  38
ATOM     38  C   UNL     1       7.299  -4.893  24.015  0.00  0.00    +0.108 A 
ATOM     39  C   UNL     1       6.507  -5.454  25.077  0.00  0.00    +0.003 A 
ATOM     40  C   UNL     1       6.779  -5.242  26.441  0.00  0.00    +0.055 A 
ATOM     41  C   UNL     1       5.942  -5.718  27.462  0.00  0.00    +0.121 A 
ATOM     42  C   UNL     1       4.845  -6.506  27.170  0.00  0.00    +0.049 A 
ATOM     43  C   UNL     1       4.536  -6.809  25.833  0.00  0.00    -0.039 A 
ATOM     44  C   UNL     1       3.393  -7.764  25.549  0.00  0.00    +0.044 C 
ATOM     45  C   UNL     1       5.317  -6.222  24.783  0.00  0.00    -0.014 A 
ATOM     46  C   UNL     1       4.922  -6.336  23.442  0.00  0.00    +0.012 A 
ATOM     47  C   UNL     1       5.610  -5.698  22.423  0.00  0.00    +0.047 A 
ATOM     48  C   UNL     1       6.772  -4.990  22.706  0.00  0.00    +0.131 A 
BRANCH  41  49
ATOM     49  O   UNL     1       6.335  -5.266  28.703  0.00  0.00    -0.495 OA
ATOM     50  C   UNL     1       5.693  -5.770  29.862  0.00  0.00    +0.277 C 
ENDBRANCH  41  49
BRANCH  48  51
ATOM     51  O   UNL     1       7.328  -4.383  21.609  0.00  0.00    -0.506 OA
ATOM     52  H   UNL     1       8.090  -3.838  21.903  0.00  0.00    +0.292 HD
ENDBRANCH  48  51
ENDBRANCH  36  38
ENDBRANCH  35  36
ENDBRANCH  13  35
TORSDOF 11
ENDMDL
MODEL 4
REMARK VINA RESULT:      -7.8      2.692      9.295
REMARK  Name = 
REMARK  15 active torsions:
REMARK  status: ('A' for Active; 'I' for Inactive)
REMARK    1  A    between atoms: C_1  and  N_2
REMARK    2  A    between atoms: N_2  and  C_3
REMARK    3  A    between atoms: C_5  and  O_7
REMARK    4  A    between atoms: O_7  and  C_8
REMARK    5  A    between atoms: C_10  and  O_12
REMARK    6  A    between atoms: O_12  and  C_13
REMARK    7  A    between atoms: C_13  and  C_15
REMARK    8  A    between atoms: C_16  and  O_17
REMARK    9  A    between atoms: C_23  and  O_24
REMARK   10  A    between atoms: O_24  and  C_25
REMARK   11  A    between atoms: C_27  and  C_28
REMARK   12  A    between atoms: C_33  and  C_41
REMARK   13  A    between atoms: C_49  and  C_51
REMARK   14  A    between atoms: C_52  and  O_54
REMARK   15  A    between atoms: C_55  and  O_57
REMARK                            x       y       z     vdW  Elec       q    Type
REMARK                         _______ _______ _______ _____ _____    ______ ____
ROOT
ATOM      1  C   UNL     1       8.094  -0.257  26.986  0.00  0.00    +0.198 C 
ATOM      2  C   UNL     1       7.396  -1.636  26.688  0.00  0.00    +0.008 C 
ATOM      3  C   UNL     1       8.026  -2.157  25.472  0.00  0.00    +0.031 C 
ATOM      4  C   UNL     1       7.905  -3.530  25.092  0.00  0.00    -0.063 C 
ATOM      5  C   UNL     1       7.292  -4.545  24.885  0.00  0.00    -0.055 C 
ATOM      6  C   UNL     1       6.006  -5.212  24.784  0.00  0.00    +0.208 C 
ATOM      7  C   UNL     1       5.114  -3.994  23.782  0.00  0.00    +0.243 C 
ATOM      8  C   UNL     1       4.836  -3.084  24.881  0.00  0.00    -0.062 C 
ATOM      9  C   UNL     1       5.217  -2.452  25.839  0.00  0.00    -0.071 C 
ATOM     10  O   UNL     1       5.260  -5.381  23.642  0.00  0.00    -0.334 OA
ATOM     11  C   UNL     1       8.341  -1.138  24.672  0.00  0.00    +0.037 C 
ATOM     12  C   UNL     1       6.071  -1.917  26.870  0.00  0.00    +0.067 C 
ATOM     13  C   UNL     1       8.428   0.162  25.430  0.00  0.00    +0.234 C 
ENDROOT
BRANCH   6  14
ATOM     14  C   UNL     1       5.278  -5.700  26.034  0.00  0.00    +0.265 C 
ATOM     15  O   UNL     1       6.122  -6.260  27.031  0.00  0.00    -0.423 OA
ATOM     16  C   UNL     1       5.295  -7.077  27.766  0.00  0.00    +0.511 C 
ATOM     17  O   UNL     1       5.540  -7.488  28.886  0.00  0.00    -0.203 OA
ATOM     18  O   UNL     1       4.148  -7.372  27.078  0.00  0.00    -0.430 OA
ATOM     19  C   UNL     1       4.347  -6.859  25.777  0.00  0.00    +0.284 C 
ENDBRANCH   6  14
BRANCH   1  20
ATOM     20  O   UNL     1       7.266   0.769  27.570  0.00  0.00    -0.338 OA
BRANCH  20  27
ATOM     21  C   UNL     1       6.081   2.980  26.693  0.00  0.00    +0.141 C 
ATOM     22  C   UNL     1       4.908   3.200  25.658  0.00  0.00    +0.167 C 
ATOM     23  C   UNL     1       3.580   2.666  26.208  0.00  0.00    +0.173 C 
ATOM     24  C   UNL     1       3.739   1.232  26.730  0.00  0.00    +0.149 C 
ATOM     25  C   UNL     1       2.513   0.875  27.571  0.00  0.00    +0.041 C 
ATOM     26  O   UNL     1       4.888   1.075  27.569  0.00  0.00    -0.344 OA
ATOM     27  C   UNL     1       6.132   1.428  26.959  0.00  0.00    +0.271 C 
BRANCH  21  29
ATOM     28  C   UNL     1       7.566   4.922  26.729  0.00  0.00    +0.101 C 
ATOM     29  N   UNL     1       7.293   3.616  26.145  0.00  0.00    -0.310 NA
ATOM     30  H   UNL     1       7.201   3.711  25.128  0.00  0.00    +0.122 HD
ENDBRANCH  21  29
BRANCH  22  31
ATOM     31  O   UNL     1       4.740   4.591  25.310  0.00  0.00    -0.387 OA
ATOM     32  H   UNL     1       5.526   5.079  25.604  0.00  0.00    +0.210 HD
ENDBRANCH  22  31
BRANCH  23  33
ATOM     33  O   UNL     1       2.555   2.693  25.207  0.00  0.00    -0.387 OA
ATOM     34  H   UNL     1       2.999   2.633  24.341  0.00  0.00    +0.210 HD
ENDBRANCH  23  33
ENDBRANCH  20  27
ENDBRANCH   1  20
BRANCH  13  35
ATOM     35  O   UNL     1       9.661   0.765  24.911  0.00  0.00    -0.451 OA
BRANCH  35  36
ATOM     36  C   UNL     1       9.778   1.165  23.627  0.00  0.00    +0.344 C 
ATOM     37  O   UNL     1      10.459   0.537  22.816  0.00  0.00    -0.245 OA
BRANCH  36  38
ATOM     38  C   UNL     1       8.879   2.313  23.159  0.00  0.00    +0.108 A 
ATOM     39  C   UNL     1       9.081   3.727  23.325  0.00  0.00    +0.003 A 
ATOM     40  C   UNL     1      10.292   4.290  23.769  0.00  0.00    +0.055 A 
ATOM     41  C   UNL     1      10.503   5.676  23.835  0.00  0.00    +0.121 A 
ATOM     42  C   UNL     1       9.483   6.563  23.547  0.00  0.00    +0.049 A 
ATOM     43  C   UNL     1       8.226   6.079  23.147  0.00  0.00    -0.039 A 
ATOM     44  C   UNL     1       7.096   7.070  22.944  0.00  0.00    +0.044 C 
ATOM     45  C   UNL     1       8.046   4.668  22.960  0.00  0.00    -0.014 A 
ATOM     46  C   UNL     1       6.875   4.164  22.374  0.00  0.00    +0.012 A 
ATOM     47  C   UNL     1       6.721   2.815  22.099  0.00  0.00    +0.047 A 
ATOM     48  C   UNL     1       7.704   1.911  22.482  0.00  0.00    +0.131 A 
BRANCH  41  49
ATOM     49  O   UNL     1      11.806   5.983  24.160  0.00  0.00    -0.495 OA
ATOM     50  C   UNL     1      12.862   5.468  23.367  0.00  0.00    +0.277 C 
ENDBRANCH  41  49
BRANCH  48  51
ATOM     51  O   UNL     1       7.434   0.616  22.117  0.00  0.00    -0.506 OA
ATOM     52  H   UNL     1       7.961   0.399  21.318  0.00  0.00    +0.292 HD
ENDBRANCH  48  51
ENDBRANCH  36  38
ENDBRANCH  35  36
ENDBRANCH  13  35
TORSDOF 11
ENDMDL
MODEL 5
REMARK VINA RESULT:      -7.8      1.745      2.461
REMARK  Name = 
REMARK  15 active torsions:
REMARK  status: ('A' for Active; 'I' for Inactive)
REMARK    1  A    between atoms: C_1  and  N_2
REMARK    2  A    between atoms: N_2  and  C_3
REMARK    3  A    between atoms: C_5  and  O_7
REMARK    4  A    between atoms: O_7  and  C_8
REMARK    5  A    between atoms: C_10  and  O_12
REMARK    6  A    between atoms: O_12  and  C_13
REMARK    7  A    between atoms: C_13  and  C_15
REMARK    8  A    between atoms: C_16  and  O_17
REMARK    9  A    between atoms: C_23  and  O_24
REMARK   10  A    between atoms: O_24  and  C_25
REMARK   11  A    between atoms: C_27  and  C_28
REMARK   12  A    between atoms: C_33  and  C_41
REMARK   13  A    between atoms: C_49  and  C_51
REMARK   14  A    between atoms: C_52  and  O_54
REMARK   15  A    between atoms: C_55  and  O_57
REMARK                            x       y       z     vdW  Elec       q    Type
REMARK                         _______ _______ _______ _____ _____    ______ ____
ROOT
ATOM      1  C   UNL     1       6.413  -1.126  24.792  0.00  0.00    +0.198 C 
ATOM      2  C   UNL     1       6.536   0.403  24.435  0.00  0.00    +0.008 C 
ATOM      3  C   UNL     1       7.549   0.495  23.381  0.00  0.00    +0.031 C 
ATOM      4  C   UNL     1       7.683   1.662  22.567  0.00  0.00    -0.063 C 
ATOM      5  C   UNL     1       7.773   2.849  22.384  0.00  0.00    -0.055 C 
ATOM      6  C   UNL     1       7.907   4.179  22.951  0.00  0.00    +0.208 C 
ATOM      7  C   UNL     1       9.218   3.859  24.160  0.00  0.00    +0.243 C 
ATOM      8  C   UNL     1       8.348   3.252  25.154  0.00  0.00    -0.062 C 
ATOM      9  C   UNL     1       7.483   2.459  25.443  0.00  0.00    -0.071 C 
ATOM     10  O   UNL     1       9.082   4.854  23.183  0.00  0.00    -0.334 OA
ATOM     11  C   UNL     1       8.478  -0.440  23.584  0.00  0.00    +0.037 C 
ATOM     12  C   UNL     1       6.471   1.439  25.326  0.00  0.00    +0.067 C 
ATOM     13  C   UNL     1       7.967  -1.555  24.460  0.00  0.00    +0.234 C 
ENDROOT
BRANCH   6  14
ATOM     14  C   UNL     1       6.688   4.930  23.480  0.00  0.00    +0.265 C 
ATOM     15  O   UNL     1       5.437   4.363  23.116  0.00  0.00    -0.423 OA
ATOM     16  C   UNL     1       4.544   5.405  23.206  0.00  0.00    +0.511 C 
ATOM     17  O   UNL     1       3.336   5.280  23.288  0.00  0.00    -0.203 OA
ATOM     18  O   UNL     1       5.189   6.614  23.198  0.00  0.00    -0.430 OA
ATOM     19  C   UNL     1       6.539   6.319  22.910  0.00  0.00    +0.284 C 
ENDBRANCH   6  14
BRANCH   1  20
ATOM     20  O   UNL     1       6.134  -1.443  26.171  0.00  0.00    -0.338 OA
BRANCH  20  27
ATOM     21  C   UNL     1       3.787  -0.752  27.208  0.00  0.00    +0.141 C 
ATOM     22  C   UNL     1       2.428  -1.547  27.348  0.00  0.00    +0.167 C 
ATOM     23  C   UNL     1       2.567  -2.705  28.343  0.00  0.00    +0.173 C 
ATOM     24  C   UNL     1       3.801  -3.559  28.025  0.00  0.00    +0.149 C 
ATOM     25  C   UNL     1       4.094  -4.466  29.220  0.00  0.00    +0.041 C 
ATOM     26  O   UNL     1       4.973  -2.770  27.795  0.00  0.00    -0.344 OA
ATOM     27  C   UNL     1       4.856  -1.810  26.741  0.00  0.00    +0.271 C 
BRANCH  21  29
ATOM     28  C   UNL     1       3.452   1.665  27.053  0.00  0.00    +0.101 C 
ATOM     29  N   UNL     1       3.545   0.405  26.328  0.00  0.00    -0.310 NA
ATOM     30  H   UNL     1       2.683   0.256  25.793  0.00  0.00    +0.122 HD
ENDBRANCH  21  29
BRANCH  22  31
ATOM     31  O   UNL     1       1.340  -0.699  27.771  0.00  0.00    -0.387 OA
ATOM     32  H   UNL     1       1.458   0.177  27.369  0.00  0.00    +0.210 HD
ENDBRANCH  22  31
BRANCH  23  33
ATOM     33  O   UNL     1       1.401  -3.538  28.336  0.00  0.00    -0.387 OA
ATOM     34  H   UNL     1       1.478  -4.145  29.095  0.00  0.00    +0.210 HD
ENDBRANCH  23  33
ENDBRANCH  20  27
ENDBRANCH   1  20
BRANCH  13  35
ATOM     35  O   UNL     1       8.432  -2.761  23.764  0.00  0.00    -0.451 OA
BRANCH  35  36
ATOM     36  C   UNL     1       8.895  -3.838  24.432  0.00  0.00    +0.344 C 
ATOM     37  O   UNL     1      10.103  -4.055  24.547  0.00  0.00    -0.245 OA
BRANCH  36  38
ATOM     38  C   UNL     1       7.880  -4.679  25.212  0.00  0.00    +0.108 A 
ATOM     39  C   UNL     1       6.636  -5.229  24.749  0.00  0.00    +0.003 A 
ATOM     40  C   UNL     1       6.260  -5.260  23.393  0.00  0.00    +0.055 A 
ATOM     41  C   UNL     1       5.085  -5.886  22.947  0.00  0.00    +0.121 A 
ATOM     42  C   UNL     1       4.187  -6.431  23.846  0.00  0.00    +0.049 A 
ATOM     43  C   UNL     1       4.465  -6.394  25.224  0.00  0.00    -0.039 A 
ATOM     44  C   UNL     1       3.413  -6.899  26.192  0.00  0.00    +0.044 C 
ATOM     45  C   UNL     1       5.721  -5.865  25.671  0.00  0.00    -0.014 A 
ATOM     46  C   UNL     1       6.118  -5.991  27.010  0.00  0.00    +0.012 A 
ATOM     47  C   UNL     1       7.366  -5.572  27.442  0.00  0.00    +0.047 A 
ATOM     48  C   UNL     1       8.228  -4.932  26.560  0.00  0.00    +0.131 A 
BRANCH  41  49
ATOM     49  O   UNL     1       5.004  -5.911  21.573  0.00  0.00    -0.495 OA
ATOM     50  C   UNL     1       6.156  -5.611  20.802  0.00  0.00    +0.277 C 
ENDBRANCH  41  49
BRANCH  48  51
ATOM     51  O   UNL     1       9.439  -4.603  27.114  0.00  0.00    -0.506 OA
ATOM     52  H   UNL     1       9.309  -3.851  27.732  0.00  0.00    +0.292 HD
ENDBRANCH  48  51
ENDBRANCH  36  38
ENDBRANCH  35  36
ENDBRANCH  13  35
TORSDOF 11
ENDMDL
MODEL 6
REMARK VINA RESULT:      -7.8      2.459      8.292
REMARK  Name = 
REMARK  15 active torsions:
REMARK  status: ('A' for Active; 'I' for Inactive)
REMARK    1  A    between atoms: C_1  and  N_2
REMARK    2  A    between atoms: N_2  and  C_3
REMARK    3  A    between atoms: C_5  and  O_7
REMARK    4  A    between atoms: O_7  and  C_8
REMARK    5  A    between atoms: C_10  and  O_12
REMARK    6  A    between atoms: O_12  and  C_13
REMARK    7  A    between atoms: C_13  and  C_15
REMARK    8  A    between atoms: C_16  and  O_17
REMARK    9  A    between atoms: C_23  and  O_24
REMARK   10  A    between atoms: O_24  and  C_25
REMARK   11  A    between atoms: C_27  and  C_28
REMARK   12  A    between atoms: C_33  and  C_41
REMARK   13  A    between atoms: C_49  and  C_51
REMARK   14  A    between atoms: C_52  and  O_54
REMARK   15  A    between atoms: C_55  and  O_57
REMARK                            x       y       z     vdW  Elec       q    Type
REMARK                         _______ _______ _______ _____ _____    ______ ____
ROOT
ATOM      1  C   UNL     1       7.255  -1.133  24.529  0.00  0.00    +0.198 C 
ATOM      2  C   UNL     1       6.183  -0.422  25.438  0.00  0.00    +0.008 C 
ATOM      3  C   UNL     1       6.666   0.947  25.642  0.00  0.00    +0.031 C 
ATOM      4  C   UNL     1       5.805   1.985  26.116  0.00  0.00    -0.063 C 
ATOM      5  C   UNL     1       4.982   2.452  26.860  0.00  0.00    -0.055 C 
ATOM      6  C   UNL     1       4.181   2.306  28.062  0.00  0.00    +0.208 C 
ATOM      7  C   UNL     1       5.455   1.705  29.201  0.00  0.00    +0.243 C 
ATOM      8  C   UNL     1       5.435   0.332  28.722  0.00  0.00    -0.062 C 
ATOM      9  C   UNL     1       5.462  -0.458  27.807  0.00  0.00    -0.071 C 
ATOM     10  O   UNL     1       4.516   2.737  29.324  0.00  0.00    -0.334 OA
ATOM     11  C   UNL     1       7.998   0.937  25.693  0.00  0.00    +0.037 C 
ATOM     12  C   UNL     1       5.502  -1.000  26.473  0.00  0.00    +0.067 C 
ATOM     13  C   UNL     1       8.575  -0.298  25.050  0.00  0.00    +0.234 C 
ENDROOT
BRANCH   6  14
ATOM     14  C   UNL     1       2.880   1.509  28.044  0.00  0.00    +0.265 C 
ATOM     15  O   UNL     1       2.472   1.068  26.756  0.00  0.00    -0.423 OA
ATOM     16  C   UNL     1       1.115   0.872  26.869  0.00  0.00    +0.511 C 
ATOM     17  O   UNL     1       0.443   0.204  26.105  0.00  0.00    -0.203 OA
ATOM     18  O   UNL     1       0.609   1.524  27.962  0.00  0.00    -0.430 OA
ATOM     19  C   UNL     1       1.672   2.313  28.457  0.00  0.00    +0.284 C 
ENDBRANCH   6  14
BRANCH   1  20
ATOM     20  O   UNL     1       7.473  -2.537  24.774  0.00  0.00    -0.338 OA
BRANCH  20  27
ATOM     21  C   UNL     1       6.306  -4.865  25.300  0.00  0.00    +0.141 C 
ATOM     22  C   UNL     1       5.048  -5.576  24.659  0.00  0.00    +0.167 C 
ATOM     23  C   UNL     1       5.335  -6.007  23.216  0.00  0.00    +0.173 C 
ATOM     24  C   UNL     1       5.923  -4.847  22.403  0.00  0.00    +0.149 C 
ATOM     25  C   UNL     1       6.509  -5.402  21.104  0.00  0.00    +0.041 C 
ATOM     26  O   UNL     1       6.982  -4.172  23.091  0.00  0.00    -0.344 OA
ATOM     27  C   UNL     1       6.625  -3.637  24.368  0.00  0.00    +0.271 C 
BRANCH  21  29
ATOM     28  C   UNL     1       6.877  -5.278  27.642  0.00  0.00    +0.101 C 
ATOM     29  N   UNL     1       5.994  -4.584  26.714  0.00  0.00    -0.310 NA
ATOM     30  H   UNL     1       5.022  -4.844  26.909  0.00  0.00    +0.122 HD
ENDBRANCH  21  29
BRANCH  22  31
ATOM     31  O   UNL     1       4.630  -6.732  25.414  0.00  0.00    -0.387 OA
ATOM     32  H   UNL     1       3.703  -6.611  25.677  0.00  0.00    +0.210 HD
ENDBRANCH  22  31
BRANCH  23  33
ATOM     33  O   UNL     1       4.147  -6.481  22.571  0.00  0.00    -0.387 OA
ATOM     34  H   UNL     1       4.427  -7.126  21.895  0.00  0.00    +0.210 HD
ENDBRANCH  23  33
ENDBRANCH  20  27
ENDBRANCH   1  20
BRANCH  13  35
ATOM     35  O   UNL     1       9.674   0.234  24.237  0.00  0.00    -0.451 OA
BRANCH  35  36
ATOM     36  C   UNL     1       9.470   0.742  23.004  0.00  0.00    +0.344 C 
ATOM     37  O   UNL     1       9.667   0.071  21.989  0.00  0.00    -0.245 OA
BRANCH  36  38
ATOM     38  C   UNL     1       8.798   2.115  22.906  0.00  0.00    +0.108 A 
ATOM     39  C   UNL     1       9.364   3.406  23.190  0.00  0.00    +0.003 A 
ATOM     40  C   UNL     1      10.739   3.620  23.397  0.00  0.00    +0.055 A 
ATOM     41  C   UNL     1      11.286   4.900  23.579  0.00  0.00    +0.121 A 
ATOM     42  C   UNL     1      10.473   6.015  23.652  0.00  0.00    +0.049 A 
ATOM     43  C   UNL     1       9.081   5.879  23.507  0.00  0.00    -0.039 A 
ATOM     44  C   UNL     1       8.206   7.102  23.701  0.00  0.00    +0.044 C 
ATOM     45  C   UNL     1       8.533   4.590  23.199  0.00  0.00    -0.014 A 
ATOM     46  C   UNL     1       7.181   4.448  22.851  0.00  0.00    +0.012 A 
ATOM     47  C   UNL     1       6.655   3.228  22.459  0.00  0.00    +0.047 A 
ATOM     48  C   UNL     1       7.448   2.088  22.484  0.00  0.00    +0.131 A 
BRANCH  41  49
ATOM     49  O   UNL     1      12.663   4.871  23.620  0.00  0.00    -0.495 OA
ATOM     50  C   UNL     1      13.403   5.569  22.633  0.00  0.00    +0.277 C 
ENDBRANCH  41  49
BRANCH  48  51
ATOM     51  O   UNL     1       6.807   0.960  22.039  0.00  0.00    -0.506 OA
ATOM     52  H   UNL     1       5.959   1.224  21.620  0.00  0.00    +0.292 HD
ENDBRANCH  48  51
ENDBRANCH  36  38
ENDBRANCH  35  36
ENDBRANCH  13  35
TORSDOF 11
ENDMDL
MODEL 7
REMARK VINA RESULT:      -7.7      2.851      5.950
REMARK  Name = 
REMARK  15 active torsions:
REMARK  status: ('A' for Active; 'I' for Inactive)
REMARK    1  A    between atoms: C_1  and  N_2
REMARK    2  A    between atoms: N_2  and  C_3
REMARK    3  A    between atoms: C_5  and  O_7
REMARK    4  A    between atoms: O_7  and  C_8
REMARK    5  A    between atoms: C_10  and  O_12
REMARK    6  A    between atoms: O_12  and  C_13
REMARK    7  A    between atoms: C_13  and  C_15
REMARK    8  A    between atoms: C_16  and  O_17
REMARK    9  A    between atoms: C_23  and  O_24
REMARK   10  A    between atoms: O_24  and  C_25
REMARK   11  A    between atoms: C_27  and  C_28
REMARK   12  A    between atoms: C_33  and  C_41
REMARK   13  A    between atoms: C_49  and  C_51
REMARK   14  A    between atoms: C_52  and  O_54
REMARK   15  A    between atoms: C_55  and  O_57
REMARK                            x       y       z     vdW  Elec       q    Type
REMARK                         _______ _______ _______ _____ _____    ______ ____
ROOT
ATOM      1  C   UNL     1       8.636  -0.787  27.038  0.00  0.00    +0.198 C 
ATOM      2  C   UNL     1       7.662   0.450  27.087  0.00  0.00    +0.008 C 
ATOM      3  C   UNL     1       6.343  -0.084  27.433  0.00  0.00    +0.031 C 
ATOM      4  C   UNL     1       5.291   0.760  27.907  0.00  0.00    -0.063 C 
ATOM      5  C   UNL     1       4.587   1.737  27.869  0.00  0.00    -0.055 C 
ATOM      6  C   UNL     1       4.175   2.934  27.159  0.00  0.00    +0.208 C 
ATOM      7  C   UNL     1       3.997   2.248  25.491  0.00  0.00    +0.243 C 
ATOM      8  C   UNL     1       5.418   2.255  25.185  0.00  0.00    -0.062 C 
ATOM      9  C   UNL     1       6.557   1.989  25.492  0.00  0.00    -0.071 C 
ATOM     10  O   UNL     1       3.135   3.037  26.265  0.00  0.00    -0.334 OA
ATOM     11  C   UNL     1       6.203  -1.293  26.889  0.00  0.00    +0.037 C 
ATOM     12  C   UNL     1       7.695   1.527  26.245  0.00  0.00    +0.067 C 
ATOM     13  C   UNL     1       7.536  -1.913  26.555  0.00  0.00    +0.234 C 
ENDROOT
BRANCH   6  14
ATOM     14  C   UNL     1       4.986   4.223  27.262  0.00  0.00    +0.265 C 
ATOM     15  O   UNL     1       6.155   4.126  28.063  0.00  0.00    -0.423 OA
ATOM     16  C   UNL     1       6.418   5.419  28.451  0.00  0.00    +0.511 C 
ATOM     17  O   UNL     1       7.489   5.815  28.873  0.00  0.00    -0.203 OA
ATOM     18  O   UNL     1       5.315   6.218  28.299  0.00  0.00    -0.430 OA
ATOM     19  C   UNL     1       4.258   5.341  27.967  0.00  0.00    +0.284 C 
ENDBRANCH   6  14
BRANCH   1  20
ATOM     20  O   UNL     1       9.695  -0.731  26.061  0.00  0.00    -0.338 OA
BRANCH  20  27
ATOM     21  C   UNL     1       9.903  -1.043  23.430  0.00  0.00    +0.141 C 
ATOM     22  C   UNL     1       9.305  -0.213  22.226  0.00  0.00    +0.167 C 
ATOM     23  C   UNL     1       9.941   1.180  22.146  0.00  0.00    +0.173 C 
ATOM     24  C   UNL     1       9.906   1.879  23.511  0.00  0.00    +0.149 C 
ATOM     25  C   UNL     1      10.843   3.087  23.471  0.00  0.00    +0.041 C 
ATOM     26  O   UNL     1      10.352   1.033  24.576  0.00  0.00    -0.344 OA
ATOM     27  C   UNL     1       9.620  -0.188  24.722  0.00  0.00    +0.271 C 
BRANCH  21  29
ATOM     28  C   UNL     1       7.912  -2.407  23.039  0.00  0.00    +0.101 C 
ATOM     29  N   UNL     1       9.330  -2.400  23.373  0.00  0.00    -0.310 NA
ATOM     30  H   UNL     1       9.470  -2.869  24.274  0.00  0.00    +0.122 HD
ENDBRANCH  21  29
BRANCH  22  31
ATOM     31  O   UNL     1       9.487  -0.880  20.959  0.00  0.00    -0.387 OA
ATOM     32  H   UNL     1       9.071  -0.343  20.265  0.00  0.00    +0.210 HD
ENDBRANCH  22  31
BRANCH  23  33
ATOM     33  O   UNL     1       9.276   2.000  21.178  0.00  0.00    -0.387 OA
ATOM     34  H   UNL     1       8.878   1.400  20.520  0.00  0.00    +0.210 HD
ENDBRANCH  23  33
ENDBRANCH  20  27
ENDBRANCH   1  20
BRANCH  13  35
ATOM     35  O   UNL     1       7.393  -3.289  27.044  0.00  0.00    -0.451 OA
BRANCH  35  36
ATOM     36  C   UNL     1       7.463  -4.354  26.217  0.00  0.00    +0.344 C 
ATOM     37  O   UNL     1       8.501  -4.634  25.615  0.00  0.00    -0.245 OA
BRANCH  36  38
ATOM     38  C   UNL     1       6.274  -5.318  26.200  0.00  0.00    +0.108 A 
ATOM     39  C   UNL     1       5.358  -5.584  25.125  0.00  0.00    +0.003 A 
ATOM     40  C   UNL     1       5.562  -5.140  23.806  0.00  0.00    +0.055 A 
ATOM     41  C   UNL     1       4.707  -5.488  22.748  0.00  0.00    +0.121 A 
ATOM     42  C   UNL     1       3.558  -6.222  22.978  0.00  0.00    +0.049 A 
ATOM     43  C   UNL     1       3.255  -6.660  24.279  0.00  0.00    -0.039 A 
ATOM     44  C   UNL     1       1.935  -7.367  24.519  0.00  0.00    +0.044 C 
ATOM     45  C   UNL     1       4.189  -6.410  25.337  0.00  0.00    -0.014 A 
ATOM     46  C   UNL     1       4.021  -6.999  26.600  0.00  0.00    +0.012 A 
ATOM     47  C   UNL     1       4.961  -6.846  27.606  0.00  0.00    +0.047 A 
ATOM     48  C   UNL     1       6.064  -6.025  27.408  0.00  0.00    +0.131 A 
BRANCH  41  49
ATOM     49  O   UNL     1       5.187  -5.055  21.532  0.00  0.00    -0.495 OA
ATOM     50  C   UNL     1       6.392  -5.605  21.025  0.00  0.00    +0.277 C 
ENDBRANCH  41  49
BRANCH  48  51
ATOM     51  O   UNL     1       6.927  -5.994  28.474  0.00  0.00    -0.506 OA
ATOM     52  H   UNL     1       6.987  -5.071  28.803  0.00  0.00    +0.292 HD
ENDBRANCH  48  51
ENDBRANCH  36  38
ENDBRANCH  35  36
ENDBRANCH  13  35
TORSDOF 11
ENDMDL
MODEL 8
REMARK VINA RESULT:      -7.4      2.474      9.745
REMARK  Name = 
REMARK  15 active torsions:
REMARK  status: ('A' for Active; 'I' for Inactive)
REMARK    1  A    between atoms: C_1  and  N_2
REMARK    2  A    between atoms: N_2  and  C_3
REMARK    3  A    between atoms: C_5  and  O_7
REMARK    4  A    between atoms: O_7  and  C_8
REMARK    5  A    between atoms: C_10  and  O_12
REMARK    6  A    between atoms: O_12  and  C_13
REMARK    7  A    between atoms: C_13  and  C_15
REMARK    8  A    between atoms: C_16  and  O_17
REMARK    9  A    between atoms: C_23  and  O_24
REMARK   10  A    between atoms: O_24  and  C_25
REMARK   11  A    between atoms: C_27  and  C_28
REMARK   12  A    between atoms: C_33  and  C_41
REMARK   13  A    between atoms: C_49  and  C_51
REMARK   14  A    between atoms: C_52  and  O_54
REMARK   15  A    between atoms: C_55  and  O_57
REMARK                            x       y       z     vdW  Elec       q    Type
REMARK                         _______ _______ _______ _____ _____    ______ ____
ROOT
ATOM      1  C   UNL     1       5.827  -1.591  23.987  0.00  0.00    +0.198 C 
ATOM      2  C   UNL     1       5.132  -2.973  24.280  0.00  0.00    +0.008 C 
ATOM      3  C   UNL     1       4.625  -2.891  25.652  0.00  0.00    +0.031 C 
ATOM      4  C   UNL     1       3.645  -3.806  26.147  0.00  0.00    -0.063 C 
ATOM      5  C   UNL     1       3.183  -4.903  26.330  0.00  0.00    -0.055 C 
ATOM      6  C   UNL     1       3.345  -6.343  26.227  0.00  0.00    +0.208 C 
ATOM      7  C   UNL     1       5.029  -6.503  26.877  0.00  0.00    +0.243 C 
ATOM      8  C   UNL     1       5.692  -6.092  25.650  0.00  0.00    -0.062 C 
ATOM      9  C   UNL     1       5.805  -5.314  24.732  0.00  0.00    -0.071 C 
ATOM     10  O   UNL     1       3.844  -7.180  27.197  0.00  0.00    -0.334 OA
ATOM     11  C   UNL     1       5.459  -2.152  26.383  0.00  0.00    +0.037 C 
ATOM     12  C   UNL     1       5.572  -4.195  23.853  0.00  0.00    +0.067 C 
ATOM     13  C   UNL     1       6.319  -1.261  25.523  0.00  0.00    +0.234 C 
ENDROOT
BRANCH   6  14
ATOM     14  C   UNL     1       3.070  -7.069  24.913  0.00  0.00    +0.265 C 
ATOM     15  O   UNL     1       2.286  -6.336  23.982  0.00  0.00    -0.423 OA
ATOM     16  C   UNL     1       1.729  -7.294  23.168  0.00  0.00    +0.511 C 
ATOM     17  O   UNL     1       1.256  -7.080  22.066  0.00  0.00    -0.203 OA
ATOM     18  O   UNL     1       1.776  -8.532  23.752  0.00  0.00    -0.430 OA
ATOM     19  C   UNL     1       2.225  -8.308  25.073  0.00  0.00    +0.284 C 
ENDBRANCH   6  14
BRANCH   1  20
ATOM     20  O   UNL     1       6.987  -1.625  23.131  0.00  0.00    -0.338 OA
BRANCH  20  27
ATOM     21  C   UNL     1       9.090  -0.261  24.014  0.00  0.00    +0.141 C 
ATOM     22  C   UNL     1      10.167   0.611  23.256  0.00  0.00    +0.167 C 
ATOM     23  C   UNL     1       9.539   1.886  22.681  0.00  0.00    +0.173 C 
ATOM     24  C   UNL     1       8.271   1.561  21.881  0.00  0.00    +0.149 C 
ATOM     25  C   UNL     1       7.500   2.858  21.631  0.00  0.00    +0.041 C 
ATOM     26  O   UNL     1       7.391   0.673  22.579  0.00  0.00    -0.344 OA
ATOM     27  C   UNL     1       7.971  -0.580  22.952  0.00  0.00    +0.271 C 
BRANCH  21  29
ATOM     28  C   UNL     1      10.035  -2.494  23.697  0.00  0.00    +0.101 C 
ATOM     29  N   UNL     1       9.787  -1.405  24.631  0.00  0.00    -0.310 NA
ATOM     30  H   UNL     1       9.238  -1.754  25.424  0.00  0.00    +0.122 HD
ENDBRANCH  21  29
BRANCH  22  31
ATOM     31  O   UNL     1      11.270   0.981  24.110  0.00  0.00    -0.387 OA
ATOM     32  H   UNL     1      12.087   0.607  23.740  0.00  0.00    +0.210 HD
ENDBRANCH  22  31
BRANCH  23  33
ATOM     33  O   UNL     1      10.463   2.586  21.839  0.00  0.00    -0.387 OA
ATOM     34  H   UNL     1      10.229   2.371  20.917  0.00  0.00    +0.210 HD
ENDBRANCH  23  33
ENDBRANCH  20  27
ENDBRANCH   1  20
BRANCH  13  35
ATOM     35  O   UNL     1       6.264   0.028  26.222  0.00  0.00    -0.451 OA
BRANCH  35  36
ATOM     36  C   UNL     1       5.353   0.973  25.908  0.00  0.00    +0.344 C 
ATOM     37  O   UNL     1       4.144   0.742  25.949  0.00  0.00    -0.245 OA
BRANCH  36  38
ATOM     38  C   UNL     1       5.862   2.401  25.691  0.00  0.00    +0.108 A 
ATOM     39  C   UNL     1       5.459   3.347  24.686  0.00  0.00    +0.003 A 
ATOM     40  C   UNL     1       4.336   3.165  23.857  0.00  0.00    +0.055 A 
ATOM     41  C   UNL     1       3.902   4.141  22.947  0.00  0.00    +0.121 A 
ATOM     42  C   UNL     1       4.622   5.306  22.758  0.00  0.00    +0.049 A 
ATOM     43  C   UNL     1       5.786   5.539  23.511  0.00  0.00    -0.039 A 
ATOM     44  C   UNL     1       6.615   6.772  23.205  0.00  0.00    +0.044 C 
ATOM     45  C   UNL     1       6.162   4.600  24.527  0.00  0.00    -0.014 A 
ATOM     46  C   UNL     1       7.197   4.893  25.430  0.00  0.00    +0.012 A 
ATOM     47  C   UNL     1       7.513   4.042  26.476  0.00  0.00    +0.047 A 
ATOM     48  C   UNL     1       6.857   2.824  26.604  0.00  0.00    +0.131 A 
BRANCH  41  49
ATOM     49  O   UNL     1       2.707   3.798  22.354  0.00  0.00    -0.495 OA
ATOM     50  C   UNL     1       1.917   4.805  21.746  0.00  0.00    +0.277 C 
ENDBRANCH  41  49
BRANCH  48  51
ATOM     51  O   UNL     1       7.246   2.101  27.702  0.00  0.00    -0.506 OA
ATOM     52  H   UNL     1       7.344   1.160  27.441  0.00  0.00    +0.292 HD
ENDBRANCH  48  51
ENDBRANCH  36  38
ENDBRANCH  35  36
ENDBRANCH  13  35
TORSDOF 11
ENDMDL
MODEL 9
REMARK VINA RESULT:      -7.3      2.109      3.720
REMARK  Name = 
REMARK  15 active torsions:
REMARK  status: ('A' for Active; 'I' for Inactive)
REMARK    1  A    between atoms: C_1  and  N_2
REMARK    2  A    between atoms: N_2  and  C_3
REMARK    3  A    between atoms: C_5  and  O_7
REMARK    4  A    between atoms: O_7  and  C_8
REMARK    5  A    between atoms: C_10  and  O_12
REMARK    6  A    between atoms: O_12  and  C_13
REMARK    7  A    between atoms: C_13  and  C_15
REMARK    8  A    between atoms: C_16  and  O_17
REMARK    9  A    between atoms: C_23  and  O_24
REMARK   10  A    between atoms: O_24  and  C_25
REMARK   11  A    between atoms: C_27  and  C_28
REMARK   12  A    between atoms: C_33  and  C_41
REMARK   13  A    between atoms: C_49  and  C_51
REMARK   14  A    between atoms: C_52  and  O_54
REMARK   15  A    between atoms: C_55  and  O_57
REMARK                            x       y       z     vdW  Elec       q    Type
REMARK                         _______ _______ _______ _____ _____    ______ ____
ROOT
ATOM      1  C   UNL     1       6.890  -0.235  25.919  0.00  0.00    +0.198 C 
ATOM      2  C   UNL     1       6.933   1.189  25.248  0.00  0.00    +0.008 C 
ATOM      3  C   UNL     1       8.120   1.199  24.389  0.00  0.00    +0.031 C 
ATOM      4  C   UNL     1       8.298   2.179  23.364  0.00  0.00    -0.063 C 
ATOM      5  C   UNL     1       8.307   3.303  22.932  0.00  0.00    -0.055 C 
ATOM      6  C   UNL     1       8.197   4.727  23.194  0.00  0.00    +0.208 C 
ATOM      7  C   UNL     1       9.269   4.849  24.649  0.00  0.00    +0.243 C 
ATOM      8  C   UNL     1       8.284   4.347  25.592  0.00  0.00    -0.062 C 
ATOM      9  C   UNL     1       7.459   3.519  25.903  0.00  0.00    -0.071 C 
ATOM     10  O   UNL     1       9.233   5.591  23.461  0.00  0.00    -0.334 OA
ATOM     11  C   UNL     1       9.076   0.463  24.956  0.00  0.00    +0.037 C 
ATOM     12  C   UNL     1       6.594   2.367  25.852  0.00  0.00    +0.067 C 
ATOM     13  C   UNL     1       8.514  -0.506  25.964  0.00  0.00    +0.234 C 
ENDROOT
BRANCH   6  14
ATOM     14  C   UNL     1       6.831   5.396  23.320  0.00  0.00    +0.265 C 
ATOM     15  O   UNL     1       5.727   4.550  23.030  0.00  0.00    -0.423 OA
ATOM     16  C   UNL     1       4.712   5.412  22.684  0.00  0.00    +0.511 C 
ATOM     17  O   UNL     1       3.529   5.124  22.674  0.00  0.00    -0.203 OA
ATOM     18  O   UNL     1       5.200   6.648  22.354  0.00  0.00    -0.430 OA
ATOM     19  C   UNL     1       6.604   6.502  22.319  0.00  0.00    +0.284 C 
ENDBRANCH   6  14
BRANCH   1  20
ATOM     20  O   UNL     1       6.378  -0.295  27.266  0.00  0.00    -0.338 OA
BRANCH  20  27
ATOM     21  C   UNL     1       3.780  -0.460  26.731  0.00  0.00    +0.141 C 
ATOM     22  C   UNL     1       2.522  -0.605  27.677  0.00  0.00    +0.167 C 
ATOM     23  C   UNL     1       2.306   0.668  28.505  0.00  0.00    +0.173 C 
ATOM     24  C   UNL     1       3.605   1.101  29.196  0.00  0.00    +0.149 C 
ATOM     25  C   UNL     1       3.437   2.532  29.709  0.00  0.00    +0.041 C 
ATOM     26  O   UNL     1       4.729   1.099  28.309  0.00  0.00    -0.344 OA
ATOM     27  C   UNL     1       4.999  -0.158  27.682  0.00  0.00    +0.271 C 
BRANCH  21  29
ATOM     28  C   UNL     1       4.050  -2.890  26.664  0.00  0.00    +0.101 C 
ATOM     29  N   UNL     1       3.856  -1.670  25.892  0.00  0.00    -0.310 NA
ATOM     30  H   UNL     1       4.619  -1.570  25.215  0.00  0.00    +0.122 HD
ENDBRANCH  21  29
BRANCH  22  31
ATOM     31  O   UNL     1       1.315  -0.890  26.941  0.00  0.00    -0.387 OA
ATOM     32  H   UNL     1       0.575  -0.939  27.568  0.00  0.00    +0.210 HD
ENDBRANCH  22  31
BRANCH  23  33
ATOM     33  O   UNL     1       1.286   0.477  29.493  0.00  0.00    -0.387 OA
ATOM     34  H   UNL     1       1.587  -0.241  30.079  0.00  0.00    +0.210 HD
ENDBRANCH  23  33
ENDBRANCH  20  27
ENDBRANCH   1  20
BRANCH  13  35
ATOM     35  O   UNL     1       9.221  -1.754  25.654  0.00  0.00    -0.451 OA
BRANCH  35  36
ATOM     36  C   UNL     1       9.150  -2.332  24.436  0.00  0.00    +0.344 C 
ATOM     37  O   UNL     1      10.153  -2.490  23.738  0.00  0.00    -0.245 OA
BRANCH  36  38
ATOM     38  C   UNL     1       7.816  -2.966  24.030  0.00  0.00    +0.108 A 
ATOM     39  C   UNL     1       7.121  -4.057  24.658  0.00  0.00    +0.003 A 
ATOM     40  C   UNL     1       7.473  -4.578  25.916  0.00  0.00    +0.055 A 
ATOM     41  C   UNL     1       6.725  -5.579  26.557  0.00  0.00    +0.121 A 
ATOM     42  C   UNL     1       5.645  -6.168  25.929  0.00  0.00    +0.049 A 
ATOM     43  C   UNL     1       5.260  -5.740  24.646  0.00  0.00    -0.039 A 
ATOM     44  C   UNL     1       4.142  -6.479  23.937  0.00  0.00    +0.044 C 
ATOM     45  C   UNL     1       5.946  -4.635  24.043  0.00  0.00    -0.014 A 
ATOM     46  C   UNL     1       5.468  -4.051  22.859  0.00  0.00    +0.012 A 
ATOM     47  C   UNL     1       6.061  -2.925  22.312  0.00  0.00    +0.047 A 
ATOM     48  C   UNL     1       7.209  -2.394  22.888  0.00  0.00    +0.131 A 
BRANCH  41  49
ATOM     49  O   UNL     1       7.180  -5.824  27.834  0.00  0.00    -0.495 OA
ATOM     50  C   UNL     1       6.247  -5.928  28.897  0.00  0.00    +0.277 C 
ENDBRANCH  41  49
BRANCH  48  51
ATOM     51  O   UNL     1       7.666  -1.262  22.262  0.00  0.00    -0.506 OA
ATOM     52  H   UNL     1       8.504  -1.476  21.797  0.00  0.00    +0.292 HD
ENDBRANCH  48  51
ENDBRANCH  36  38
ENDBRANCH  35  36
ENDBRANCH  13  35
TORSDOF 11
ENDMDL
