MODEL 1
REMARK VINA RESULT:      -6.6      0.000      0.000
REMARK  Name = 
REMARK  7 active torsions:
REMARK  status: ('A' for Active; 'I' for Inactive)
REMARK    1  A    between atoms: C_2  and  C_4
REMARK    2  A    between atoms: N_7  and  C_12
REMARK    3  A    between atoms: C_15  and  C_17
REMARK    4  A    between atoms: C_17  and  O_18
REMARK    5  A    between atoms: O_18  and  P_19
REMARK    6  A    between atoms: C_23  and  O_25
REMARK    7  A    between atoms: C_26  and  O_28
REMARK                            x       y       z     vdW  Elec       q    Type
REMARK                         _______ _______ _______ _____ _____    ______ ____
ROOT
ATOM      1  C   UNL     1       9.489  -2.339  23.453  0.00  0.00    +0.242 C 
ATOM      2  C   UNL     1       9.171  -3.194  24.709  0.00  0.00    +0.193 C 
ATOM      3  C   UNL     1       7.639  -3.257  24.756  0.00  0.00    +0.178 C 
ATOM      4  C   UNL     1       7.204  -2.555  23.469  0.00  0.00    +0.178 C 
ATOM      5  O   UNL     1       8.350  -2.600  22.613  0.00  0.00    -0.348 OA
ENDROOT
BRANCH   1  11
ATOM      6  C   UNL     1       9.644   1.304  23.514  0.00  0.00    +0.213 C 
ATOM      7  N   UNL     1       9.635   1.024  24.911  0.00  0.00    -0.380 NA
ATOM      8  H   UNL     1      10.262   1.655  25.404  0.00  0.00    +0.374 HD
ATOM      9  H   UNL     1       8.673   1.133  25.230  0.00  0.00    +0.374 HD
ATOM     10  C   UNL     1       9.988  -0.416  25.021  0.00  0.00    +0.402 C 
ATOM     11  N   UNL     1       9.677  -0.903  23.715  0.00  0.00    -0.258 N 
ATOM     12  C   UNL     1       9.743   0.162  22.817  0.00  0.00    +0.031 C 
ATOM     13  O   UNL     1       9.891  -0.125  21.618  0.00  0.00    -0.859 OA
BRANCH   6  17
ATOM     14  N   UNL     1       8.858   2.936  21.932  0.00  0.00    -0.321 N 
ATOM     15  H   UNL     1       8.548   2.117  21.398  0.00  0.00    +0.145 HD
ATOM     16  H   UNL     1       8.690   3.860  21.572  0.00  0.00    +0.145 HD
ATOM     17  C   UNL     1       9.542   2.723  23.086  0.00  0.00    +0.300 C 
ATOM     18  O   UNL     1       9.980   3.621  23.803  0.00  0.00    -0.264 OA
ENDBRANCH   6  17
ENDBRANCH   1  11
BRANCH   2  19
ATOM     19  O   UNL     1       9.736  -4.513  24.575  0.00  0.00    -0.385 OA
ATOM     20  H   UNL     1       9.526  -4.976  25.409  0.00  0.00    +0.210 HD
ENDBRANCH   2  19
BRANCH   3  21
ATOM     21  O   UNL     1       7.121  -2.577  25.909  0.00  0.00    -0.386 OA
ATOM     22  H   UNL     1       6.164  -2.458  25.676  0.00  0.00    +0.210 HD
ENDBRANCH   3  21
BRANCH   4  23
ATOM     23  C   UNL     1       5.974  -3.200  22.854  0.00  0.00    +0.198 C 
BRANCH  23  24
ATOM     24  O   UNL     1       6.390  -3.820  21.652  0.00  0.00    -0.365 OA
BRANCH  24  25
ATOM     25  P   UNL     1       6.119  -5.432  21.558  0.00  0.00    -0.015 P 
ATOM     26  O   UNL     1       7.342  -6.041  22.228  0.00  0.00    -0.638 OA
ATOM     27  O   UNL     1       6.027  -5.662  20.060  0.00  0.00    -0.577 OA
ATOM     28  O   UNL     1       4.812  -5.609  22.313  0.00  0.00    -0.577 OA
ENDBRANCH  24  25
ENDBRANCH  23  24
ENDBRANCH   4  23
TORSDOF 7
ENDMDL
MODEL 2
REMARK VINA RESULT:      -6.6      3.566      6.746
REMARK  Name = 
REMARK  7 active torsions:
REMARK  status: ('A' for Active; 'I' for Inactive)
REMARK    1  A    between atoms: C_2  and  C_4
REMARK    2  A    between atoms: N_7  and  C_12
REMARK    3  A    between atoms: C_15  and  C_17
REMARK    4  A    between atoms: C_17  and  O_18
REMARK    5  A    between atoms: O_18  and  P_19
REMARK    6  A    between atoms: C_23  and  O_25
REMARK    7  A    between atoms: C_26  and  O_28
REMARK                            x       y       z     vdW  Elec       q    Type
REMARK                         _______ _______ _______ _____ _____    ______ ____
ROOT
ATOM      1  C   UNL     1       9.161  -2.386  23.200  0.00  0.00    +0.242 C 
ATOM      2  C   UNL     1       8.510  -1.516  22.091  0.00  0.00    +0.193 C 
ATOM      3  C   UNL     1       7.952  -0.297  22.834  0.00  0.00    +0.178 C 
ATOM      4  C   UNL     1       8.434  -0.492  24.272  0.00  0.00    +0.178 C 
ATOM      5  O   UNL     1       9.537  -1.399  24.177  0.00  0.00    -0.348 OA
ENDROOT
BRANCH   1  11
ATOM      6  C   UNL     1       7.340  -4.868  25.156  0.00  0.00    +0.213 C 
ATOM      7  N   UNL     1       6.336  -4.494  24.217  0.00  0.00    -0.380 NA
ATOM      8  H   UNL     1       5.801  -5.308  23.926  0.00  0.00    +0.374 HD
ATOM      9  H   UNL     1       5.742  -3.804  24.676  0.00  0.00    +0.374 HD
ATOM     10  C   UNL     1       7.067  -3.805  23.120  0.00  0.00    +0.402 C 
ATOM     11  N   UNL     1       8.286  -3.428  23.762  0.00  0.00    -0.258 N 
ATOM     12  C   UNL     1       8.508  -4.291  24.834  0.00  0.00    +0.031 C 
ATOM     13  O   UNL     1       9.674  -4.372  25.254  0.00  0.00    -0.859 OA
BRANCH   6  17
ATOM     14  N   UNL     1       7.863  -5.886  27.271  0.00  0.00    -0.321 N 
ATOM     15  H   UNL     1       8.772  -5.425  27.151  0.00  0.00    +0.145 HD
ATOM     16  H   UNL     1       7.687  -6.436  28.095  0.00  0.00    +0.145 HD
ATOM     17  C   UNL     1       6.954  -5.774  26.268  0.00  0.00    +0.300 C 
ATOM     18  O   UNL     1       5.840  -6.294  26.287  0.00  0.00    -0.264 OA
ENDBRANCH   6  17
ENDBRANCH   1  11
BRANCH   2  19
ATOM     19  O   UNL     1       9.497  -1.120  21.118  0.00  0.00    -0.385 OA
ATOM     20  H   UNL     1      10.121  -1.868  21.056  0.00  0.00    +0.210 HD
ENDBRANCH   2  19
BRANCH   3  21
ATOM     21  O   UNL     1       6.519  -0.256  22.777  0.00  0.00    -0.386 OA
ATOM     22  H   UNL     1       6.260  -1.060  23.298  0.00  0.00    +0.210 HD
ENDBRANCH   3  21
BRANCH   4  23
ATOM     23  C   UNL     1       8.801   0.824  24.936  0.00  0.00    +0.198 C 
BRANCH  23  24
ATOM     24  O   UNL     1       8.779   1.817  23.927  0.00  0.00    -0.365 OA
BRANCH  24  25
ATOM     25  P   UNL     1      10.246   2.313  23.394  0.00  0.00    -0.015 P 
ATOM     26  O   UNL     1      10.219   3.818  23.616  0.00  0.00    -0.638 OA
ATOM     27  O   UNL     1      10.230   1.879  21.939  0.00  0.00    -0.577 OA
ATOM     28  O   UNL     1      11.215   1.547  24.279  0.00  0.00    -0.577 OA
ENDBRANCH  24  25
ENDBRANCH  23  24
ENDBRANCH   4  23
TORSDOF 7
ENDMDL
MODEL 3
REMARK VINA RESULT:      -6.4      1.871      2.330
REMARK  Name = 
REMARK  7 active torsions:
REMARK  status: ('A' for Active; 'I' for Inactive)
REMARK    1  A    between atoms: C_2  and  C_4
REMARK    2  A    between atoms: N_7  and  C_12
REMARK    3  A    between atoms: C_15  and  C_17
REMARK    4  A    between atoms: C_17  and  O_18
REMARK    5  A    between atoms: O_18  and  P_19
REMARK    6  A    between atoms: C_23  and  O_25
REMARK    7  A    between atoms: C_26  and  O_28
REMARK                            x       y       z     vdW  Elec       q    Type
REMARK                         _______ _______ _______ _____ _____    ______ ____
ROOT
ATOM      1  C   UNL     1       9.484  -3.356  24.587  0.00  0.00    +0.242 C 
ATOM      2  C   UNL     1       8.797  -3.722  25.930  0.00  0.00    +0.193 C 
ATOM      3  C   UNL     1       7.343  -4.028  25.549  0.00  0.00    +0.178 C 
ATOM      4  C   UNL     1       7.339  -3.944  24.022  0.00  0.00    +0.178 C 
ATOM      5  O   UNL     1       8.707  -4.105  23.636  0.00  0.00    -0.348 OA
ENDROOT
BRANCH   1  11
ATOM      6  C   UNL     1       9.575   0.011  23.188  0.00  0.00    +0.213 C 
ATOM      7  N   UNL     1       8.878   0.257  24.406  0.00  0.00    -0.380 NA
ATOM      8  H   UNL     1       9.177   1.140  24.814  0.00  0.00    +0.374 HD
ATOM      9  H   UNL     1       7.883   0.271  24.181  0.00  0.00    +0.374 HD
ATOM     10  C   UNL     1       9.136  -0.938  25.250  0.00  0.00    +0.402 C 
ATOM     11  N   UNL     1       9.513  -1.917  24.280  0.00  0.00    -0.258 N 
ATOM     12  C   UNL     1      10.011  -1.258  23.157  0.00  0.00    +0.031 C 
ATOM     13  O   UNL     1      10.733  -1.921  22.394  0.00  0.00    -0.859 OA
BRANCH   6  17
ATOM     14  N   UNL     1       8.943   0.997  21.087  0.00  0.00    -0.321 N 
ATOM     15  H   UNL     1       8.432   0.119  20.946  0.00  0.00    +0.145 HD
ATOM     16  H   UNL     1       8.912   1.712  20.381  0.00  0.00    +0.145 HD
ATOM     17  C   UNL     1       9.694   1.125  22.213  0.00  0.00    +0.300 C 
ATOM     18  O   UNL     1      10.363   2.120  22.485  0.00  0.00    -0.264 OA
ENDBRANCH   6  17
ENDBRANCH   1  11
BRANCH   2  19
ATOM     19  O   UNL     1       9.429  -4.876  26.520  0.00  0.00    -0.385 OA
ATOM     20  H   UNL     1       9.058  -5.648  26.052  0.00  0.00    +0.210 HD
ENDBRANCH   2  19
BRANCH   3  21
ATOM     21  O   UNL     1       6.439  -3.070  26.116  0.00  0.00    -0.386 OA
ATOM     22  H   UNL     1       6.284  -3.432  27.026  0.00  0.00    +0.210 HD
ENDBRANCH   3  21
BRANCH   4  23
ATOM     23  C   UNL     1       6.418  -4.976  23.396  0.00  0.00    +0.198 C 
BRANCH  23  24
ATOM     24  O   UNL     1       5.724  -5.609  24.454  0.00  0.00    -0.365 OA
BRANCH  24  25
ATOM     25  P   UNL     1       4.178  -6.040  24.128  0.00  0.00    -0.015 P 
ATOM     26  O   UNL     1       3.969  -5.574  22.695  0.00  0.00    -0.638 OA
ATOM     27  O   UNL     1       3.395  -5.268  25.175  0.00  0.00    -0.577 OA
ATOM     28  O   UNL     1       4.190  -7.548  24.322  0.00  0.00    -0.577 OA
ENDBRANCH  24  25
ENDBRANCH  23  24
ENDBRANCH   4  23
TORSDOF 7
ENDMDL
MODEL 4
REMARK VINA RESULT:      -6.2      3.555      6.109
REMARK  Name = 
REMARK  7 active torsions:
REMARK  status: ('A' for Active; 'I' for Inactive)
REMARK    1  A    between atoms: C_2  and  C_4
REMARK    2  A    between atoms: N_7  and  C_12
REMARK    3  A    between atoms: C_15  and  C_17
REMARK    4  A    between atoms: C_17  and  O_18
REMARK    5  A    between atoms: O_18  and  P_19
REMARK    6  A    between atoms: C_23  and  O_25
REMARK    7  A    between atoms: C_26  and  O_28
REMARK                            x       y       z     vdW  Elec       q    Type
REMARK                         _______ _______ _______ _____ _____    ______ ____
ROOT
ATOM      1  C   UNL     1       6.993  -2.525  25.914  0.00  0.00    +0.242 C 
ATOM      2  C   UNL     1       8.260  -2.313  25.041  0.00  0.00    +0.193 C 
ATOM      3  C   UNL     1       7.926  -2.989  23.706  0.00  0.00    +0.178 C 
ATOM      4  C   UNL     1       6.466  -3.414  23.865  0.00  0.00    +0.178 C 
ATOM      5  O   UNL     1       5.953  -2.599  24.922  0.00  0.00    -0.348 OA
ENDROOT
BRANCH   1  11
ATOM      6  C   UNL     1       6.417  -5.435  28.035  0.00  0.00    +0.213 C 
ATOM      7  N   UNL     1       7.677  -5.778  27.464  0.00  0.00    -0.380 NA
ATOM      8  H   UNL     1       8.272  -6.223  28.158  0.00  0.00    +0.374 HD
ATOM      9  H   UNL     1       7.488  -6.403  26.682  0.00  0.00    +0.374 HD
ATOM     10  C   UNL     1       8.211  -4.506  26.910  0.00  0.00    +0.402 C 
ATOM     11  N   UNL     1       7.030  -3.714  26.779  0.00  0.00    -0.258 N 
ATOM     12  C   UNL     1       6.079  -4.185  27.684  0.00  0.00    +0.031 C 
ATOM     13  O   UNL     1       5.164  -3.403  27.990  0.00  0.00    -0.859 OA
BRANCH   6  17
ATOM     14  N   UNL     1       4.968  -5.960  29.882  0.00  0.00    -0.321 N 
ATOM     15  H   UNL     1       4.999  -4.950  30.060  0.00  0.00    +0.145 HD
ATOM     16  H   UNL     1       4.422  -6.556  30.480  0.00  0.00    +0.145 HD
ATOM     17  C   UNL     1       5.727  -6.452  28.868  0.00  0.00    +0.300 C 
ATOM     18  O   UNL     1       5.787  -7.644  28.569  0.00  0.00    -0.264 OA
ENDBRANCH   6  17
ENDBRANCH   1  11
BRANCH   2  19
ATOM     19  O   UNL     1       8.515  -0.906  24.858  0.00  0.00    -0.385 OA
ATOM     20  H   UNL     1       9.040  -0.630  25.633  0.00  0.00    +0.210 HD
ENDBRANCH   2  19
BRANCH   3  21
ATOM     21  O   UNL     1       8.767  -4.127  23.468  0.00  0.00    -0.386 OA
ATOM     22  H   UNL     1       9.614  -3.709  23.163  0.00  0.00    +0.210 HD
ENDBRANCH   3  21
BRANCH   4  23
ATOM     23  C   UNL     1       5.686  -3.273  22.570  0.00  0.00    +0.198 C 
BRANCH  23  24
ATOM     24  O   UNL     1       6.420  -3.951  21.568  0.00  0.00    -0.365 OA
BRANCH  24  25
ATOM     25  P   UNL     1       6.092  -5.548  21.411  0.00  0.00    -0.015 P 
ATOM     26  O   UNL     1       7.304  -6.227  22.030  0.00  0.00    -0.638 OA
ATOM     27  O   UNL     1       5.964  -5.710  19.906  0.00  0.00    -0.577 OA
ATOM     28  O   UNL     1       4.794  -5.714  22.184  0.00  0.00    -0.577 OA
ENDBRANCH  24  25
ENDBRANCH  23  24
ENDBRANCH   4  23
TORSDOF 7
ENDMDL
MODEL 5
REMARK VINA RESULT:      -6.1      2.814      4.074
REMARK  Name = 
REMARK  7 active torsions:
REMARK  status: ('A' for Active; 'I' for Inactive)
REMARK    1  A    between atoms: C_2  and  C_4
REMARK    2  A    between atoms: N_7  and  C_12
REMARK    3  A    between atoms: C_15  and  C_17
REMARK    4  A    between atoms: C_17  and  O_18
REMARK    5  A    between atoms: O_18  and  P_19
REMARK    6  A    between atoms: C_23  and  O_25
REMARK    7  A    between atoms: C_26  and  O_28
REMARK                            x       y       z     vdW  Elec       q    Type
REMARK                         _______ _______ _______ _____ _____    ______ ____
ROOT
ATOM      1  C   UNL     1       7.358  -3.426  23.942  0.00  0.00    +0.242 C 
ATOM      2  C   UNL     1       8.091  -4.726  23.512  0.00  0.00    +0.193 C 
ATOM      3  C   UNL     1       8.596  -5.337  24.824  0.00  0.00    +0.178 C 
ATOM      4  C   UNL     1       8.010  -4.426  25.903  0.00  0.00    +0.178 C 
ATOM      5  O   UNL     1       6.915  -3.756  25.271  0.00  0.00    -0.348 OA
ENDROOT
BRANCH   1  11
ATOM      6  C   UNL     1       8.983  -0.184  24.327  0.00  0.00    +0.213 C 
ATOM      7  N   UNL     1      10.095  -0.984  23.936  0.00  0.00    -0.380 NA
ATOM      8  H   UNL     1      10.702  -0.465  23.306  0.00  0.00    +0.374 HD
ATOM      9  H   UNL     1      10.586  -1.248  24.790  0.00  0.00    +0.374 HD
ATOM     10  C   UNL     1       9.502  -2.216  23.354  0.00  0.00    +0.402 C 
ATOM     11  N   UNL     1       8.187  -2.211  23.912  0.00  0.00    -0.258 N 
ATOM     12  C   UNL     1       7.850  -0.897  24.238  0.00  0.00    +0.031 C 
ATOM     13  O   UNL     1       6.640  -0.645  24.360  0.00  0.00    -0.859 OA
BRANCH   6  17
ATOM     14  N   UNL     1       8.364   1.729  25.648  0.00  0.00    -0.321 N 
ATOM     15  H   UNL     1       7.546   1.161  25.898  0.00  0.00    +0.145 HD
ATOM     16  H   UNL     1       8.469   2.651  26.034  0.00  0.00    +0.145 HD
ATOM     17  C   UNL     1       9.243   1.217  24.747  0.00  0.00    +0.300 C 
ATOM     18  O   UNL     1      10.248   1.806  24.355  0.00  0.00    -0.264 OA
ENDBRANCH   6  17
ENDBRANCH   1  11
BRANCH   2  19
ATOM     19  O   UNL     1       7.178  -5.620  22.844  0.00  0.00    -0.385 OA
ATOM     20  H   UNL     1       7.726  -6.356  22.511  0.00  0.00    +0.210 HD
ENDBRANCH   2  19
BRANCH   3  21
ATOM     21  O   UNL     1      10.030  -5.343  24.884  0.00  0.00    -0.386 OA
ATOM     22  H   UNL     1      10.211  -5.964  25.635  0.00  0.00    +0.210 HD
ENDBRANCH   3  21
BRANCH   4  23
ATOM     23  C   UNL     1       7.599  -5.200  27.143  0.00  0.00    +0.198 C 
BRANCH  23  24
ATOM     24  O   UNL     1       6.590  -6.110  26.749  0.00  0.00    -0.365 OA
BRANCH  24  25
ATOM     25  P   UNL     1       5.346  -6.285  27.800  0.00  0.00    -0.015 P 
ATOM     26  O   UNL     1       5.740  -7.502  28.624  0.00  0.00    -0.638 OA
ATOM     27  O   UNL     1       4.161  -6.493  26.873  0.00  0.00    -0.577 OA
ATOM     28  O   UNL     1       5.343  -4.966  28.556  0.00  0.00    -0.577 OA
ENDBRANCH  24  25
ENDBRANCH  23  24
ENDBRANCH   4  23
TORSDOF 7
ENDMDL
MODEL 6
REMARK VINA RESULT:      -6.1      3.715      6.662
REMARK  Name = 
REMARK  7 active torsions:
REMARK  status: ('A' for Active; 'I' for Inactive)
REMARK    1  A    between atoms: C_2  and  C_4
REMARK    2  A    between atoms: N_7  and  C_12
REMARK    3  A    between atoms: C_15  and  C_17
REMARK    4  A    between atoms: C_17  and  O_18
REMARK    5  A    between atoms: O_18  and  P_19
REMARK    6  A    between atoms: C_23  and  O_25
REMARK    7  A    between atoms: C_26  and  O_28
REMARK                            x       y       z     vdW  Elec       q    Type
REMARK                         _______ _______ _______ _____ _____    ______ ____
ROOT
ATOM      1  C   UNL     1       7.907  -5.243  23.807  0.00  0.00    +0.242 C 
ATOM      2  C   UNL     1       6.631  -5.304  22.924  0.00  0.00    +0.193 C 
ATOM      3  C   UNL     1       6.302  -3.837  22.619  0.00  0.00    +0.178 C 
ATOM      4  C   UNL     1       7.472  -3.065  23.230  0.00  0.00    +0.178 C 
ATOM      5  O   UNL     1       8.526  -4.023  23.359  0.00  0.00    -0.348 OA
ENDROOT
BRANCH   1  11
ATOM      6  C   UNL     1       6.827  -5.716  27.258  0.00  0.00    +0.213 C 
ATOM      7  N   UNL     1       8.175  -5.302  27.465  0.00  0.00    -0.380 NA
ATOM      8  H   UNL     1       8.237  -4.686  28.272  0.00  0.00    +0.374 HD
ATOM      9  H   UNL     1       8.728  -6.148  27.600  0.00  0.00    +0.374 HD
ATOM     10  C   UNL     1       8.593  -4.686  26.178  0.00  0.00    +0.402 C 
ATOM     11  N   UNL     1       7.656  -5.246  25.257  0.00  0.00    -0.258 N 
ATOM     12  C   UNL     1       6.508  -5.609  25.960  0.00  0.00    +0.031 C 
ATOM     13  O   UNL     1       5.465  -5.739  25.297  0.00  0.00    -0.859 OA
BRANCH   6  17
ATOM     14  N   UNL     1       5.332  -7.315  28.255  0.00  0.00    -0.321 N 
ATOM     15  H   UNL     1       5.302  -7.720  27.313  0.00  0.00    +0.145 HD
ATOM     16  H   UNL     1       4.804  -7.740  28.999  0.00  0.00    +0.145 HD
ATOM     17  C   UNL     1       6.048  -6.175  28.437  0.00  0.00    +0.300 C 
ATOM     18  O   UNL     1       6.146  -5.587  29.512  0.00  0.00    -0.264 OA
ENDBRANCH   6  17
ENDBRANCH   1  11
BRANCH   2  19
ATOM     19  O   UNL     1       6.894  -6.037  21.711  0.00  0.00    -0.385 OA
ATOM     20  H   UNL     1       7.589  -6.683  21.939  0.00  0.00    +0.210 HD
ENDBRANCH   2  19
BRANCH   3  21
ATOM     21  O   UNL     1       5.060  -3.442  23.218  0.00  0.00    -0.386 OA
ATOM     22  H   UNL     1       5.084  -2.454  23.132  0.00  0.00    +0.210 HD
ENDBRANCH   3  21
BRANCH   4  23
ATOM     23  C   UNL     1       7.861  -1.860  22.390  0.00  0.00    +0.198 C 
BRANCH  23  24
ATOM     24  O   UNL     1       8.566  -0.974  23.239  0.00  0.00    -0.365 OA
BRANCH  24  25
ATOM     25  P   UNL     1      10.037  -0.498  22.698  0.00  0.00    -0.015 P 
ATOM     26  O   UNL     1      10.662   0.183  23.906  0.00  0.00    -0.638 OA
ATOM     27  O   UNL     1       9.677   0.432  21.552  0.00  0.00    -0.577 OA
ATOM     28  O   UNL     1      10.693  -1.803  22.280  0.00  0.00    -0.577 OA
ENDBRANCH  24  25
ENDBRANCH  23  24
ENDBRANCH   4  23
TORSDOF 7
ENDMDL
MODEL 7
REMARK VINA RESULT:      -6.1      2.417      3.204
REMARK  Name = 
REMARK  7 active torsions:
REMARK  status: ('A' for Active; 'I' for Inactive)
REMARK    1  A    between atoms: C_2  and  C_4
REMARK    2  A    between atoms: N_7  and  C_12
REMARK    3  A    between atoms: C_15  and  C_17
REMARK    4  A    between atoms: C_17  and  O_18
REMARK    5  A    between atoms: O_18  and  P_19
REMARK    6  A    between atoms: C_23  and  O_25
REMARK    7  A    between atoms: C_26  and  O_28
REMARK                            x       y       z     vdW  Elec       q    Type
REMARK                         _______ _______ _______ _____ _____    ______ ____
ROOT
ATOM      1  C   UNL     1       8.552  -4.357  25.634  0.00  0.00    +0.242 C 
ATOM      2  C   UNL     1       7.513  -4.676  26.742  0.00  0.00    +0.193 C 
ATOM      3  C   UNL     1       6.199  -4.903  25.985  0.00  0.00    +0.178 C 
ATOM      4  C   UNL     1       6.606  -4.828  24.514  0.00  0.00    +0.178 C 
ATOM      5  O   UNL     1       8.016  -5.067  24.503  0.00  0.00    -0.348 OA
ENDROOT
BRANCH   1  11
ATOM      6  C   UNL     1       9.148  -1.005  24.326  0.00  0.00    +0.213 C 
ATOM      7  N   UNL     1       8.248  -0.709  25.391  0.00  0.00    -0.380 NA
ATOM      8  H   UNL     1       8.525   0.149  25.861  0.00  0.00    +0.374 HD
ATOM      9  H   UNL     1       7.319  -0.624  24.980  0.00  0.00    +0.374 HD
ATOM     10  C   UNL     1       8.254  -1.921  26.252  0.00  0.00    +0.402 C 
ATOM     11  N   UNL     1       8.741  -2.923  25.359  0.00  0.00    -0.258 N 
ATOM     12  C   UNL     1       9.491  -2.301  24.361  0.00  0.00    +0.031 C 
ATOM     13  O   UNL     1      10.298  -3.014  23.742  0.00  0.00    -0.859 OA
BRANCH   6  17
ATOM     14  N   UNL     1       9.815  -0.276  22.133  0.00  0.00    -0.321 N 
ATOM     15  H   UNL     1       9.840  -1.280  21.920  0.00  0.00    +0.145 HD
ATOM     16  H   UNL     1      10.042   0.392  21.416  0.00  0.00    +0.145 HD
ATOM     17  C   UNL     1       9.530   0.098  23.408  0.00  0.00    +0.300 C 
ATOM     18  O   UNL     1       9.488   1.266  23.789  0.00  0.00    -0.264 OA
ENDBRANCH   6  17
ENDBRANCH   1  11
BRANCH   2  19
ATOM     19  O   UNL     1       7.901  -5.860  27.469  0.00  0.00    -0.385 OA
ATOM     20  H   UNL     1       8.463  -5.546  28.202  0.00  0.00    +0.210 HD
ENDBRANCH   2  19
BRANCH   3  21
ATOM     21  O   UNL     1       5.230  -3.893  26.300  0.00  0.00    -0.386 OA
ATOM     22  H   UNL     1       4.504  -4.081  25.651  0.00  0.00    +0.210 HD
ENDBRANCH   3  21
BRANCH   4  23
ATOM     23  C   UNL     1       5.828  -5.811  23.655  0.00  0.00    +0.198 C 
BRANCH  23  24
ATOM     24  O   UNL     1       4.987  -6.545  24.525  0.00  0.00    -0.365 OA
BRANCH  24  25
ATOM     25  P   UNL     1       3.394  -6.531  24.145  0.00  0.00    -0.015 P 
ATOM     26  O   UNL     1       2.995  -7.997  24.213  0.00  0.00    -0.638 OA
ATOM     27  O   UNL     1       3.395  -5.929  22.751  0.00  0.00    -0.577 OA
ATOM     28  O   UNL     1       2.788  -5.646  25.223  0.00  0.00    -0.577 OA
ENDBRANCH  24  25
ENDBRANCH  23  24
ENDBRANCH   4  23
TORSDOF 7
ENDMDL
MODEL 8
REMARK VINA RESULT:      -6.0      2.439      3.561
REMARK  Name = 
REMARK  7 active torsions:
REMARK  status: ('A' for Active; 'I' for Inactive)
REMARK    1  A    between atoms: C_2  and  C_4
REMARK    2  A    between atoms: N_7  and  C_12
REMARK    3  A    between atoms: C_15  and  C_17
REMARK    4  A    between atoms: C_17  and  O_18
REMARK    5  A    between atoms: O_18  and  P_19
REMARK    6  A    between atoms: C_23  and  O_25
REMARK    7  A    between atoms: C_26  and  O_28
REMARK                            x       y       z     vdW  Elec       q    Type
REMARK                         _______ _______ _______ _____ _____    ______ ____
ROOT
ATOM      1  C   UNL     1       6.544  -2.356  22.696  0.00  0.00    +0.242 C 
ATOM      2  C   UNL     1       6.757  -3.848  22.326  0.00  0.00    +0.193 C 
ATOM      3  C   UNL     1       7.115  -4.528  23.653  0.00  0.00    +0.178 C 
ATOM      4  C   UNL     1       6.954  -3.416  24.690  0.00  0.00    +0.178 C 
ATOM      5  O   UNL     1       6.111  -2.443  24.066  0.00  0.00    -0.348 OA
ENDROOT
BRANCH   1  11
ATOM      6  C   UNL     1       9.174   0.172  22.717  0.00  0.00    +0.213 C 
ATOM      7  N   UNL     1       9.944  -0.999  22.456  0.00  0.00    -0.380 NA
ATOM      8  H   UNL     1      10.678  -0.797  21.782  0.00  0.00    +0.374 HD
ATOM      9  H   UNL     1      10.332  -1.304  23.348  0.00  0.00    +0.374 HD
ATOM     10  C   UNL     1       8.959  -2.022  22.016  0.00  0.00    +0.402 C 
ATOM     11  N   UNL     1       7.734  -1.504  22.537  0.00  0.00    -0.258 N 
ATOM     12  C   UNL     1       7.865  -0.124  22.689  0.00  0.00    +0.031 C 
ATOM     13  O   UNL     1       6.814   0.535  22.749  0.00  0.00    -0.859 OA
BRANCH   6  17
ATOM     14  N   UNL     1      10.174   2.185  21.863  0.00  0.00    -0.321 N 
ATOM     15  H   UNL     1       9.954   1.782  20.945  0.00  0.00    +0.145 HD
ATOM     16  H   UNL     1      10.621   3.084  21.919  0.00  0.00    +0.145 HD
ATOM     17  C   UNL     1       9.898   1.443  22.967  0.00  0.00    +0.300 C 
ATOM     18  O   UNL     1      10.131   1.810  24.118  0.00  0.00    -0.264 OA
ENDBRANCH   6  17
ENDBRANCH   1  11
BRANCH   2  19
ATOM     19  O   UNL     1       5.549  -4.406  21.771  0.00  0.00    -0.385 OA
ATOM     20  H   UNL     1       5.815  -4.829  20.933  0.00  0.00    +0.210 HD
ENDBRANCH   2  19
BRANCH   3  21
ATOM     21  O   UNL     1       8.461  -5.025  23.642  0.00  0.00    -0.386 OA
ATOM     22  H   UNL     1       8.480  -5.614  24.440  0.00  0.00    +0.210 HD
ENDBRANCH   3  21
BRANCH   4  23
ATOM     23  C   UNL     1       6.394  -3.936  26.003  0.00  0.00    +0.198 C 
BRANCH  23  24
ATOM     24  O   UNL     1       6.481  -5.348  25.960  0.00  0.00    -0.365 OA
BRANCH  24  25
ATOM     25  P   UNL     1       5.107  -6.153  26.340  0.00  0.00    -0.015 P 
ATOM     26  O   UNL     1       4.128  -5.044  26.696  0.00  0.00    -0.638 OA
ATOM     27  O   UNL     1       5.547  -7.020  27.507  0.00  0.00    -0.577 OA
ATOM     28  O   UNL     1       4.786  -6.914  25.064  0.00  0.00    -0.577 OA
ENDBRANCH  24  25
ENDBRANCH  23  24
ENDBRANCH   4  23
TORSDOF 7
ENDMDL
MODEL 9
REMARK VINA RESULT:      -6.0      2.051      2.873
REMARK  Name = 
REMARK  7 active torsions:
REMARK  status: ('A' for Active; 'I' for Inactive)
REMARK    1  A    between atoms: C_2  and  C_4
REMARK    2  A    between atoms: N_7  and  C_12
REMARK    3  A    between atoms: C_15  and  C_17
REMARK    4  A    between atoms: C_17  and  O_18
REMARK    5  A    between atoms: O_18  and  P_19
REMARK    6  A    between atoms: C_23  and  O_25
REMARK    7  A    between atoms: C_26  and  O_28
REMARK                            x       y       z     vdW  Elec       q    Type
REMARK                         _______ _______ _______ _____ _____    ______ ____
ROOT
ATOM      1  C   UNL     1       8.503  -4.460  25.847  0.00  0.00    +0.242 C 
ATOM      2  C   UNL     1       7.511  -4.720  27.012  0.00  0.00    +0.193 C 
ATOM      3  C   UNL     1       6.145  -4.868  26.331  0.00  0.00    +0.178 C 
ATOM      4  C   UNL     1       6.472  -4.814  24.839  0.00  0.00    +0.178 C 
ATOM      5  O   UNL     1       7.863  -5.136  24.749  0.00  0.00    -0.348 OA
ENDROOT
BRANCH   1  11
ATOM      6  C   UNL     1       9.223  -1.148  24.501  0.00  0.00    +0.213 C 
ATOM      7  N   UNL     1       8.400  -0.801  25.613  0.00  0.00    -0.380 NA
ATOM      8  H   UNL     1       8.752   0.039  26.065  0.00  0.00    +0.374 HD
ATOM      9  H   UNL     1       7.457  -0.661  25.252  0.00  0.00    +0.374 HD
ATOM     10  C   UNL     1       8.382  -2.012  26.475  0.00  0.00    +0.402 C 
ATOM     11  N   UNL     1       8.760  -3.040  25.559  0.00  0.00    -0.258 N 
ATOM     12  C   UNL     1       9.490  -2.462  24.521  0.00  0.00    +0.031 C 
ATOM     13  O   UNL     1      10.219  -3.221  23.860  0.00  0.00    -0.859 OA
BRANCH   6  17
ATOM     14  N   UNL     1       8.670   0.298  22.660  0.00  0.00    -0.321 N 
ATOM     15  H   UNL     1       7.801  -0.247  22.628  0.00  0.00    +0.145 HD
ATOM     16  H   UNL     1       8.814   1.048  22.006  0.00  0.00    +0.145 HD
ATOM     17  C   UNL     1       9.618  -0.068  23.562  0.00  0.00    +0.300 C 
ATOM     18  O   UNL     1      10.705   0.494  23.684  0.00  0.00    -0.264 OA
ENDBRANCH   6  17
ENDBRANCH   1  11
BRANCH   2  19
ATOM     19  O   UNL     1       7.868  -5.925  27.718  0.00  0.00    -0.385 OA
ATOM     20  H   UNL     1       8.801  -6.098  27.488  0.00  0.00    +0.210 HD
ENDBRANCH   2  19
BRANCH   3  21
ATOM     21  O   UNL     1       5.257  -3.802  26.698  0.00  0.00    -0.386 OA
ATOM     22  H   UNL     1       5.273  -3.222  25.894  0.00  0.00    +0.210 HD
ENDBRANCH   3  21
BRANCH   4  23
ATOM     23  C   UNL     1       5.591  -5.748  24.027  0.00  0.00    +0.198 C 
BRANCH  23  24
ATOM     24  O   UNL     1       6.258  -5.986  22.801  0.00  0.00    -0.365 OA
BRANCH  24  25
ATOM     25  P   UNL     1       6.066  -4.831  21.656  0.00  0.00    -0.015 P 
ATOM     26  O   UNL     1       4.776  -4.133  22.062  0.00  0.00    -0.638 OA
ATOM     27  O   UNL     1       5.980  -5.648  20.379  0.00  0.00    -0.577 OA
ATOM     28  O   UNL     1       7.325  -3.992  21.795  0.00  0.00    -0.577 OA
ENDBRANCH  24  25
ENDBRANCH  23  24
ENDBRANCH   4  23
TORSDOF 7
ENDMDL
