MODEL 1
REMARK VINA RESULT:      -6.1      0.000      0.000
REMARK  Name = 
REMARK  23 active torsions:
REMARK  status: ('A' for Active; 'I' for Inactive)
REMARK    1  A    between atoms: C_1  and  O_2
REMARK    2  A    between atoms: O_2  and  C_3
REMARK    3  A    between atoms: C_3  and  C_5
REMARK    4  A    between atoms: C_11  and  C_13
REMARK    5  A    between atoms: C_13  and  C_15
REMARK    6  A    between atoms: C_13  and  N_16
REMARK    7  A    between atoms: N_16  and  P_17
REMARK    8  A    between atoms: P_17  and  O_18
REMARK    9  A    between atoms: P_17  and  C_20
REMARK   10  A    between atoms: C_20  and  C_22
REMARK   11  A    between atoms: C_20  and  N_29
REMARK   12  A    between atoms: C_22  and  C_23
REMARK   13  A    between atoms: C_30  and  C_32
REMARK   14  A    between atoms: C_32  and  C_34
REMARK   15  A    between atoms: C_32  and  N_42
REMARK   16  A    between atoms: C_34  and  C_35
REMARK   17  A    between atoms: C_35  and  C_36
REMARK   18  A    between atoms: C_36  and  C_37
REMARK   19  A    between atoms: C_37  and  N_38
REMARK   20  A    between atoms: C_43  and  C_45
REMARK   21  A    between atoms: C_51  and  O_53
REMARK   22  A    between atoms: O_53  and  C_54
REMARK   23  A    between atoms: C_54  and  C_55
REMARK                            x       y       z     vdW  Elec       q    Type
REMARK                         _______ _______ _______ _____ _____    ______ ____
ROOT
ATOM      1  N   UNL     1       8.297   1.238  25.529  0.00  0.00    -0.301 N 
ATOM      2  H   UNL     1       7.871   1.986  24.970  0.00  0.00    +0.150 HD
ATOM      3  C   UNL     1       9.477   0.821  24.981  0.00  0.00    +0.234 C 
ATOM      4  O   UNL     1       9.928  -0.301  25.110  0.00  0.00    -0.274 OA
ENDROOT
BRANCH   3   5
ATOM      5  C   UNL     1      10.231   1.864  24.117  0.00  0.00    +0.159 C 
BRANCH   5   6
ATOM      6  N   UNL     1       9.505   3.134  23.997  0.00  0.00    -0.302 N 
ATOM      7  H   UNL     1       8.526   3.117  23.718  0.00  0.00    +0.150 HD
ATOM      8  C   UNL     1      10.149   4.320  23.737  0.00  0.00    +0.234 C 
ATOM      9  O   UNL     1      11.375   4.375  23.651  0.00  0.00    -0.274 OA
BRANCH   8  10
ATOM     10  C   UNL     1       9.231   5.518  23.394  0.00  0.00    +0.165 C 
ATOM     11  N   UNL     1       7.828   5.327  23.762  0.00  0.00    -0.256 N 
ATOM     12  C   UNL     1       6.893   4.822  22.896  0.00  0.00    +0.404 C 
ATOM     13  O   UNL     1       7.195   4.236  21.861  0.00  0.00    -0.226 OA
ATOM     14  C   UNL     1       7.497   6.050  24.982  0.00  0.00    +0.112 C 
ATOM     15  C   UNL     1       8.830   6.585  25.485  0.00  0.00    +0.021 C 
ATOM     16  C   UNL     1       9.629   6.758  24.196  0.00  0.00    +0.033 C 
BRANCH  12  17
ATOM     17  O   UNL     1       5.631   5.065  23.331  0.00  0.00    -0.445 OA
BRANCH  17  18
ATOM     18  C   UNL     1       4.698   3.975  23.303  0.00  0.00    +0.269 C 
BRANCH  18  19
ATOM     19  C   UNL     1       4.251   3.592  24.691  0.00  0.00    -0.010 A 
ATOM     20  C   UNL     1       3.831   4.579  25.593  0.00  0.00    +0.007 A 
ATOM     21  C   UNL     1       3.387   4.225  26.869  0.00  0.00    +0.000 A 
ATOM     22  C   UNL     1       3.373   2.886  27.258  0.00  0.00    +0.000 A 
ATOM     23  C   UNL     1       3.828   1.902  26.384  0.00  0.00    +0.000 A 
ATOM     24  C   UNL     1       4.279   2.254  25.113  0.00  0.00    +0.007 A 
ENDBRANCH  18  19
ENDBRANCH  17  18
ENDBRANCH  12  17
ENDBRANCH   8  10
ENDBRANCH   5   6
BRANCH   5  25
ATOM     25  C   UNL     1      10.380   1.223  22.720  0.00  0.00    +0.032 C 
BRANCH  25  26
ATOM     26  C   UNL     1       9.131   1.239  21.847  0.00  0.00    +0.007 C 
BRANCH  26  27
ATOM     27  C   UNL     1       8.946  -0.047  21.052  0.00  0.00    +0.051 C 
BRANCH  27  28
ATOM     28  C   UNL     1       9.824  -1.139  21.637  0.00  0.00    +0.127 C 
BRANCH  28  29
ATOM     29  N   UNL     1       9.018  -1.962  22.564  0.00  0.00    +0.219 N 
ATOM     30  H   UNL     1       8.224  -2.389  22.071  0.00  0.00    +0.199 HD
ATOM     31  H   UNL     1       8.635  -1.400  23.336  0.00  0.00    +0.199 HD
ATOM     32  H   UNL     1       9.573  -2.724  22.974  0.00  0.00    +0.199 HD
ENDBRANCH  28  29
ENDBRANCH  27  28
ENDBRANCH  26  27
ENDBRANCH  25  26
ENDBRANCH   5  25
ENDBRANCH   3   5
BRANCH   1  33
ATOM     33  C   UNL     1       7.243   0.384  26.147  0.00  0.00    +0.179 C 
BRANCH  33  34
ATOM     34  P   UNL     1       6.819  -1.257  25.466  0.00  0.00    +0.290 P 
ATOM     35  O   UNL     1       6.638  -1.202  23.973  0.00  0.00    -0.271 OA
BRANCH  34  36
ATOM     36  O   UNL     1       5.391  -1.692  26.057  0.00  0.00    -0.332 OA
ATOM     37  H   UNL     1       4.834  -2.074  25.352  0.00  0.00    +0.219 HD
ENDBRANCH  34  36
BRANCH  34  38
ATOM     38  N   UNL     1       7.908  -2.412  25.833  0.00  0.00    -0.233 NA
ATOM     39  H   UNL     1       8.846  -2.039  25.945  0.00  0.00    +0.132 HD
BRANCH  38  40
ATOM     40  C   UNL     1       8.001  -3.752  25.265  0.00  0.00    +0.145 C 
ATOM     41  C   UNL     1       9.453  -4.257  25.292  0.00  0.00    +0.034 C 
BRANCH  40  44
ATOM     42  C   UNL     1       5.631  -5.437  24.184  0.00  0.00    +0.185 C 
ATOM     43  N   UNL     1       6.066  -5.366  25.585  0.00  0.00    -0.287 N 
ATOM     44  C   UNL     1       7.162  -4.732  26.126  0.00  0.00    +0.233 C 
ATOM     45  O   UNL     1       7.476  -4.968  27.299  0.00  0.00    -0.274 OA
ATOM     46  C   UNL     1       5.318  -6.289  26.421  0.00  0.00    +0.109 C 
ATOM     47  C   UNL     1       4.188  -6.791  25.548  0.00  0.00    +0.021 C 
ATOM     48  C   UNL     1       4.794  -6.730  24.148  0.00  0.00    +0.035 C 
BRANCH  42  49
ATOM     49  C   UNL     1       4.733  -4.302  23.671  0.00  0.00    +0.328 C 
ATOM     50  O   UNL     1       4.006  -3.655  24.418  0.00  0.00    -0.249 OA
BRANCH  49  52
ATOM     51  C   UNL     1       6.256  -4.296  21.856  0.00  0.00    +0.280 C 
ATOM     52  O   UNL     1       4.943  -4.028  22.357  0.00  0.00    -0.467 OA
ENDBRANCH  49  52
ENDBRANCH  42  49
ENDBRANCH  40  44
ENDBRANCH  38  40
ENDBRANCH  34  38
ENDBRANCH  33  34
BRANCH  33  53
ATOM     53  C   UNL     1       7.570   0.238  27.658  0.00  0.00    +0.068 C 
BRANCH  53  54
ATOM     54  C   UNL     1       6.782   1.191  28.527  0.00  0.00    -0.045 A 
ATOM     55  C   UNL     1       5.765   0.727  29.369  0.00  0.00    +0.004 A 
ATOM     56  C   UNL     1       5.092   1.615  30.210  0.00  0.00    +0.000 A 
ATOM     57  C   UNL     1       5.424   2.969  30.212  0.00  0.00    +0.000 A 
ATOM     58  C   UNL     1       6.419   3.442  29.361  0.00  0.00    +0.000 A 
ATOM     59  C   UNL     1       7.085   2.559  28.515  0.00  0.00    +0.004 A 
ENDBRANCH  53  54
ENDBRANCH  33  53
ENDBRANCH   1  33
TORSDOF 21
ENDMDL
MODEL 2
REMARK VINA RESULT:      -6.0      1.869      5.407
REMARK  Name = 
REMARK  23 active torsions:
REMARK  status: ('A' for Active; 'I' for Inactive)
REMARK    1  A    between atoms: C_1  and  O_2
REMARK    2  A    between atoms: O_2  and  C_3
REMARK    3  A    between atoms: C_3  and  C_5
REMARK    4  A    between atoms: C_11  and  C_13
REMARK    5  A    between atoms: C_13  and  C_15
REMARK    6  A    between atoms: C_13  and  N_16
REMARK    7  A    between atoms: N_16  and  P_17
REMARK    8  A    between atoms: P_17  and  O_18
REMARK    9  A    between atoms: P_17  and  C_20
REMARK   10  A    between atoms: C_20  and  C_22
REMARK   11  A    between atoms: C_20  and  N_29
REMARK   12  A    between atoms: C_22  and  C_23
REMARK   13  A    between atoms: C_30  and  C_32
REMARK   14  A    between atoms: C_32  and  C_34
REMARK   15  A    between atoms: C_32  and  N_42
REMARK   16  A    between atoms: C_34  and  C_35
REMARK   17  A    between atoms: C_35  and  C_36
REMARK   18  A    between atoms: C_36  and  C_37
REMARK   19  A    between atoms: C_37  and  N_38
REMARK   20  A    between atoms: C_43  and  C_45
REMARK   21  A    between atoms: C_51  and  O_53
REMARK   22  A    between atoms: O_53  and  C_54
REMARK   23  A    between atoms: C_54  and  C_55
REMARK                            x       y       z     vdW  Elec       q    Type
REMARK                         _______ _______ _______ _____ _____    ______ ____
ROOT
ATOM      1  N   UNL     1       7.642  -0.659  24.967  0.00  0.00    -0.301 N 
ATOM      2  H   UNL     1       8.294   0.016  25.380  0.00  0.00    +0.150 HD
ATOM      3  C   UNL     1       6.391  -0.530  25.499  0.00  0.00    +0.234 C 
ATOM      4  O   UNL     1       5.589  -1.441  25.583  0.00  0.00    -0.274 OA
ENDROOT
BRANCH   3   5
ATOM      5  C   UNL     1       6.030   0.872  26.054  0.00  0.00    +0.159 C 
BRANCH   5   6
ATOM      6  N   UNL     1       5.928   1.890  25.002  0.00  0.00    -0.302 N 
ATOM      7  H   UNL     1       6.764   2.406  24.734  0.00  0.00    +0.150 HD
ATOM      8  C   UNL     1       4.748   2.539  24.727  0.00  0.00    +0.234 C 
ATOM      9  O   UNL     1       3.708   2.248  25.317  0.00  0.00    -0.274 OA
BRANCH   8  10
ATOM     10  C   UNL     1       4.858   3.751  23.771  0.00  0.00    +0.165 C 
ATOM     11  N   UNL     1       6.126   4.474  23.858  0.00  0.00    -0.256 N 
ATOM     12  C   UNL     1       6.311   5.557  24.677  0.00  0.00    +0.404 C 
ATOM     13  O   UNL     1       5.543   5.836  25.594  0.00  0.00    -0.226 OA
ATOM     14  C   UNL     1       7.006   4.138  22.747  0.00  0.00    +0.112 C 
ATOM     15  C   UNL     1       6.292   3.007  22.021  0.00  0.00    +0.021 C 
ATOM     16  C   UNL     1       4.822   3.298  22.310  0.00  0.00    +0.033 C 
BRANCH  12  17
ATOM     17  O   UNL     1       7.420   6.258  24.331  0.00  0.00    -0.445 OA
BRANCH  17  18
ATOM     18  C   UNL     1       8.268   6.723  25.393  0.00  0.00    +0.269 C 
BRANCH  18  19
ATOM     19  C   UNL     1       9.727   6.574  25.042  0.00  0.00    -0.010 A 
ATOM     20  C   UNL     1      10.107   5.869  23.892  0.00  0.00    +0.007 A 
ATOM     21  C   UNL     1      11.455   5.756  23.547  0.00  0.00    +0.000 A 
ATOM     22  C   UNL     1      12.433   6.333  24.355  0.00  0.00    +0.000 A 
ATOM     23  C   UNL     1      12.070   6.999  25.522  0.00  0.00    +0.000 A 
ATOM     24  C   UNL     1      10.724   7.107  25.872  0.00  0.00    +0.007 A 
ENDBRANCH  18  19
ENDBRANCH  17  18
ENDBRANCH  12  17
ENDBRANCH   8  10
ENDBRANCH   5   6
BRANCH   5  25
ATOM     25  C   UNL     1       7.173   1.247  27.023  0.00  0.00    +0.032 C 
BRANCH  25  26
ATOM     26  C   UNL     1       6.835   1.178  28.507  0.00  0.00    +0.007 C 
BRANCH  26  27
ATOM     27  C   UNL     1       6.891   2.537  29.193  0.00  0.00    +0.051 C 
BRANCH  27  28
ATOM     28  C   UNL     1       6.038   3.531  28.425  0.00  0.00    +0.127 C 
BRANCH  28  29
ATOM     29  N   UNL     1       6.847   4.732  28.125  0.00  0.00    +0.219 N 
ATOM     30  H   UNL     1       7.554   4.883  28.855  0.00  0.00    +0.199 HD
ATOM     31  H   UNL     1       6.266   5.580  28.077  0.00  0.00    +0.199 HD
ATOM     32  H   UNL     1       7.344   4.639  27.229  0.00  0.00    +0.199 HD
ENDBRANCH  28  29
ENDBRANCH  27  28
ENDBRANCH  26  27
ENDBRANCH  25  26
ENDBRANCH   5  25
ENDBRANCH   3   5
BRANCH   1  33
ATOM     33  C   UNL     1       8.348  -1.929  24.631  0.00  0.00    +0.179 C 
BRANCH  33  34
ATOM     34  P   UNL     1       7.717  -3.065  23.347  0.00  0.00    +0.290 P 
ATOM     35  O   UNL     1       8.263  -2.718  21.989  0.00  0.00    -0.271 OA
BRANCH  34  36
ATOM     36  O   UNL     1       6.128  -2.864  23.237  0.00  0.00    -0.332 OA
ATOM     37  H   UNL     1       5.710  -3.666  22.870  0.00  0.00    +0.219 HD
ENDBRANCH  34  36
BRANCH  34  38
ATOM     38  N   UNL     1       8.022  -4.634  23.665  0.00  0.00    -0.233 NA
ATOM     39  H   UNL     1       7.564  -5.258  23.007  0.00  0.00    +0.132 HD
BRANCH  38  40
ATOM     40  C   UNL     1       8.067  -5.279  24.971  0.00  0.00    +0.145 C 
ATOM     41  C   UNL     1       9.285  -4.796  25.777  0.00  0.00    +0.034 C 
BRANCH  40  44
ATOM     42  C   UNL     1       5.222  -6.378  24.402  0.00  0.00    +0.185 C 
ATOM     43  N   UNL     1       5.564  -5.351  25.395  0.00  0.00    -0.287 N 
ATOM     44  C   UNL     1       6.802  -4.888  25.779  0.00  0.00    +0.233 C 
ATOM     45  O   UNL     1       6.893  -4.174  26.786  0.00  0.00    -0.274 OA
ATOM     46  C   UNL     1       4.408  -4.975  26.189  0.00  0.00    +0.109 C 
ATOM     47  C   UNL     1       3.224  -5.620  25.501  0.00  0.00    +0.021 C 
ATOM     48  C   UNL     1       3.840  -6.868  24.875  0.00  0.00    +0.035 C 
BRANCH  42  49
ATOM     49  C   UNL     1       5.066  -5.920  22.945  0.00  0.00    +0.328 C 
ATOM     50  O   UNL     1       4.174  -5.154  22.593  0.00  0.00    -0.249 OA
BRANCH  49  52
ATOM     51  C   UNL     1       6.147  -5.782  20.842  0.00  0.00    +0.280 C 
ATOM     52  O   UNL     1       6.085  -6.346  22.155  0.00  0.00    -0.467 OA
ENDBRANCH  49  52
ENDBRANCH  42  49
ENDBRANCH  40  44
ENDBRANCH  38  40
ENDBRANCH  34  38
ENDBRANCH  33  34
BRANCH  33  53
ATOM     53  C   UNL     1       9.831  -1.586  24.323  0.00  0.00    +0.068 C 
BRANCH  53  54
ATOM     54  C   UNL     1      10.007  -0.208  23.730  0.00  0.00    -0.045 A 
ATOM     55  C   UNL     1       9.752   0.033  22.374  0.00  0.00    +0.004 A 
ATOM     56  C   UNL     1       9.859   1.326  21.860  0.00  0.00    +0.000 A 
ATOM     57  C   UNL     1      10.227   2.384  22.689  0.00  0.00    +0.000 A 
ATOM     58  C   UNL     1      10.506   2.149  24.033  0.00  0.00    +0.000 A 
ATOM     59  C   UNL     1      10.408   0.858  24.546  0.00  0.00    +0.004 A 
ENDBRANCH  53  54
ENDBRANCH  33  53
ENDBRANCH   1  33
TORSDOF 21
ENDMDL
MODEL 3
REMARK VINA RESULT:      -6.0      2.691      7.065
REMARK  Name = 
REMARK  23 active torsions:
REMARK  status: ('A' for Active; 'I' for Inactive)
REMARK    1  A    between atoms: C_1  and  O_2
REMARK    2  A    between atoms: O_2  and  C_3
REMARK    3  A    between atoms: C_3  and  C_5
REMARK    4  A    between atoms: C_11  and  C_13
REMARK    5  A    between atoms: C_13  and  C_15
REMARK    6  A    between atoms: C_13  and  N_16
REMARK    7  A    between atoms: N_16  and  P_17
REMARK    8  A    between atoms: P_17  and  O_18
REMARK    9  A    between atoms: P_17  and  C_20
REMARK   10  A    between atoms: C_20  and  C_22
REMARK   11  A    between atoms: C_20  and  N_29
REMARK   12  A    between atoms: C_22  and  C_23
REMARK   13  A    between atoms: C_30  and  C_32
REMARK   14  A    between atoms: C_32  and  C_34
REMARK   15  A    between atoms: C_32  and  N_42
REMARK   16  A    between atoms: C_34  and  C_35
REMARK   17  A    between atoms: C_35  and  C_36
REMARK   18  A    between atoms: C_36  and  C_37
REMARK   19  A    between atoms: C_37  and  N_38
REMARK   20  A    between atoms: C_43  and  C_45
REMARK   21  A    between atoms: C_51  and  O_53
REMARK   22  A    between atoms: O_53  and  C_54
REMARK   23  A    between atoms: C_54  and  C_55
REMARK                            x       y       z     vdW  Elec       q    Type
REMARK                         _______ _______ _______ _____ _____    ______ ____
ROOT
ATOM      1  N   UNL     1       8.787   0.218  24.995  0.00  0.00    -0.301 N 
ATOM      2  H   UNL     1       8.756   1.244  24.991  0.00  0.00    +0.150 HD
ATOM      3  C   UNL     1       8.340  -0.286  26.183  0.00  0.00    +0.234 C 
ATOM      4  O   UNL     1       8.702  -1.349  26.650  0.00  0.00    -0.274 OA
ENDROOT
BRANCH   3   5
ATOM      5  C   UNL     1       7.342   0.604  26.967  0.00  0.00    +0.159 C 
BRANCH   5   6
ATOM      6  N   UNL     1       6.059  -0.063  27.213  0.00  0.00    -0.302 N 
ATOM      7  H   UNL     1       5.475  -0.318  26.419  0.00  0.00    +0.150 HD
ATOM      8  C   UNL     1       5.373   0.089  28.395  0.00  0.00    +0.234 C 
ATOM      9  O   UNL     1       5.839   0.748  29.323  0.00  0.00    -0.274 OA
BRANCH   8  10
ATOM     10  C   UNL     1       3.930  -0.471  28.408  0.00  0.00    +0.165 C 
ATOM     11  N   UNL     1       3.835  -1.901  28.114  0.00  0.00    -0.256 N 
ATOM     12  C   UNL     1       3.633  -2.388  26.849  0.00  0.00    +0.404 C 
ATOM     13  O   UNL     1       3.792  -1.707  25.840  0.00  0.00    -0.226 OA
ATOM     14  C   UNL     1       3.626  -2.679  29.326  0.00  0.00    +0.112 C 
ATOM     15  C   UNL     1       3.769  -1.672  30.458  0.00  0.00    +0.021 C 
ATOM     16  C   UNL     1       3.316  -0.368  29.805  0.00  0.00    +0.033 C 
BRANCH  12  17
ATOM     17  O   UNL     1       3.234  -3.685  26.875  0.00  0.00    -0.445 OA
BRANCH  17  18
ATOM     18  C   UNL     1       1.873  -3.968  26.517  0.00  0.00    +0.269 C 
BRANCH  18  19
ATOM     19  C   UNL     1       1.786  -5.077  25.500  0.00  0.00    -0.010 A 
ATOM     20  C   UNL     1       1.881  -6.415  25.908  0.00  0.00    +0.007 A 
ATOM     21  C   UNL     1       1.770  -7.447  24.974  0.00  0.00    +0.000 A 
ATOM     22  C   UNL     1       1.579  -7.150  23.625  0.00  0.00    +0.000 A 
ATOM     23  C   UNL     1       1.526  -5.824  23.203  0.00  0.00    +0.000 A 
ATOM     24  C   UNL     1       1.643  -4.793  24.134  0.00  0.00    +0.007 A 
ENDBRANCH  18  19
ENDBRANCH  17  18
ENDBRANCH  12  17
ENDBRANCH   8  10
ENDBRANCH   5   6
BRANCH   5  25
ATOM     25  C   UNL     1       7.112   1.852  26.087  0.00  0.00    +0.032 C 
BRANCH  25  26
ATOM     26  C   UNL     1       7.220   3.195  26.798  0.00  0.00    +0.007 C 
BRANCH  26  27
ATOM     27  C   UNL     1       5.885   3.689  27.341  0.00  0.00    +0.051 C 
BRANCH  27  28
ATOM     28  C   UNL     1       6.101   4.373  28.679  0.00  0.00    +0.127 C 
BRANCH  28  29
ATOM     29  N   UNL     1       6.929   3.501  29.539  0.00  0.00    +0.219 N 
ATOM     30  H   UNL     1       7.907   3.503  29.224  0.00  0.00    +0.199 HD
ATOM     31  H   UNL     1       6.601   2.526  29.520  0.00  0.00    +0.199 HD
ATOM     32  H   UNL     1       6.920   3.816  30.519  0.00  0.00    +0.199 HD
ENDBRANCH  28  29
ENDBRANCH  27  28
ENDBRANCH  26  27
ENDBRANCH  25  26
ENDBRANCH   5  25
ENDBRANCH   3   5
BRANCH   1  33
ATOM     33  C   UNL     1       9.942  -0.272  24.190  0.00  0.00    +0.179 C 
BRANCH  33  34
ATOM     34  P   UNL     1       9.783  -1.700  23.061  0.00  0.00    +0.290 P 
ATOM     35  O   UNL     1      10.241  -2.974  23.718  0.00  0.00    -0.271 OA
BRANCH  34  36
ATOM     36  O   UNL     1      10.779  -1.473  21.822  0.00  0.00    -0.332 OA
ATOM     37  H   UNL     1      10.478  -1.986  21.048  0.00  0.00    +0.219 HD
ENDBRANCH  34  36
BRANCH  34  38
ATOM     38  N   UNL     1       8.273  -1.905  22.484  0.00  0.00    -0.233 NA
ATOM     39  H   UNL     1       8.097  -1.348  21.653  0.00  0.00    +0.132 HD
BRANCH  38  40
ATOM     40  C   UNL     1       7.039  -2.004  23.253  0.00  0.00    +0.145 C 
ATOM     41  C   UNL     1       6.233  -0.696  23.165  0.00  0.00    +0.034 C 
BRANCH  40  44
ATOM     42  C   UNL     1       6.377  -4.665  24.703  0.00  0.00    +0.185 C 
ATOM     43  N   UNL     1       5.990  -4.315  23.331  0.00  0.00    -0.287 N 
ATOM     44  C   UNL     1       6.151  -3.126  22.656  0.00  0.00    +0.233 C 
ATOM     45  O   UNL     1       5.565  -2.960  21.579  0.00  0.00    -0.274 OA
ATOM     46  C   UNL     1       5.137  -5.334  22.743  0.00  0.00    +0.109 C 
ATOM     47  C   UNL     1       5.187  -6.500  23.707  0.00  0.00    +0.021 C 
ATOM     48  C   UNL     1       5.411  -5.814  25.052  0.00  0.00    +0.035 C 
BRANCH  42  49
ATOM     49  C   UNL     1       7.803  -5.193  24.917  0.00  0.00    +0.328 C 
ATOM     50  O   UNL     1       8.534  -5.497  23.979  0.00  0.00    -0.249 OA
BRANCH  49  52
ATOM     51  C   UNL     1       9.568  -4.895  26.469  0.00  0.00    +0.280 C 
ATOM     52  O   UNL     1       8.183  -5.151  26.220  0.00  0.00    -0.467 OA
ENDBRANCH  49  52
ENDBRANCH  42  49
ENDBRANCH  40  44
ENDBRANCH  38  40
ENDBRANCH  34  38
ENDBRANCH  33  34
BRANCH  33  53
ATOM     53  C   UNL     1      10.526   0.934  23.405  0.00  0.00    +0.068 C 
BRANCH  53  54
ATOM     54  C   UNL     1       9.512   2.028  23.164  0.00  0.00    -0.045 A 
ATOM     55  C   UNL     1       9.588   3.246  23.849  0.00  0.00    +0.004 A 
ATOM     56  C   UNL     1       8.680   4.268  23.566  0.00  0.00    +0.000 A 
ATOM     57  C   UNL     1       7.688   4.079  22.605  0.00  0.00    +0.000 A 
ATOM     58  C   UNL     1       7.591   2.862  21.936  0.00  0.00    +0.000 A 
ATOM     59  C   UNL     1       8.491   1.839  22.223  0.00  0.00    +0.004 A 
ENDBRANCH  53  54
ENDBRANCH  33  53
ENDBRANCH   1  33
TORSDOF 21
ENDMDL
MODEL 4
REMARK VINA RESULT:      -5.9      1.722      5.511
REMARK  Name = 
REMARK  23 active torsions:
REMARK  status: ('A' for Active; 'I' for Inactive)
REMARK    1  A    between atoms: C_1  and  O_2
REMARK    2  A    between atoms: O_2  and  C_3
REMARK    3  A    between atoms: C_3  and  C_5
REMARK    4  A    between atoms: C_11  and  C_13
REMARK    5  A    between atoms: C_13  and  C_15
REMARK    6  A    between atoms: C_13  and  N_16
REMARK    7  A    between atoms: N_16  and  P_17
REMARK    8  A    between atoms: P_17  and  O_18
REMARK    9  A    between atoms: P_17  and  C_20
REMARK   10  A    between atoms: C_20  and  C_22
REMARK   11  A    between atoms: C_20  and  N_29
REMARK   12  A    between atoms: C_22  and  C_23
REMARK   13  A    between atoms: C_30  and  C_32
REMARK   14  A    between atoms: C_32  and  C_34
REMARK   15  A    between atoms: C_32  and  N_42
REMARK   16  A    between atoms: C_34  and  C_35
REMARK   17  A    between atoms: C_35  and  C_36
REMARK   18  A    between atoms: C_36  and  C_37
REMARK   19  A    between atoms: C_37  and  N_38
REMARK   20  A    between atoms: C_43  and  C_45
REMARK   21  A    between atoms: C_51  and  O_53
REMARK   22  A    between atoms: O_53  and  C_54
REMARK   23  A    between atoms: C_54  and  C_55
REMARK                            x       y       z     vdW  Elec       q    Type
REMARK                         _______ _______ _______ _____ _____    ______ ____
ROOT
ATOM      1  N   UNL     1       7.330   0.086  26.195  0.00  0.00    -0.301 N 
ATOM      2  H   UNL     1       7.510   0.909  26.781  0.00  0.00    +0.150 HD
ATOM      3  C   UNL     1       6.136  -0.496  26.513  0.00  0.00    +0.234 C 
ATOM      4  O   UNL     1       5.895  -1.679  26.364  0.00  0.00    -0.274 OA
ENDROOT
BRANCH   3   5
ATOM      5  C   UNL     1       5.067   0.439  27.134  0.00  0.00    +0.159 C 
BRANCH   5   6
ATOM      6  N   UNL     1       5.232   1.839  26.727  0.00  0.00    -0.302 N 
ATOM      7  H   UNL     1       5.832   2.446  27.282  0.00  0.00    +0.150 HD
ATOM      8  C   UNL     1       4.278   2.502  25.993  0.00  0.00    +0.234 C 
ATOM      9  O   UNL     1       3.266   1.927  25.594  0.00  0.00    -0.274 OA
BRANCH   8  10
ATOM     10  C   UNL     1       4.481   4.030  25.857  0.00  0.00    +0.165 C 
ATOM     11  N   UNL     1       5.601   4.416  24.999  0.00  0.00    -0.256 N 
ATOM     12  C   UNL     1       6.862   4.651  25.483  0.00  0.00    +0.404 C 
ATOM     13  O   UNL     1       7.223   4.295  26.601  0.00  0.00    -0.226 OA
ATOM     14  C   UNL     1       5.141   4.853  23.688  0.00  0.00    +0.112 C 
ATOM     15  C   UNL     1       3.648   4.557  23.688  0.00  0.00    +0.021 C 
ATOM     16  C   UNL     1       3.282   4.681  25.165  0.00  0.00    +0.033 C 
BRANCH  12  17
ATOM     17  O   UNL     1       7.623   5.321  24.580  0.00  0.00    -0.445 OA
BRANCH  17  18
ATOM     18  C   UNL     1       8.720   6.097  25.085  0.00  0.00    +0.269 C 
BRANCH  18  19
ATOM     19  C   UNL     1      10.030   5.665  24.477  0.00  0.00    -0.010 A 
ATOM     20  C   UNL     1      11.161   6.487  24.581  0.00  0.00    +0.007 A 
ATOM     21  C   UNL     1      12.383   6.076  24.047  0.00  0.00    +0.000 A 
ATOM     22  C   UNL     1      12.482   4.849  23.391  0.00  0.00    +0.000 A 
ATOM     23  C   UNL     1      11.356   4.045  23.244  0.00  0.00    +0.000 A 
ATOM     24  C   UNL     1      10.132   4.457  23.771  0.00  0.00    +0.007 A 
ENDBRANCH  18  19
ENDBRANCH  17  18
ENDBRANCH  12  17
ENDBRANCH   8  10
ENDBRANCH   5   6
BRANCH   5  25
ATOM     25  C   UNL     1       5.248   0.325  28.664  0.00  0.00    +0.032 C 
BRANCH  25  26
ATOM     26  C   UNL     1       5.024   1.607  29.456  0.00  0.00    +0.007 C 
BRANCH  26  27
ATOM     27  C   UNL     1       6.186   1.944  30.382  0.00  0.00    +0.051 C 
BRANCH  27  28
ATOM     28  C   UNL     1       7.468   2.044  29.575  0.00  0.00    +0.127 C 
BRANCH  28  29
ATOM     29  N   UNL     1       8.505   1.204  30.211  0.00  0.00    +0.219 N 
ATOM     30  H   UNL     1       9.076   0.732  29.499  0.00  0.00    +0.199 HD
ATOM     31  H   UNL     1       8.091   0.475  30.807  0.00  0.00    +0.199 HD
ATOM     32  H   UNL     1       9.141   1.764  30.795  0.00  0.00    +0.199 HD
ENDBRANCH  28  29
ENDBRANCH  27  28
ENDBRANCH  26  27
ENDBRANCH  25  26
ENDBRANCH   5  25
ENDBRANCH   3   5
BRANCH   1  33
ATOM     33  C   UNL     1       8.606  -0.607  25.862  0.00  0.00    +0.179 C 
BRANCH  33  34
ATOM     34  P   UNL     1       8.633  -2.135  24.860  0.00  0.00    +0.290 P 
ATOM     35  O   UNL     1       9.966  -2.331  24.191  0.00  0.00    -0.271 OA
BRANCH  34  36
ATOM     36  O   UNL     1       7.572  -1.970  23.666  0.00  0.00    -0.332 OA
ATOM     37  H   UNL     1       6.697  -1.724  24.022  0.00  0.00    +0.219 HD
ENDBRANCH  34  36
BRANCH  34  38
ATOM     38  N   UNL     1       8.256  -3.473  25.710  0.00  0.00    -0.233 NA
ATOM     39  H   UNL     1       8.744  -3.517  26.600  0.00  0.00    +0.132 HD
BRANCH  38  40
ATOM     40  C   UNL     1       8.090  -4.828  25.198  0.00  0.00    +0.145 C 
ATOM     41  C   UNL     1       9.415  -5.607  25.274  0.00  0.00    +0.034 C 
BRANCH  40  44
ATOM     42  C   UNL     1       5.287  -5.738  24.228  0.00  0.00    +0.185 C 
ATOM     43  N   UNL     1       5.807  -5.867  25.596  0.00  0.00    -0.287 N 
ATOM     44  C   UNL     1       7.065  -5.588  26.080  0.00  0.00    +0.233 C 
ATOM     45  O   UNL     1       7.371  -5.966  27.218  0.00  0.00    -0.274 OA
ATOM     46  C   UNL     1       4.884  -6.594  26.449  0.00  0.00    +0.109 C 
ATOM     47  C   UNL     1       3.609  -6.719  25.642  0.00  0.00    +0.021 C 
ATOM     48  C   UNL     1       4.124  -6.748  24.205  0.00  0.00    +0.035 C 
BRANCH  42  49
ATOM     49  C   UNL     1       4.710  -4.374  23.824  0.00  0.00    +0.328 C 
ATOM     50  O   UNL     1       3.790  -3.845  24.440  0.00  0.00    -0.249 OA
BRANCH  49  52
ATOM     51  C   UNL     1       6.103  -4.675  21.932  0.00  0.00    +0.280 C 
ATOM     52  O   UNL     1       5.413  -3.790  22.819  0.00  0.00    -0.467 OA
ENDBRANCH  49  52
ENDBRANCH  42  49
ENDBRANCH  40  44
ENDBRANCH  38  40
ENDBRANCH  34  38
ENDBRANCH  33  34
BRANCH  33  53
ATOM     53  C   UNL     1       9.567   0.434  25.227  0.00  0.00    +0.068 C 
BRANCH  53  54
ATOM     54  C   UNL     1       9.072   0.960  23.899  0.00  0.00    -0.045 A 
ATOM     55  C   UNL     1       9.818   0.779  22.728  0.00  0.00    +0.004 A 
ATOM     56  C   UNL     1       9.314   1.216  21.502  0.00  0.00    +0.000 A 
ATOM     57  C   UNL     1       8.070   1.842  21.437  0.00  0.00    +0.000 A 
ATOM     58  C   UNL     1       7.333   2.046  22.600  0.00  0.00    +0.000 A 
ATOM     59  C   UNL     1       7.838   1.619  23.825  0.00  0.00    +0.004 A 
ENDBRANCH  53  54
ENDBRANCH  33  53
ENDBRANCH   1  33
TORSDOF 21
ENDMDL
MODEL 5
REMARK VINA RESULT:      -5.8      2.424      8.262
REMARK  Name = 
REMARK  23 active torsions:
REMARK  status: ('A' for Active; 'I' for Inactive)
REMARK    1  A    between atoms: C_1  and  O_2
REMARK    2  A    between atoms: O_2  and  C_3
REMARK    3  A    between atoms: C_3  and  C_5
REMARK    4  A    between atoms: C_11  and  C_13
REMARK    5  A    between atoms: C_13  and  C_15
REMARK    6  A    between atoms: C_13  and  N_16
REMARK    7  A    between atoms: N_16  and  P_17
REMARK    8  A    between atoms: P_17  and  O_18
REMARK    9  A    between atoms: P_17  and  C_20
REMARK   10  A    between atoms: C_20  and  C_22
REMARK   11  A    between atoms: C_20  and  N_29
REMARK   12  A    between atoms: C_22  and  C_23
REMARK   13  A    between atoms: C_30  and  C_32
REMARK   14  A    between atoms: C_32  and  C_34
REMARK   15  A    between atoms: C_32  and  N_42
REMARK   16  A    between atoms: C_34  and  C_35
REMARK   17  A    between atoms: C_35  and  C_36
REMARK   18  A    between atoms: C_36  and  C_37
REMARK   19  A    between atoms: C_37  and  N_38
REMARK   20  A    between atoms: C_43  and  C_45
REMARK   21  A    between atoms: C_51  and  O_53
REMARK   22  A    between atoms: O_53  and  C_54
REMARK   23  A    between atoms: C_54  and  C_55
REMARK                            x       y       z     vdW  Elec       q    Type
REMARK                         _______ _______ _______ _____ _____    ______ ____
ROOT
ATOM      1  N   UNL     1       6.454  -0.798  25.707  0.00  0.00    -0.301 N 
ATOM      2  H   UNL     1       6.711  -1.792  25.709  0.00  0.00    +0.150 HD
ATOM      3  C   UNL     1       7.242  -0.084  24.850  0.00  0.00    +0.234 C 
ATOM      4  O   UNL     1       7.505   1.095  24.989  0.00  0.00    -0.274 OA
ENDROOT
BRANCH   3   5
ATOM      5  C   UNL     1       7.848  -0.878  23.664  0.00  0.00    +0.159 C 
BRANCH   5   6
ATOM      6  N   UNL     1       7.822  -2.329  23.879  0.00  0.00    -0.302 N 
ATOM      7  H   UNL     1       8.477  -2.741  24.541  0.00  0.00    +0.150 HD
ATOM      8  C   UNL     1       7.361  -3.200  22.921  0.00  0.00    +0.234 C 
ATOM      9  O   UNL     1       6.893  -2.791  21.859  0.00  0.00    -0.274 OA
BRANCH   8  10
ATOM     10  C   UNL     1       7.627  -4.700  23.196  0.00  0.00    +0.165 C 
ATOM     11  N   UNL     1       6.949  -5.224  24.381  0.00  0.00    -0.256 N 
ATOM     12  C   UNL     1       7.536  -5.259  25.620  0.00  0.00    +0.404 C 
ATOM     13  O   UNL     1       8.543  -4.614  25.897  0.00  0.00    -0.226 OA
ATOM     14  C   UNL     1       5.773  -6.002  24.020  0.00  0.00    +0.112 C 
ATOM     15  C   UNL     1       5.626  -5.800  22.518  0.00  0.00    +0.021 C 
ATOM     16  C   UNL     1       7.067  -5.570  22.069  0.00  0.00    +0.033 C 
BRANCH  12  17
ATOM     17  O   UNL     1       6.871  -6.091  26.461  0.00  0.00    -0.445 OA
BRANCH  17  18
ATOM     18  C   UNL     1       6.680  -5.652  27.814  0.00  0.00    +0.269 C 
BRANCH  18  19
ATOM     19  C   UNL     1       5.217  -5.585  28.174  0.00  0.00    -0.010 A 
ATOM     20  C   UNL     1       4.804  -4.888  29.317  0.00  0.00    +0.007 A 
ATOM     21  C   UNL     1       3.448  -4.798  29.636  0.00  0.00    +0.000 A 
ATOM     22  C   UNL     1       2.497  -5.416  28.825  0.00  0.00    +0.000 A 
ATOM     23  C   UNL     1       2.900  -6.146  27.711  0.00  0.00    +0.000 A 
ATOM     24  C   UNL     1       4.254  -6.243  27.395  0.00  0.00    +0.007 A 
ENDBRANCH  18  19
ENDBRANCH  17  18
ENDBRANCH  12  17
ENDBRANCH   8  10
ENDBRANCH   5   6
BRANCH   5  25
ATOM     25  C   UNL     1       9.313  -0.402  23.546  0.00  0.00    +0.032 C 
BRANCH  25  26
ATOM     26  C   UNL     1       9.702   0.223  22.212  0.00  0.00    +0.007 C 
BRANCH  26  27
ATOM     27  C   UNL     1       9.573   1.741  22.207  0.00  0.00    +0.051 C 
BRANCH  27  28
ATOM     28  C   UNL     1      10.405   2.327  23.335  0.00  0.00    +0.127 C 
BRANCH  28  29
ATOM     29  N   UNL     1      11.020   3.590  22.874  0.00  0.00    +0.219 N 
ATOM     30  H   UNL     1      11.983   3.671  23.222  0.00  0.00    +0.199 HD
ATOM     31  H   UNL     1      10.500   4.411  23.211  0.00  0.00    +0.199 HD
ATOM     32  H   UNL     1      11.056   3.641  21.847  0.00  0.00    +0.199 HD
ENDBRANCH  28  29
ENDBRANCH  27  28
ENDBRANCH  26  27
ENDBRANCH  25  26
ENDBRANCH   5  25
ENDBRANCH   3   5
BRANCH   1  33
ATOM     33  C   UNL     1       5.987  -0.377  27.059  0.00  0.00    +0.179 C 
BRANCH  33  34
ATOM     34  P   UNL     1       4.954   1.112  27.294  0.00  0.00    +0.290 P 
ATOM     35  O   UNL     1       4.104   1.001  28.530  0.00  0.00    -0.271 OA
BRANCH  34  36
ATOM     36  O   UNL     1       3.922   1.205  26.068  0.00  0.00    -0.332 OA
ATOM     37  H   UNL     1       3.097   1.644  26.352  0.00  0.00    +0.219 HD
ENDBRANCH  34  36
BRANCH  34  38
ATOM     38  N   UNL     1       5.815   2.494  27.355  0.00  0.00    -0.233 NA
ATOM     39  H   UNL     1       6.206   2.666  28.276  0.00  0.00    +0.132 HD
BRANCH  38  40
ATOM     40  C   UNL     1       5.479   3.773  26.741  0.00  0.00    +0.145 C 
ATOM     41  C   UNL     1       5.043   4.793  27.806  0.00  0.00    +0.034 C 
BRANCH  40  44
ATOM     42  C   UNL     1       5.625   4.503  23.729  0.00  0.00    +0.185 C 
ATOM     43  N   UNL     1       6.742   4.556  24.682  0.00  0.00    -0.287 N 
ATOM     44  C   UNL     1       6.737   4.352  26.043  0.00  0.00    +0.233 C 
ATOM     45  O   UNL     1       7.740   4.653  26.701  0.00  0.00    -0.274 OA
ATOM     46  C   UNL     1       7.935   5.116  24.071  0.00  0.00    +0.109 C 
ATOM     47  C   UNL     1       7.626   5.195  22.591  0.00  0.00    +0.021 C 
ATOM     48  C   UNL     1       6.113   5.400  22.575  0.00  0.00    +0.035 C 
BRANCH  42  49
ATOM     49  C   UNL     1       5.284   3.133  23.124  0.00  0.00    +0.328 C 
ATOM     50  O   UNL     1       6.047   2.548  22.362  0.00  0.00    -0.249 OA
BRANCH  49  52
ATOM     51  C   UNL     1       2.975   3.444  23.549  0.00  0.00    +0.280 C 
ATOM     52  O   UNL     1       4.137   2.614  23.631  0.00  0.00    -0.467 OA
ENDBRANCH  49  52
ENDBRANCH  42  49
ENDBRANCH  40  44
ENDBRANCH  38  40
ENDBRANCH  34  38
ENDBRANCH  33  34
BRANCH  33  53
ATOM     53  C   UNL     1       5.286  -1.592  27.725  0.00  0.00    +0.068 C 
BRANCH  53  54
ATOM     54  C   UNL     1       4.183  -2.177  26.873  0.00  0.00    -0.045 A 
ATOM     55  C   UNL     1       4.476  -2.914  25.720  0.00  0.00    +0.004 A 
ATOM     56  C   UNL     1       3.445  -3.500  24.983  0.00  0.00    +0.000 A 
ATOM     57  C   UNL     1       2.119  -3.348  25.385  0.00  0.00    +0.000 A 
ATOM     58  C   UNL     1       1.819  -2.597  26.518  0.00  0.00    +0.000 A 
ATOM     59  C   UNL     1       2.845  -2.005  27.250  0.00  0.00    +0.004 A 
ENDBRANCH  53  54
ENDBRANCH  33  53
ENDBRANCH   1  33
TORSDOF 21
ENDMDL
MODEL 6
REMARK VINA RESULT:      -5.8      1.419      2.045
REMARK  Name = 
REMARK  23 active torsions:
REMARK  status: ('A' for Active; 'I' for Inactive)
REMARK    1  A    between atoms: C_1  and  O_2
REMARK    2  A    between atoms: O_2  and  C_3
REMARK    3  A    between atoms: C_3  and  C_5
REMARK    4  A    between atoms: C_11  and  C_13
REMARK    5  A    between atoms: C_13  and  C_15
REMARK    6  A    between atoms: C_13  and  N_16
REMARK    7  A    between atoms: N_16  and  P_17
REMARK    8  A    between atoms: P_17  and  O_18
REMARK    9  A    between atoms: P_17  and  C_20
REMARK   10  A    between atoms: C_20  and  C_22
REMARK   11  A    between atoms: C_20  and  N_29
REMARK   12  A    between atoms: C_22  and  C_23
REMARK   13  A    between atoms: C_30  and  C_32
REMARK   14  A    between atoms: C_32  and  C_34
REMARK   15  A    between atoms: C_32  and  N_42
REMARK   16  A    between atoms: C_34  and  C_35
REMARK   17  A    between atoms: C_35  and  C_36
REMARK   18  A    between atoms: C_36  and  C_37
REMARK   19  A    between atoms: C_37  and  N_38
REMARK   20  A    between atoms: C_43  and  C_45
REMARK   21  A    between atoms: C_51  and  O_53
REMARK   22  A    between atoms: O_53  and  C_54
REMARK   23  A    between atoms: C_54  and  C_55
REMARK                            x       y       z     vdW  Elec       q    Type
REMARK                         _______ _______ _______ _____ _____    ______ ____
ROOT
ATOM      1  N   UNL     1       8.015   1.365  25.358  0.00  0.00    -0.301 N 
ATOM      2  H   UNL     1       7.677   2.134  24.769  0.00  0.00    +0.150 HD
ATOM      3  C   UNL     1       9.216   0.891  24.913  0.00  0.00    +0.234 C 
ATOM      4  O   UNL     1       9.599  -0.253  25.074  0.00  0.00    -0.274 OA
ENDROOT
BRANCH   3   5
ATOM      5  C   UNL     1      10.094   1.896  24.125  0.00  0.00    +0.159 C 
BRANCH   5   6
ATOM      6  N   UNL     1       9.484   3.228  24.028  0.00  0.00    -0.302 N 
ATOM      7  H   UNL     1       8.501   3.302  23.776  0.00  0.00    +0.150 HD
ATOM      8  C   UNL     1      10.227   4.352  23.752  0.00  0.00    +0.234 C 
ATOM      9  O   UNL     1      11.450   4.295  23.633  0.00  0.00    -0.274 OA
BRANCH   8  10
ATOM     10  C   UNL     1       9.414   5.630  23.438  0.00  0.00    +0.165 C 
ATOM     11  N   UNL     1       8.000   5.550  23.804  0.00  0.00    -0.256 N 
ATOM     12  C   UNL     1       7.026   5.145  22.928  0.00  0.00    +0.404 C 
ATOM     13  O   UNL     1       7.277   4.560  21.879  0.00  0.00    -0.226 OA
ATOM     14  C   UNL     1       7.729   6.271  25.040  0.00  0.00    +0.112 C 
ATOM     15  C   UNL     1       9.102   6.680  25.553  0.00  0.00    +0.021 C 
ATOM     16  C   UNL     1       9.914   6.814  24.268  0.00  0.00    +0.033 C 
BRANCH  12  17
ATOM     17  O   UNL     1       5.789   5.485  23.370  0.00  0.00    -0.445 OA
BRANCH  17  18
ATOM     18  C   UNL     1       4.755   4.493  23.273  0.00  0.00    +0.269 C 
BRANCH  18  19
ATOM     19  C   UNL     1       4.313   4.018  24.633  0.00  0.00    -0.010 A 
ATOM     20  C   UNL     1       4.216   4.924  25.698  0.00  0.00    +0.007 A 
ATOM     21  C   UNL     1       3.777   4.495  26.952  0.00  0.00    +0.000 A 
ATOM     22  C   UNL     1       3.446   3.156  27.155  0.00  0.00    +0.000 A 
ATOM     23  C   UNL     1       3.579   2.239  26.116  0.00  0.00    +0.000 A 
ATOM     24  C   UNL     1       4.024   2.665  24.865  0.00  0.00    +0.007 A 
ENDBRANCH  18  19
ENDBRANCH  17  18
ENDBRANCH  12  17
ENDBRANCH   8  10
ENDBRANCH   5   6
BRANCH   5  25
ATOM     25  C   UNL     1      10.250   1.299  22.709  0.00  0.00    +0.032 C 
BRANCH  25  26
ATOM     26  C   UNL     1       8.952   1.023  21.959  0.00  0.00    +0.007 C 
BRANCH  26  27
ATOM     27  C   UNL     1       9.015  -0.237  21.106  0.00  0.00    +0.051 C 
BRANCH  27  28
ATOM     28  C   UNL     1       9.700  -1.346  21.884  0.00  0.00    +0.127 C 
BRANCH  28  29
ATOM     29  N   UNL     1       8.671  -2.178  22.544  0.00  0.00    +0.219 N 
ATOM     30  H   UNL     1       8.534  -1.879  23.518  0.00  0.00    +0.199 HD
ATOM     31  H   UNL     1       8.939  -3.171  22.561  0.00  0.00    +0.199 HD
ATOM     32  H   UNL     1       7.762  -2.105  22.068  0.00  0.00    +0.199 HD
ENDBRANCH  28  29
ENDBRANCH  27  28
ENDBRANCH  26  27
ENDBRANCH  25  26
ENDBRANCH   5  25
ENDBRANCH   3   5
BRANCH   1  33
ATOM     33  C   UNL     1       6.871   0.563  25.877  0.00  0.00    +0.179 C 
BRANCH  33  34
ATOM     34  P   UNL     1       6.242  -0.900  24.981  0.00  0.00    +0.290 P 
ATOM     35  O   UNL     1       7.164  -2.078  25.137  0.00  0.00    -0.271 OA
BRANCH  34  36
ATOM     36  O   UNL     1       6.237  -0.563  23.412  0.00  0.00    -0.332 OA
ATOM     37  H   UNL     1       5.351  -0.722  23.034  0.00  0.00    +0.219 HD
ENDBRANCH  34  36
BRANCH  34  38
ATOM     38  N   UNL     1       4.736  -1.333  25.425  0.00  0.00    -0.233 NA
ATOM     39  H   UNL     1       4.183  -0.543  25.745  0.00  0.00    +0.132 HD
BRANCH  38  40
ATOM     40  C   UNL     1       4.343  -2.516  26.182  0.00  0.00    +0.145 C 
ATOM     41  C   UNL     1       3.901  -2.133  27.605  0.00  0.00    +0.034 C 
BRANCH  40  44
ATOM     42  C   UNL     1       4.543  -4.923  24.234  0.00  0.00    +0.185 C 
ATOM     43  N   UNL     1       3.317  -4.186  24.567  0.00  0.00    -0.287 N 
ATOM     44  C   UNL     1       3.125  -3.184  25.492  0.00  0.00    +0.233 C 
ATOM     45  O   UNL     1       1.972  -2.840  25.777  0.00  0.00    -0.274 OA
ATOM     46  C   UNL     1       2.149  -4.797  23.957  0.00  0.00    +0.109 C 
ATOM     47  C   UNL     1       2.695  -5.828  22.992  0.00  0.00    +0.021 C 
ATOM     48  C   UNL     1       4.005  -6.246  23.656  0.00  0.00    +0.035 C 
BRANCH  42  49
ATOM     49  C   UNL     1       5.465  -4.306  23.172  0.00  0.00    +0.328 C 
ATOM     50  O   UNL     1       5.084  -3.424  22.409  0.00  0.00    -0.249 OA
BRANCH  49  52
ATOM     51  C   UNL     1       7.199  -5.617  22.232  0.00  0.00    +0.280 C 
ATOM     52  O   UNL     1       6.744  -4.750  23.274  0.00  0.00    -0.467 OA
ENDBRANCH  49  52
ENDBRANCH  42  49
ENDBRANCH  40  44
ENDBRANCH  38  40
ENDBRANCH  34  38
ENDBRANCH  33  34
BRANCH  33  53
ATOM     53  C   UNL     1       7.190   0.163  27.343  0.00  0.00    +0.068 C 
BRANCH  53  54
ATOM     54  C   UNL     1       6.571   1.097  28.358  0.00  0.00    -0.045 A 
ATOM     55  C   UNL     1       7.022   2.415  28.495  0.00  0.00    +0.004 A 
ATOM     56  C   UNL     1       6.395   3.280  29.393  0.00  0.00    +0.000 A 
ATOM     57  C   UNL     1       5.322   2.835  30.164  0.00  0.00    +0.000 A 
ATOM     58  C   UNL     1       4.882   1.519  30.050  0.00  0.00    +0.000 A 
ATOM     59  C   UNL     1       5.512   0.652  29.160  0.00  0.00    +0.004 A 
ENDBRANCH  53  54
ENDBRANCH  33  53
ENDBRANCH   1  33
TORSDOF 21
ENDMDL
MODEL 7
REMARK VINA RESULT:      -5.7      2.397      5.714
REMARK  Name = 
REMARK  23 active torsions:
REMARK  status: ('A' for Active; 'I' for Inactive)
REMARK    1  A    between atoms: C_1  and  O_2
REMARK    2  A    between atoms: O_2  and  C_3
REMARK    3  A    between atoms: C_3  and  C_5
REMARK    4  A    between atoms: C_11  and  C_13
REMARK    5  A    between atoms: C_13  and  C_15
REMARK    6  A    between atoms: C_13  and  N_16
REMARK    7  A    between atoms: N_16  and  P_17
REMARK    8  A    between atoms: P_17  and  O_18
REMARK    9  A    between atoms: P_17  and  C_20
REMARK   10  A    between atoms: C_20  and  C_22
REMARK   11  A    between atoms: C_20  and  N_29
REMARK   12  A    between atoms: C_22  and  C_23
REMARK   13  A    between atoms: C_30  and  C_32
REMARK   14  A    between atoms: C_32  and  C_34
REMARK   15  A    between atoms: C_32  and  N_42
REMARK   16  A    between atoms: C_34  and  C_35
REMARK   17  A    between atoms: C_35  and  C_36
REMARK   18  A    between atoms: C_36  and  C_37
REMARK   19  A    between atoms: C_37  and  N_38
REMARK   20  A    between atoms: C_43  and  C_45
REMARK   21  A    between atoms: C_51  and  O_53
REMARK   22  A    between atoms: O_53  and  C_54
REMARK   23  A    between atoms: C_54  and  C_55
REMARK                            x       y       z     vdW  Elec       q    Type
REMARK                         _______ _______ _______ _____ _____    ______ ____
ROOT
ATOM      1  N   UNL     1       6.031  -0.871  25.166  0.00  0.00    -0.301 N 
ATOM      2  H   UNL     1       5.483  -0.034  24.938  0.00  0.00    +0.150 HD
ATOM      3  C   UNL     1       5.722  -1.342  26.410  0.00  0.00    +0.234 C 
ATOM      4  O   UNL     1       6.496  -1.962  27.115  0.00  0.00    -0.274 OA
ENDROOT
BRANCH   3   5
ATOM      5  C   UNL     1       4.301  -1.008  26.930  0.00  0.00    +0.159 C 
BRANCH   5   6
ATOM      6  N   UNL     1       4.073   0.435  27.072  0.00  0.00    -0.302 N 
ATOM      7  H   UNL     1       4.749   0.991  27.591  0.00  0.00    +0.150 HD
ATOM      8  C   UNL     1       2.814   0.984  27.011  0.00  0.00    +0.234 C 
ATOM      9  O   UNL     1       1.826   0.290  26.774  0.00  0.00    -0.274 OA
BRANCH   8  10
ATOM     10  C   UNL     1       2.712   2.472  27.424  0.00  0.00    +0.165 C 
ATOM     11  N   UNL     1       3.683   3.347  26.768  0.00  0.00    -0.256 N 
ATOM     12  C   UNL     1       4.903   3.648  27.316  0.00  0.00    +0.404 C 
ATOM     13  O   UNL     1       5.393   3.005  28.240  0.00  0.00    -0.226 OA
ATOM     14  C   UNL     1       3.068   4.110  25.692  0.00  0.00    +0.112 C 
ATOM     15  C   UNL     1       1.662   3.540  25.573  0.00  0.00    +0.021 C 
ATOM     16  C   UNL     1       1.371   3.067  26.995  0.00  0.00    +0.033 C 
BRANCH  12  17
ATOM     17  O   UNL     1       5.464   4.727  26.716  0.00  0.00    -0.445 OA
BRANCH  17  18
ATOM     18  C   UNL     1       6.858   4.650  26.381  0.00  0.00    +0.269 C 
BRANCH  18  19
ATOM     19  C   UNL     1       7.083   4.818  24.900  0.00  0.00    -0.010 A 
ATOM     20  C   UNL     1       6.310   4.091  23.984  0.00  0.00    +0.007 A 
ATOM     21  C   UNL     1       6.493   4.266  22.611  0.00  0.00    +0.000 A 
ATOM     22  C   UNL     1       7.458   5.157  22.143  0.00  0.00    +0.000 A 
ATOM     23  C   UNL     1       8.260   5.852  23.044  0.00  0.00    +0.000 A 
ATOM     24  C   UNL     1       8.083   5.672  24.415  0.00  0.00    +0.007 A 
ENDBRANCH  18  19
ENDBRANCH  17  18
ENDBRANCH  12  17
ENDBRANCH   8  10
ENDBRANCH   5   6
BRANCH   5  25
ATOM     25  C   UNL     1       4.190  -1.684  28.314  0.00  0.00    +0.032 C 
BRANCH  25  26
ATOM     26  C   UNL     1       2.900  -2.450  28.577  0.00  0.00    +0.007 C 
BRANCH  26  27
ATOM     27  C   UNL     1       2.803  -3.744  27.780  0.00  0.00    +0.051 C 
BRANCH  27  28
ATOM     28  C   UNL     1       1.625  -3.669  26.826  0.00  0.00    +0.127 C 
BRANCH  28  29
ATOM     29  N   UNL     1       2.128  -3.429  25.456  0.00  0.00    +0.219 N 
ATOM     30  H   UNL     1       1.593  -2.679  25.000  0.00  0.00    +0.199 HD
ATOM     31  H   UNL     1       2.045  -4.269  24.868  0.00  0.00    +0.199 HD
ATOM     32  H   UNL     1       3.116  -3.144  25.460  0.00  0.00    +0.199 HD
ENDBRANCH  28  29
ENDBRANCH  27  28
ENDBRANCH  26  27
ENDBRANCH  25  26
ENDBRANCH   5  25
ENDBRANCH   3   5
BRANCH   1  33
ATOM     33  C   UNL     1       7.385  -0.792  24.547  0.00  0.00    +0.179 C 
BRANCH  33  34
ATOM     34  P   UNL     1       8.317  -2.295  24.090  0.00  0.00    +0.290 P 
ATOM     35  O   UNL     1       9.712  -1.961  23.636  0.00  0.00    -0.271 OA
BRANCH  34  36
ATOM     36  O   UNL     1       7.600  -2.964  22.819  0.00  0.00    -0.332 OA
ATOM     37  H   UNL     1       8.236  -3.066  22.086  0.00  0.00    +0.219 HD
ENDBRANCH  34  36
BRANCH  34  38
ATOM     38  N   UNL     1       8.392  -3.399  25.286  0.00  0.00    -0.233 NA
ATOM     39  H   UNL     1       9.084  -3.162  25.990  0.00  0.00    +0.132 HD
BRANCH  38  40
ATOM     40  C   UNL     1       8.335  -4.850  25.155  0.00  0.00    +0.145 C 
ATOM     41  C   UNL     1       9.695  -5.483  25.496  0.00  0.00    +0.034 C 
BRANCH  40  44
ATOM     42  C   UNL     1       5.580  -6.034  24.360  0.00  0.00    +0.185 C 
ATOM     43  N   UNL     1       6.066  -5.833  25.731  0.00  0.00    -0.287 N 
ATOM     44  C   UNL     1       7.304  -5.416  26.166  0.00  0.00    +0.233 C 
ATOM     45  O   UNL     1       7.587  -5.516  27.366  0.00  0.00    -0.274 OA
ATOM     46  C   UNL     1       5.135  -6.372  26.708  0.00  0.00    +0.109 C 
ATOM     47  C   UNL     1       3.886  -6.712  25.924  0.00  0.00    +0.021 C 
ATOM     48  C   UNL     1       4.441  -7.055  24.543  0.00  0.00    +0.035 C 
BRANCH  42  49
ATOM     49  C   UNL     1       4.984  -4.815  23.641  0.00  0.00    +0.328 C 
ATOM     50  O   UNL     1       4.864  -3.726  24.193  0.00  0.00    -0.249 OA
BRANCH  49  52
ATOM     51  C   UNL     1       5.831  -5.602  21.574  0.00  0.00    +0.280 C 
ATOM     52  O   UNL     1       4.745  -5.053  22.326  0.00  0.00    -0.467 OA
ENDBRANCH  49  52
ENDBRANCH  42  49
ENDBRANCH  40  44
ENDBRANCH  38  40
ENDBRANCH  34  38
ENDBRANCH  33  34
BRANCH  33  53
ATOM     53  C   UNL     1       7.294   0.145  23.312  0.00  0.00    +0.068 C 
BRANCH  53  54
ATOM     54  C   UNL     1       8.443   1.123  23.228  0.00  0.00    -0.045 A 
ATOM     55  C   UNL     1       8.965   1.724  24.380  0.00  0.00    +0.004 A 
ATOM     56  C   UNL     1      10.067   2.576  24.289  0.00  0.00    +0.000 A 
ATOM     57  C   UNL     1      10.649   2.840  23.050  0.00  0.00    +0.000 A 
ATOM     58  C   UNL     1      10.122   2.266  21.897  0.00  0.00    +0.000 A 
ATOM     59  C   UNL     1       9.017   1.422  21.985  0.00  0.00    +0.004 A 
ENDBRANCH  53  54
ENDBRANCH  33  53
ENDBRANCH   1  33
TORSDOF 21
ENDMDL
MODEL 8
REMARK VINA RESULT:      -5.7      1.671      2.582
REMARK  Name = 
REMARK  23 active torsions:
REMARK  status: ('A' for Active; 'I' for Inactive)
REMARK    1  A    between atoms: C_1  and  O_2
REMARK    2  A    between atoms: O_2  and  C_3
REMARK    3  A    between atoms: C_3  and  C_5
REMARK    4  A    between atoms: C_11  and  C_13
REMARK    5  A    between atoms: C_13  and  C_15
REMARK    6  A    between atoms: C_13  and  N_16
REMARK    7  A    between atoms: N_16  and  P_17
REMARK    8  A    between atoms: P_17  and  O_18
REMARK    9  A    between atoms: P_17  and  C_20
REMARK   10  A    between atoms: C_20  and  C_22
REMARK   11  A    between atoms: C_20  and  N_29
REMARK   12  A    between atoms: C_22  and  C_23
REMARK   13  A    between atoms: C_30  and  C_32
REMARK   14  A    between atoms: C_32  and  C_34
REMARK   15  A    between atoms: C_32  and  N_42
REMARK   16  A    between atoms: C_34  and  C_35
REMARK   17  A    between atoms: C_35  and  C_36
REMARK   18  A    between atoms: C_36  and  C_37
REMARK   19  A    between atoms: C_37  and  N_38
REMARK   20  A    between atoms: C_43  and  C_45
REMARK   21  A    between atoms: C_51  and  O_53
REMARK   22  A    between atoms: O_53  and  C_54
REMARK   23  A    between atoms: C_54  and  C_55
REMARK                            x       y       z     vdW  Elec       q    Type
REMARK                         _______ _______ _______ _____ _____    ______ ____
ROOT
ATOM      1  N   UNL     1       8.375   1.417  24.880  0.00  0.00    -0.301 N 
ATOM      2  H   UNL     1       7.937   2.088  24.239  0.00  0.00    +0.150 HD
ATOM      3  C   UNL     1       9.694   1.233  24.577  0.00  0.00    +0.234 C 
ATOM      4  O   UNL     1      10.308   0.208  24.806  0.00  0.00    -0.274 OA
ENDROOT
BRANCH   3   5
ATOM      5  C   UNL     1      10.399   2.414  23.863  0.00  0.00    +0.159 C 
BRANCH   5   6
ATOM      6  N   UNL     1       9.720   3.697  24.082  0.00  0.00    -0.302 N 
ATOM      7  H   UNL     1       8.706   3.738  24.002  0.00  0.00    +0.150 HD
ATOM      8  C   UNL     1      10.354   4.901  23.884  0.00  0.00    +0.234 C 
ATOM      9  O   UNL     1      11.542   4.951  23.569  0.00  0.00    -0.274 OA
BRANCH   8  10
ATOM     10  C   UNL     1       9.441   6.150  23.914  0.00  0.00    +0.165 C 
ATOM     11  N   UNL     1       8.029   5.859  24.157  0.00  0.00    -0.256 N 
ATOM     12  C   UNL     1       7.125   5.663  23.145  0.00  0.00    +0.404 C 
ATOM     13  O   UNL     1       7.462   5.439  21.987  0.00  0.00    -0.226 OA
ATOM     14  C   UNL     1       7.654   6.154  25.533  0.00  0.00    +0.112 C 
ATOM     15  C   UNL     1       8.968   6.492  26.223  0.00  0.00    +0.021 C 
ATOM     16  C   UNL     1       9.807   7.065  25.084  0.00  0.00    +0.033 C 
BRANCH  12  17
ATOM     17  O   UNL     1       5.848   5.761  23.595  0.00  0.00    -0.445 OA
BRANCH  17  18
ATOM     18  C   UNL     1       4.975   4.646  23.358  0.00  0.00    +0.269 C 
BRANCH  18  19
ATOM     19  C   UNL     1       4.110   4.355  24.559  0.00  0.00    -0.010 A 
ATOM     20  C   UNL     1       4.158   5.194  25.681  0.00  0.00    +0.007 A 
ATOM     21  C   UNL     1       3.336   4.946  26.782  0.00  0.00    +0.000 A 
ATOM     22  C   UNL     1       2.473   3.851  26.777  0.00  0.00    +0.000 A 
ATOM     23  C   UNL     1       2.449   2.987  25.686  0.00  0.00    +0.000 A 
ATOM     24  C   UNL     1       3.274   3.230  24.588  0.00  0.00    +0.007 A 
ENDBRANCH  18  19
ENDBRANCH  17  18
ENDBRANCH  12  17
ENDBRANCH   8  10
ENDBRANCH   5   6
BRANCH   5  25
ATOM     25  C   UNL     1      10.373   2.070  22.358  0.00  0.00    +0.032 C 
BRANCH  25  26
ATOM     26  C   UNL     1       9.508   0.879  21.964  0.00  0.00    +0.007 C 
BRANCH  26  27
ATOM     27  C   UNL     1       8.389   1.250  21.000  0.00  0.00    +0.051 C 
BRANCH  27  28
ATOM     28  C   UNL     1       7.406   2.177  21.692  0.00  0.00    +0.127 C 
BRANCH  28  29
ATOM     29  N   UNL     1       6.247   1.388  22.160  0.00  0.00    +0.219 N 
ATOM     30  H   UNL     1       6.395   1.064  23.124  0.00  0.00    +0.199 HD
ATOM     31  H   UNL     1       6.092   0.556  21.575  0.00  0.00    +0.199 HD
ATOM     32  H   UNL     1       5.381   1.944  22.151  0.00  0.00    +0.199 HD
ENDBRANCH  28  29
ENDBRANCH  27  28
ENDBRANCH  26  27
ENDBRANCH  25  26
ENDBRANCH   5  25
ENDBRANCH   3   5
BRANCH   1  33
ATOM     33  C   UNL     1       7.394   0.373  25.293  0.00  0.00    +0.179 C 
BRANCH  33  34
ATOM     34  P   UNL     1       7.742  -0.774  26.672  0.00  0.00    +0.290 P 
ATOM     35  O   UNL     1       8.253  -0.040  27.882  0.00  0.00    -0.271 OA
BRANCH  34  36
ATOM     36  O   UNL     1       8.935  -1.750  26.225  0.00  0.00    -0.332 OA
ATOM     37  H   UNL     1       9.492  -1.317  25.550  0.00  0.00    +0.219 HD
ENDBRANCH  34  36
BRANCH  34  38
ATOM     38  N   UNL     1       6.458  -1.682  27.098  0.00  0.00    -0.233 NA
ATOM     39  H   UNL     1       6.273  -1.648  28.096  0.00  0.00    +0.132 HD
BRANCH  38  40
ATOM     40  C   UNL     1       6.110  -3.008  26.601  0.00  0.00    +0.145 C 
ATOM     41  C   UNL     1       5.101  -3.695  27.538  0.00  0.00    +0.034 C 
BRANCH  40  44
ATOM     42  C   UNL     1       6.869  -4.686  24.105  0.00  0.00    +0.185 C 
ATOM     43  N   UNL     1       5.892  -3.590  24.139  0.00  0.00    -0.287 N 
ATOM     44  C   UNL     1       5.425  -2.872  25.216  0.00  0.00    +0.233 C 
ATOM     45  O   UNL     1       4.443  -2.133  25.068  0.00  0.00    -0.274 OA
ATOM     46  C   UNL     1       5.211  -3.446  22.864  0.00  0.00    +0.109 C 
ATOM     47  C   UNL     1       5.969  -4.337  21.903  0.00  0.00    +0.021 C 
ATOM     48  C   UNL     1       6.493  -5.443  22.816  0.00  0.00    +0.035 C 
BRANCH  42  49
ATOM     49  C   UNL     1       8.351  -4.302  23.988  0.00  0.00    +0.328 C 
ATOM     50  O   UNL     1       8.709  -3.166  23.691  0.00  0.00    -0.249 OA
BRANCH  49  52
ATOM     51  C   UNL     1       9.808  -5.152  25.650  0.00  0.00    +0.280 C 
ATOM     52  O   UNL     1       9.179  -5.305  24.375  0.00  0.00    -0.467 OA
ENDBRANCH  49  52
ENDBRANCH  42  49
ENDBRANCH  40  44
ENDBRANCH  38  40
ENDBRANCH  34  38
ENDBRANCH  33  34
BRANCH  33  53
ATOM     53  C   UNL     1       6.029   1.069  25.542  0.00  0.00    +0.068 C 
BRANCH  53  54
ATOM     54  C   UNL     1       6.004   1.881  26.817  0.00  0.00    -0.045 A 
ATOM     55  C   UNL     1       6.850   2.984  26.986  0.00  0.00    +0.004 A 
ATOM     56  C   UNL     1       6.768   3.759  28.144  0.00  0.00    +0.000 A 
ATOM     57  C   UNL     1       5.849   3.437  29.141  0.00  0.00    +0.000 A 
ATOM     58  C   UNL     1       5.020   2.329  28.990  0.00  0.00    +0.000 A 
ATOM     59  C   UNL     1       5.107   1.549  27.840  0.00  0.00    +0.004 A 
ENDBRANCH  53  54
ENDBRANCH  33  53
ENDBRANCH   1  33
TORSDOF 21
ENDMDL
MODEL 9
REMARK VINA RESULT:      -5.6      2.633      7.546
REMARK  Name = 
REMARK  23 active torsions:
REMARK  status: ('A' for Active; 'I' for Inactive)
REMARK    1  A    between atoms: C_1  and  O_2
REMARK    2  A    between atoms: O_2  and  C_3
REMARK    3  A    between atoms: C_3  and  C_5
REMARK    4  A    between atoms: C_11  and  C_13
REMARK    5  A    between atoms: C_13  and  C_15
REMARK    6  A    between atoms: C_13  and  N_16
REMARK    7  A    between atoms: N_16  and  P_17
REMARK    8  A    between atoms: P_17  and  O_18
REMARK    9  A    between atoms: P_17  and  C_20
REMARK   10  A    between atoms: C_20  and  C_22
REMARK   11  A    between atoms: C_20  and  N_29
REMARK   12  A    between atoms: C_22  and  C_23
REMARK   13  A    between atoms: C_30  and  C_32
REMARK   14  A    between atoms: C_32  and  C_34
REMARK   15  A    between atoms: C_32  and  N_42
REMARK   16  A    between atoms: C_34  and  C_35
REMARK   17  A    between atoms: C_35  and  C_36
REMARK   18  A    between atoms: C_36  and  C_37
REMARK   19  A    between atoms: C_37  and  N_38
REMARK   20  A    between atoms: C_43  and  C_45
REMARK   21  A    between atoms: C_51  and  O_53
REMARK   22  A    between atoms: O_53  and  C_54
REMARK   23  A    between atoms: C_54  and  C_55
REMARK                            x       y       z     vdW  Elec       q    Type
REMARK                         _______ _______ _______ _____ _____    ______ ____
ROOT
ATOM      1  N   UNL     1       5.179   0.233  26.220  0.00  0.00    -0.301 N 
ATOM      2  H   UNL     1       5.614  -0.004  25.321  0.00  0.00    +0.150 HD
ATOM      3  C   UNL     1       5.852   1.244  26.844  0.00  0.00    +0.234 C 
ATOM      4  O   UNL     1       5.890   1.394  28.050  0.00  0.00    -0.274 OA
ENDROOT
BRANCH   3   5
ATOM      5  C   UNL     1       6.634   2.212  25.919  0.00  0.00    +0.159 C 
BRANCH   5   6
ATOM      6  N   UNL     1       7.743   1.555  25.217  0.00  0.00    -0.302 N 
ATOM      7  H   UNL     1       8.491   1.134  25.763  0.00  0.00    +0.150 HD
ATOM      8  C   UNL     1       8.101   1.901  23.935  0.00  0.00    +0.234 C 
ATOM      9  O   UNL     1       7.466   2.741  23.300  0.00  0.00    -0.274 OA
BRANCH   8  10
ATOM     10  C   UNL     1       9.434   1.300  23.429  0.00  0.00    +0.165 C 
ATOM     11  N   UNL     1       9.395  -0.144  23.199  0.00  0.00    -0.256 N 
ATOM     12  C   UNL     1       9.757  -1.059  24.153  0.00  0.00    +0.404 C 
ATOM     13  O   UNL     1       9.871  -0.772  25.341  0.00  0.00    -0.226 OA
ATOM     14  C   UNL     1       9.281  -0.453  21.781  0.00  0.00    +0.112 C 
ATOM     15  C   UNL     1       9.068   0.896  21.110  0.00  0.00    +0.021 C 
ATOM     16  C   UNL     1       9.795   1.855  22.050  0.00  0.00    +0.033 C 
BRANCH  12  17
ATOM     17  O   UNL     1       9.975  -2.283  23.609  0.00  0.00    -0.445 OA
BRANCH  17  18
ATOM     18  C   UNL     1       9.390  -3.416  24.270  0.00  0.00    +0.269 C 
BRANCH  18  19
ATOM     19  C   UNL     1       8.139  -3.881  23.570  0.00  0.00    -0.010 A 
ATOM     20  C   UNL     1       7.183  -2.950  23.143  0.00  0.00    +0.007 A 
ATOM     21  C   UNL     1       6.038  -3.374  22.467  0.00  0.00    +0.000 A 
ATOM     22  C   UNL     1       5.832  -4.731  22.225  0.00  0.00    +0.000 A 
ATOM     23  C   UNL     1       6.754  -5.668  22.682  0.00  0.00    +0.000 A 
ATOM     24  C   UNL     1       7.895  -5.247  23.364  0.00  0.00    +0.007 A 
ENDBRANCH  18  19
ENDBRANCH  17  18
ENDBRANCH  12  17
ENDBRANCH   8  10
ENDBRANCH   5   6
BRANCH   5  25
ATOM     25  C   UNL     1       7.194   3.316  26.843  0.00  0.00    +0.032 C 
BRANCH  25  26
ATOM     26  C   UNL     1       7.169   4.730  26.278  0.00  0.00    +0.007 C 
BRANCH  26  27
ATOM     27  C   UNL     1       8.499   5.149  25.665  0.00  0.00    +0.051 C 
BRANCH  27  28
ATOM     28  C   UNL     1       8.248   5.932  24.389  0.00  0.00    +0.127 C 
BRANCH  28  29
ATOM     29  N   UNL     1       9.062   5.353  23.299  0.00  0.00    +0.219 N 
ATOM     30  H   UNL     1       8.586   5.460  22.395  0.00  0.00    +0.199 HD
ATOM     31  H   UNL     1       9.230   4.348  23.443  0.00  0.00    +0.199 HD
ATOM     32  H   UNL     1       9.977   5.817  23.223  0.00  0.00    +0.199 HD
ENDBRANCH  28  29
ENDBRANCH  27  28
ENDBRANCH  26  27
ENDBRANCH  25  26
ENDBRANCH   5  25
ENDBRANCH   3   5
BRANCH   1  33
ATOM     33  C   UNL     1       4.597  -0.983  26.855  0.00  0.00    +0.179 C 
BRANCH  33  34
ATOM     34  P   UNL     1       3.025  -0.919  27.783  0.00  0.00    +0.290 P 
ATOM     35  O   UNL     1       2.721  -2.236  28.444  0.00  0.00    -0.271 OA
BRANCH  34  36
ATOM     36  O   UNL     1       1.833  -0.678  26.736  0.00  0.00    -0.332 OA
ATOM     37  H   UNL     1       2.188  -0.350  25.888  0.00  0.00    +0.219 HD
ENDBRANCH  34  36
BRANCH  34  38
ATOM     38  N   UNL     1       2.981   0.265  28.902  0.00  0.00    -0.233 NA
ATOM     39  H   UNL     1       3.036  -0.095  29.850  0.00  0.00    +0.132 HD
BRANCH  38  40
ATOM     40  C   UNL     1       2.136   1.453  28.900  0.00  0.00    +0.145 C 
ATOM     41  C   UNL     1       1.142   1.418  30.074  0.00  0.00    +0.034 C 
BRANCH  40  44
ATOM     42  C   UNL     1       2.236   3.833  26.912  0.00  0.00    +0.185 C 
ATOM     43  N   UNL     1       3.074   3.676  28.108  0.00  0.00    -0.287 N 
ATOM     44  C   UNL     1       3.021   2.712  29.089  0.00  0.00    +0.233 C 
ATOM     45  O   UNL     1       3.672   2.874  30.129  0.00  0.00    -0.274 OA
ATOM     46  C   UNL     1       3.903   4.848  28.333  0.00  0.00    +0.109 C 
ATOM     47  C   UNL     1       3.758   5.685  27.080  0.00  0.00    +0.021 C 
ATOM     48  C   UNL     1       2.348   5.339  26.608  0.00  0.00    +0.035 C 
BRANCH  42  49
ATOM     49  C   UNL     1       2.672   3.081  25.646  0.00  0.00    +0.328 C 
ATOM     50  O   UNL     1       2.756   1.858  25.610  0.00  0.00    -0.249 OA
BRANCH  49  52
ATOM     51  C   UNL     1       3.952   3.671  23.743  0.00  0.00    +0.280 C 
ATOM     52  O   UNL     1       2.814   3.905  24.576  0.00  0.00    -0.467 OA
ENDBRANCH  49  52
ENDBRANCH  42  49
ENDBRANCH  40  44
ENDBRANCH  38  40
ENDBRANCH  34  38
ENDBRANCH  33  34
BRANCH  33  53
ATOM     53  C   UNL     1       4.503  -2.093  25.773  0.00  0.00    +0.068 C 
BRANCH  53  54
ATOM     54  C   UNL     1       5.234  -3.358  26.160  0.00  0.00    -0.045 A 
ATOM     55  C   UNL     1       4.706  -4.618  25.856  0.00  0.00    +0.004 A 
ATOM     56  C   UNL     1       5.426  -5.773  26.165  0.00  0.00    +0.000 A 
ATOM     57  C   UNL     1       6.671  -5.680  26.784  0.00  0.00    +0.000 A 
ATOM     58  C   UNL     1       7.193  -4.431  27.111  0.00  0.00    +0.000 A 
ATOM     59  C   UNL     1       6.472  -3.278  26.811  0.00  0.00    +0.004 A 
ENDBRANCH  53  54
ENDBRANCH  33  53
ENDBRANCH   1  33
TORSDOF 21
ENDMDL
