MODEL 1
REMARK VINA RESULT:      -4.9      0.000      0.000
REMARK  Name = 
REMARK  8 active torsions:
REMARK  status: ('A' for Active; 'I' for Inactive)
REMARK    1  A    between atoms: N_1  and  CA_2
REMARK    2  A    between atoms: CA_2  and  C_4
REMARK    3  A    between atoms: CA_2  and  C_15
REMARK    4  A    between atoms: C_4  and  C_5
REMARK    5  A    between atoms: N_10  and  P_11
REMARK    6  A    between atoms: P_11  and  O_12
REMARK    7  A    between atoms: P_11  and  O_13
REMARK    8  A    between atoms: C_15  and  O_16
REMARK                            x       y       z     vdW  Elec       q    Type
REMARK                         _______ _______ _______ _____ _____    ______ ____
ROOT
ATOM      1  C   UNL     1       9.319   0.578  22.997  0.00  0.00    +0.099 A 
ATOM      2  N   UNL     1       8.039   1.086  22.937  0.00  0.00    -0.198 N 
ATOM      3  C   UNL     1       7.905   2.069  22.055  0.00  0.00    +0.416 A 
ATOM      4  N   UNL     1       9.116   2.216  21.502  0.00  0.00    -0.200 N 
ATOM      5  H   UNL     1       9.326   2.911  20.790  0.00  0.00    +0.454 HD
ATOM      6  C   UNL     1      10.003   1.318  22.051  0.00  0.00    +0.330 A 
ENDROOT
BRANCH   2   7
ATOM      7  P   UNL     1       6.638   0.590  23.917  0.00  0.00    +0.441 P 
ATOM      8  O   UNL     1       5.420   0.157  24.769  0.00  0.00    -0.234 OA
BRANCH   7   9
ATOM      9  O   UNL     1       6.465  -0.698  22.921  0.00  0.00    -0.307 OA
ATOM     10  H   UNL     1       6.002  -0.332  22.135  0.00  0.00    +0.222 HD
ENDBRANCH   7   9
BRANCH   7  11
ATOM     11  O   UNL     1       5.792   1.626  22.971  0.00  0.00    -0.307 OA
ATOM     12  H   UNL     1       4.828   1.478  23.102  0.00  0.00    +0.222 HD
ENDBRANCH   7  11
ENDBRANCH   2   7
BRANCH   1  13
ATOM     13  C   UNL     1       9.784  -0.509  23.904  0.00  0.00    +0.090 C 
BRANCH  13  14
ATOM     14  CA  UNL     1       9.860  -1.868  23.192  0.00  0.00    +0.167 C 
BRANCH  14  15
ATOM     15  N   UNL     1       9.061  -1.922  21.946  0.00  0.00    -0.318 NA
ATOM     16  H1  UNL     1       8.452  -2.749  21.940  0.00  0.00    +0.119 HD
ATOM     17  H2  UNL     1       8.422  -1.124  21.889  0.00  0.00    +0.119 HD
ENDBRANCH  14  15
BRANCH  14  18
ATOM     18  C   UNL     1       9.347  -2.984  24.119  0.00  0.00    +0.322 C 
ATOM     19  OXT UNL     1      10.001  -3.965  24.458  0.00  0.00    -0.249 OA
BRANCH  18  20
ATOM     20  O   UNL     1       8.088  -2.741  24.544  0.00  0.00    -0.480 OA
ATOM     21  H   UNL     1       7.615  -3.605  24.640  0.00  0.00    +0.295 HD
ENDBRANCH  18  20
ENDBRANCH  14  18
ENDBRANCH  13  14
ENDBRANCH   1  13
TORSDOF 8
ENDMDL
MODEL 2
REMARK VINA RESULT:      -4.9      2.670      3.526
REMARK  Name = 
REMARK  8 active torsions:
REMARK  status: ('A' for Active; 'I' for Inactive)
REMARK    1  A    between atoms: N_1  and  CA_2
REMARK    2  A    between atoms: CA_2  and  C_4
REMARK    3  A    between atoms: CA_2  and  C_15
REMARK    4  A    between atoms: C_4  and  C_5
REMARK    5  A    between atoms: N_10  and  P_11
REMARK    6  A    between atoms: P_11  and  O_12
REMARK    7  A    between atoms: P_11  and  O_13
REMARK    8  A    between atoms: C_15  and  O_16
REMARK                            x       y       z     vdW  Elec       q    Type
REMARK                         _______ _______ _______ _____ _____    ______ ____
ROOT
ATOM      1  C   UNL     1       9.874  -0.304  23.463  0.00  0.00    +0.099 A 
ATOM      2  N   UNL     1       9.399   0.415  22.386  0.00  0.00    -0.198 N 
ATOM      3  C   UNL     1       9.463  -0.254  21.241  0.00  0.00    +0.416 A 
ATOM      4  N   UNL     1       9.980  -1.449  21.555  0.00  0.00    -0.200 N 
ATOM      5  H   UNL     1      10.159  -2.179  20.871  0.00  0.00    +0.454 HD
ATOM      6  C   UNL     1      10.239  -1.515  22.906  0.00  0.00    +0.330 A 
ENDROOT
BRANCH   2   7
ATOM      7  P   UNL     1       8.779   2.083  22.396  0.00  0.00    +0.441 P 
ATOM      8  O   UNL     1       8.238   3.533  22.404  0.00  0.00    -0.234 OA
BRANCH   7   9
ATOM      9  O   UNL     1       8.037   1.758  20.973  0.00  0.00    -0.307 OA
ATOM     10  H   UNL     1       7.805   0.805  21.036  0.00  0.00    +0.222 HD
ENDBRANCH   7   9
BRANCH   7  11
ATOM     11  O   UNL     1      10.223   2.470  21.726  0.00  0.00    -0.307 OA
ATOM     12  H   UNL     1      10.100   2.668  20.771  0.00  0.00    +0.222 HD
ENDBRANCH   7  11
ENDBRANCH   2   7
BRANCH   1  13
ATOM     13  C   UNL     1       9.954   0.184  24.868  0.00  0.00    +0.090 C 
BRANCH  13  14
ATOM     14  CA  UNL     1       8.605   0.085  25.597  0.00  0.00    +0.167 C 
BRANCH  14  15
ATOM     15  N   UNL     1       8.151   1.376  26.165  0.00  0.00    -0.318 NA
ATOM     16  H1  UNL     1       7.193   1.590  25.862  0.00  0.00    +0.119 HD
ATOM     17  H2  UNL     1       8.097   1.323  27.187  0.00  0.00    +0.119 HD
ENDBRANCH  14  15
BRANCH  14  18
ATOM     18  C   UNL     1       8.697  -0.924  26.754  0.00  0.00    +0.322 C 
ATOM     19  OXT UNL     1       8.343  -2.096  26.689  0.00  0.00    -0.249 OA
BRANCH  18  20
ATOM     20  O   UNL     1       9.247  -0.369  27.857  0.00  0.00    -0.480 OA
ATOM     21  H   UNL     1       8.620  -0.486  28.615  0.00  0.00    +0.295 HD
ENDBRANCH  18  20
ENDBRANCH  14  18
ENDBRANCH  13  14
ENDBRANCH   1  13
TORSDOF 8
ENDMDL
MODEL 3
REMARK VINA RESULT:      -4.8      2.616      3.153
REMARK  Name = 
REMARK  8 active torsions:
REMARK  status: ('A' for Active; 'I' for Inactive)
REMARK    1  A    between atoms: N_1  and  CA_2
REMARK    2  A    between atoms: CA_2  and  C_4
REMARK    3  A    between atoms: CA_2  and  C_15
REMARK    4  A    between atoms: C_4  and  C_5
REMARK    5  A    between atoms: N_10  and  P_11
REMARK    6  A    between atoms: P_11  and  O_12
REMARK    7  A    between atoms: P_11  and  O_13
REMARK    8  A    between atoms: C_15  and  O_16
REMARK                            x       y       z     vdW  Elec       q    Type
REMARK                         _______ _______ _______ _____ _____    ______ ____
ROOT
ATOM      1  C   UNL     1       8.286   0.369  23.558  0.00  0.00    +0.099 A 
ATOM      2  N   UNL     1       8.463   1.653  23.088  0.00  0.00    -0.198 N 
ATOM      3  C   UNL     1       7.390   2.138  22.474  0.00  0.00    +0.416 A 
ATOM      4  N   UNL     1       6.471   1.166  22.544  0.00  0.00    -0.200 N 
ATOM      5  H   UNL     1       5.540   1.247  22.144  0.00  0.00    +0.454 HD
ATOM      6  C   UNL     1       6.984   0.073  23.204  0.00  0.00    +0.330 A 
ENDROOT
BRANCH   2   7
ATOM      7  P   UNL     1       9.937   2.645  23.194  0.00  0.00    +0.441 P 
ATOM      8  O   UNL     1      11.219   3.508  23.287  0.00  0.00    -0.234 OA
BRANCH   7   9
ATOM      9  O   UNL     1       9.031   3.942  22.776  0.00  0.00    -0.307 OA
ATOM     10  H   UNL     1       8.781   3.769  21.841  0.00  0.00    +0.222 HD
ENDBRANCH   7   9
BRANCH   7  11
ATOM     11  O   UNL     1      10.208   2.148  21.656  0.00  0.00    -0.307 OA
ATOM     12  H   UNL     1      10.699   2.846  21.167  0.00  0.00    +0.222 HD
ENDBRANCH   7  11
ENDBRANCH   2   7
BRANCH   1  13
ATOM     13  C   UNL     1       9.312  -0.448  24.265  0.00  0.00    +0.090 C 
BRANCH  13  14
ATOM     14  CA  UNL     1       9.981  -1.474  23.336  0.00  0.00    +0.167 C 
BRANCH  14  15
ATOM     15  N   UNL     1       9.959  -1.073  21.910  0.00  0.00    -0.318 NA
ATOM     16  H1  UNL     1      10.668  -0.354  21.724  0.00  0.00    +0.119 HD
ATOM     17  H2  UNL     1      10.219  -1.861  21.308  0.00  0.00    +0.119 HD
ENDBRANCH  14  15
BRANCH  14  18
ATOM     18  C   UNL     1       9.270  -2.834  23.447  0.00  0.00    +0.322 C 
ATOM     19  OXT UNL     1       8.253  -3.142  22.833  0.00  0.00    -0.249 OA
BRANCH  18  20
ATOM     20  O   UNL     1       9.919  -3.670  24.287  0.00  0.00    -0.480 OA
ATOM     21  H   UNL     1      10.163  -3.168  25.105  0.00  0.00    +0.295 HD
ENDBRANCH  18  20
ENDBRANCH  14  18
ENDBRANCH  13  14
ENDBRANCH   1  13
TORSDOF 8
ENDMDL
MODEL 4
REMARK VINA RESULT:      -4.8      3.587      4.741
REMARK  Name = 
REMARK  8 active torsions:
REMARK  status: ('A' for Active; 'I' for Inactive)
REMARK    1  A    between atoms: N_1  and  CA_2
REMARK    2  A    between atoms: CA_2  and  C_4
REMARK    3  A    between atoms: CA_2  and  C_15
REMARK    4  A    between atoms: C_4  and  C_5
REMARK    5  A    between atoms: N_10  and  P_11
REMARK    6  A    between atoms: P_11  and  O_12
REMARK    7  A    between atoms: P_11  and  O_13
REMARK    8  A    between atoms: C_15  and  O_16
REMARK                            x       y       z     vdW  Elec       q    Type
REMARK                         _______ _______ _______ _____ _____    ______ ____
ROOT
ATOM      1  C   UNL     1       8.444  -3.728  23.773  0.00  0.00    +0.099 A 
ATOM      2  N   UNL     1       7.419  -3.471  22.888  0.00  0.00    -0.198 N 
ATOM      3  C   UNL     1       7.545  -2.306  22.265  0.00  0.00    +0.416 A 
ATOM      4  N   UNL     1       8.683  -1.775  22.731  0.00  0.00    -0.200 N 
ATOM      5  H   UNL     1       9.039  -0.868  22.439  0.00  0.00    +0.454 HD
ATOM      6  C   UNL     1       9.261  -2.620  23.651  0.00  0.00    +0.330 A 
ENDROOT
BRANCH   2   7
ATOM      7  P   UNL     1       6.000  -4.494  22.558  0.00  0.00    +0.441 P 
ATOM      8  O   UNL     1       4.766  -5.383  22.270  0.00  0.00    -0.234 OA
BRANCH   7   9
ATOM      9  O   UNL     1       5.480  -3.344  21.515  0.00  0.00    -0.307 OA
ATOM     10  H   UNL     1       6.281  -2.803  21.336  0.00  0.00    +0.222 HD
ENDBRANCH   7   9
BRANCH   7  11
ATOM     11  O   UNL     1       5.361  -3.787  23.891  0.00  0.00    -0.307 OA
ATOM     12  H   UNL     1       5.596  -2.832  23.901  0.00  0.00    +0.222 HD
ENDBRANCH   7  11
ENDBRANCH   2   7
BRANCH   1  13
ATOM     13  C   UNL     1       8.568  -4.937  24.635  0.00  0.00    +0.090 C 
BRANCH  13  14
ATOM     14  CA  UNL     1       8.320  -4.623  26.119  0.00  0.00    +0.167 C 
BRANCH  14  15
ATOM     15  N   UNL     1       9.512  -4.840  26.970  0.00  0.00    -0.318 NA
ATOM     16  H1  UNL     1      10.167  -5.491  26.520  0.00  0.00    +0.119 HD
ATOM     17  H2  UNL     1      10.042  -3.970  27.082  0.00  0.00    +0.119 HD
ENDBRANCH  14  15
BRANCH  14  18
ATOM     18  C   UNL     1       7.190  -5.512  26.669  0.00  0.00    +0.322 C 
ATOM     19  OXT UNL     1       6.126  -5.723  26.096  0.00  0.00    -0.249 OA
BRANCH  18  20
ATOM     20  O   UNL     1       7.521  -6.061  27.858  0.00  0.00    -0.480 OA
ATOM     21  H   UNL     1       7.033  -5.582  28.574  0.00  0.00    +0.295 HD
ENDBRANCH  18  20
ENDBRANCH  14  18
ENDBRANCH  13  14
ENDBRANCH   1  13
TORSDOF 8
ENDMDL
MODEL 5
REMARK VINA RESULT:      -4.8      5.695      7.038
REMARK  Name = 
REMARK  8 active torsions:
REMARK  status: ('A' for Active; 'I' for Inactive)
REMARK    1  A    between atoms: N_1  and  CA_2
REMARK    2  A    between atoms: CA_2  and  C_4
REMARK    3  A    between atoms: CA_2  and  C_15
REMARK    4  A    between atoms: C_4  and  C_5
REMARK    5  A    between atoms: N_10  and  P_11
REMARK    6  A    between atoms: P_11  and  O_12
REMARK    7  A    between atoms: P_11  and  O_13
REMARK    8  A    between atoms: C_15  and  O_16
REMARK                            x       y       z     vdW  Elec       q    Type
REMARK                         _______ _______ _______ _____ _____    ______ ____
ROOT
ATOM      1  C   UNL     1       5.737  -5.714  25.689  0.00  0.00    +0.099 A 
ATOM      2  N   UNL     1       5.043  -5.989  24.529  0.00  0.00    -0.198 N 
ATOM      3  C   UNL     1       4.141  -6.952  24.675  0.00  0.00    +0.416 A 
ATOM      4  N   UNL     1       4.220  -7.322  25.960  0.00  0.00    -0.200 N 
ATOM      5  H   UNL     1       3.649  -8.057  26.367  0.00  0.00    +0.454 HD
ATOM      6  C   UNL     1       5.183  -6.582  26.610  0.00  0.00    +0.330 A 
ENDROOT
BRANCH   2   7
ATOM      7  P   UNL     1       5.270  -5.234  22.934  0.00  0.00    +0.441 P 
ATOM      8  O   UNL     1       5.467  -4.575  21.547  0.00  0.00    -0.234 OA
BRANCH   7   9
ATOM      9  O   UNL     1       3.651  -5.331  22.716  0.00  0.00    -0.307 OA
ATOM     10  H   UNL     1       3.470  -4.706  21.980  0.00  0.00    +0.222 HD
ENDBRANCH   7   9
BRANCH   7  11
ATOM     11  O   UNL     1       5.584  -6.757  22.418  0.00  0.00    -0.307 OA
ATOM     12  H   UNL     1       6.527  -6.975  22.592  0.00  0.00    +0.222 HD
ENDBRANCH   7  11
ENDBRANCH   2   7
BRANCH   1  13
ATOM     13  C   UNL     1       6.825  -4.706  25.834  0.00  0.00    +0.090 C 
BRANCH  13  14
ATOM     14  CA  UNL     1       8.210  -5.359  25.958  0.00  0.00    +0.167 C 
BRANCH  14  15
ATOM     15  N   UNL     1       8.905  -5.024  27.222  0.00  0.00    -0.318 NA
ATOM     16  H1  UNL     1       8.253  -4.597  27.892  0.00  0.00    +0.119 HD
ATOM     17  H2  UNL     1       9.242  -5.872  27.688  0.00  0.00    +0.119 HD
ENDBRANCH  14  15
BRANCH  14  18
ATOM     18  C   UNL     1       9.116  -4.908  24.799  0.00  0.00    +0.322 C 
ATOM     19  OXT UNL     1       8.737  -4.265  23.825  0.00  0.00    -0.249 OA
BRANCH  18  20
ATOM     20  O   UNL     1      10.400  -5.284  24.993  0.00  0.00    -0.480 OA
ATOM     21  H   UNL     1      10.852  -4.592  25.538  0.00  0.00    +0.295 HD
ENDBRANCH  18  20
ENDBRANCH  14  18
ENDBRANCH  13  14
ENDBRANCH   1  13
TORSDOF 8
ENDMDL
MODEL 6
REMARK VINA RESULT:      -4.8      2.722      3.782
REMARK  Name = 
REMARK  8 active torsions:
REMARK  status: ('A' for Active; 'I' for Inactive)
REMARK    1  A    between atoms: N_1  and  CA_2
REMARK    2  A    between atoms: CA_2  and  C_4
REMARK    3  A    between atoms: CA_2  and  C_15
REMARK    4  A    between atoms: C_4  and  C_5
REMARK    5  A    between atoms: N_10  and  P_11
REMARK    6  A    between atoms: P_11  and  O_12
REMARK    7  A    between atoms: P_11  and  O_13
REMARK    8  A    between atoms: C_15  and  O_16
REMARK                            x       y       z     vdW  Elec       q    Type
REMARK                         _______ _______ _______ _____ _____    ______ ____
ROOT
ATOM      1  C   UNL     1       7.789   0.551  23.019  0.00  0.00    +0.099 A 
ATOM      2  N   UNL     1       8.850  -0.180  22.530  0.00  0.00    -0.198 N 
ATOM      3  C   UNL     1       9.368   0.328  21.418  0.00  0.00    +0.416 A 
ATOM      4  N   UNL     1       8.648   1.428  21.162  0.00  0.00    -0.200 N 
ATOM      5  H   UNL     1       8.809   2.027  20.356  0.00  0.00    +0.454 HD
ATOM      6  C   UNL     1       7.677   1.597  22.123  0.00  0.00    +0.330 A 
ENDROOT
BRANCH   2   7
ATOM      7  P   UNL     1       9.522  -1.684  23.204  0.00  0.00    +0.441 P 
ATOM      8  O   UNL     1      10.106  -2.992  23.791  0.00  0.00    -0.234 OA
BRANCH   7   9
ATOM      9  O   UNL     1      10.491  -0.765  24.150  0.00  0.00    -0.307 OA
ATOM     10  H   UNL     1      10.678   0.029  23.602  0.00  0.00    +0.222 HD
ENDBRANCH   7   9
BRANCH   7  11
ATOM     11  O   UNL     1      10.514  -1.655  21.900  0.00  0.00    -0.307 OA
ATOM     12  H   UNL     1      10.017  -1.944  21.102  0.00  0.00    +0.222 HD
ENDBRANCH   7  11
ENDBRANCH   2   7
BRANCH   1  13
ATOM     13  C   UNL     1       6.989   0.221  24.233  0.00  0.00    +0.090 C 
BRANCH  13  14
ATOM     14  CA  UNL     1       7.608   0.802  25.514  0.00  0.00    +0.167 C 
BRANCH  14  15
ATOM     15  N   UNL     1       8.868   1.542  25.271  0.00  0.00    -0.318 NA
ATOM     16  H1  UNL     1       8.706   2.556  25.308  0.00  0.00    +0.119 HD
ATOM     17  H2  UNL     1       9.547   1.358  26.016  0.00  0.00    +0.119 HD
ENDBRANCH  14  15
BRANCH  14  18
ATOM     18  C   UNL     1       7.919  -0.326  26.513  0.00  0.00    +0.322 C 
ATOM     19  OXT UNL     1       7.096  -1.131  26.936  0.00  0.00    -0.249 OA
BRANCH  18  20
ATOM     20  O   UNL     1       9.227  -0.346  26.853  0.00  0.00    -0.480 OA
ATOM     21  H   UNL     1       9.410   0.425  27.448  0.00  0.00    +0.295 HD
ENDBRANCH  18  20
ENDBRANCH  14  18
ENDBRANCH  13  14
ENDBRANCH   1  13
TORSDOF 8
ENDMDL
MODEL 7
REMARK VINA RESULT:      -4.7      1.666      2.319
REMARK  Name = 
REMARK  8 active torsions:
REMARK  status: ('A' for Active; 'I' for Inactive)
REMARK    1  A    between atoms: N_1  and  CA_2
REMARK    2  A    between atoms: CA_2  and  C_4
REMARK    3  A    between atoms: CA_2  and  C_15
REMARK    4  A    between atoms: C_4  and  C_5
REMARK    5  A    between atoms: N_10  and  P_11
REMARK    6  A    between atoms: P_11  and  O_12
REMARK    7  A    between atoms: P_11  and  O_13
REMARK    8  A    between atoms: C_15  and  O_16
REMARK                            x       y       z     vdW  Elec       q    Type
REMARK                         _______ _______ _______ _____ _____    ______ ____
ROOT
ATOM      1  C   UNL     1       9.254  -1.557  23.424  0.00  0.00    +0.099 A 
ATOM      2  N   UNL     1       8.306  -0.641  23.018  0.00  0.00    -0.198 N 
ATOM      3  C   UNL     1       8.605  -0.052  21.867  0.00  0.00    +0.416 A 
ATOM      4  N   UNL     1       9.771  -0.590  21.485  0.00  0.00    -0.200 N 
ATOM      5  H   UNL     1      10.259  -0.322  20.635  0.00  0.00    +0.454 HD
ATOM      6  C   UNL     1      10.194  -1.517  22.412  0.00  0.00    +0.330 A 
ENDROOT
BRANCH   2   7
ATOM      7  P   UNL     1       6.818  -0.181  23.879  0.00  0.00    +0.441 P 
ATOM      8  O   UNL     1       5.524   0.218  24.629  0.00  0.00    -0.234 OA
BRANCH   7   9
ATOM      9  O   UNL     1       6.088  -1.482  23.204  0.00  0.00    -0.307 OA
ATOM     10  H   UNL     1       5.538  -1.851  23.930  0.00  0.00    +0.222 HD
ENDBRANCH   7   9
BRANCH   7  11
ATOM     11  O   UNL     1       6.560   0.815  22.604  0.00  0.00    -0.307 OA
ATOM     12  H   UNL     1       6.570   0.291  21.771  0.00  0.00    +0.222 HD
ENDBRANCH   7  11
ENDBRANCH   2   7
BRANCH   1  13
ATOM     13  C   UNL     1       9.211  -2.357  24.680  0.00  0.00    +0.090 C 
BRANCH  13  14
ATOM     14  CA  UNL     1       8.882  -3.835  24.418  0.00  0.00    +0.167 C 
BRANCH  14  15
ATOM     15  N   UNL     1       7.443  -4.079  24.168  0.00  0.00    -0.318 NA
ATOM     16  H1  UNL     1       6.863  -3.486  24.775  0.00  0.00    +0.119 HD
ATOM     17  H2  UNL     1       7.188  -3.807  23.214  0.00  0.00    +0.119 HD
ENDBRANCH  14  15
BRANCH  14  18
ATOM     18  C   UNL     1       9.295  -4.694  25.626  0.00  0.00    +0.322 C 
ATOM     19  OXT UNL     1       8.851  -4.560  26.762  0.00  0.00    -0.249 OA
BRANCH  18  20
ATOM     20  O   UNL     1      10.193  -5.642  25.281  0.00  0.00    -0.480 OA
ATOM     21  H   UNL     1      10.468  -5.490  24.342  0.00  0.00    +0.295 HD
ENDBRANCH  18  20
ENDBRANCH  14  18
ENDBRANCH  13  14
ENDBRANCH   1  13
TORSDOF 8
ENDMDL
MODEL 8
REMARK VINA RESULT:      -4.7      6.055      7.511
REMARK  Name = 
REMARK  8 active torsions:
REMARK  status: ('A' for Active; 'I' for Inactive)
REMARK    1  A    between atoms: N_1  and  CA_2
REMARK    2  A    between atoms: CA_2  and  C_4
REMARK    3  A    between atoms: CA_2  and  C_15
REMARK    4  A    between atoms: C_4  and  C_5
REMARK    5  A    between atoms: N_10  and  P_11
REMARK    6  A    between atoms: P_11  and  O_12
REMARK    7  A    between atoms: P_11  and  O_13
REMARK    8  A    between atoms: C_15  and  O_16
REMARK                            x       y       z     vdW  Elec       q    Type
REMARK                         _______ _______ _______ _____ _____    ______ ____
ROOT
ATOM      1  C   UNL     1       5.598  -5.733  24.916  0.00  0.00    +0.099 A 
ATOM      2  N   UNL     1       4.597  -6.357  25.629  0.00  0.00    -0.198 N 
ATOM      3  C   UNL     1       3.810  -7.114  24.874  0.00  0.00    +0.416 A 
ATOM      4  N   UNL     1       4.300  -7.007  23.632  0.00  0.00    -0.200 N 
ATOM      5  H   UNL     1       3.891  -7.474  22.827  0.00  0.00    +0.454 HD
ATOM      6  C   UNL     1       5.395  -6.173  23.623  0.00  0.00    +0.330 A 
ENDROOT
BRANCH   2   7
ATOM      7  P   UNL     1       4.265  -6.211  27.372  0.00  0.00    +0.441 P 
ATOM      8  O   UNL     1       3.977  -6.083  28.888  0.00  0.00    -0.234 OA
BRANCH   7   9
ATOM      9  O   UNL     1       5.403  -7.359  27.631  0.00  0.00    -0.307 OA
ATOM     10  H   UNL     1       4.896  -8.123  27.984  0.00  0.00    +0.222 HD
ENDBRANCH   7   9
BRANCH   7  11
ATOM     11  O   UNL     1       3.047  -7.269  27.082  0.00  0.00    -0.307 OA
ATOM     12  H   UNL     1       3.394  -8.188  27.124  0.00  0.00    +0.222 HD
ENDBRANCH   7  11
ENDBRANCH   2   7
BRANCH   1  13
ATOM     13  C   UNL     1       6.618  -4.804  25.479  0.00  0.00    +0.090 C 
BRANCH  13  14
ATOM     14  CA  UNL     1       7.900  -5.536  25.907  0.00  0.00    +0.167 C 
BRANCH  14  15
ATOM     15  N   UNL     1       8.028  -5.682  27.375  0.00  0.00    -0.318 NA
ATOM     16  H1  UNL     1       7.406  -6.421  27.723  0.00  0.00    +0.119 HD
ATOM     17  H2  UNL     1       8.971  -5.992  27.629  0.00  0.00    +0.119 HD
ENDBRANCH  14  15
BRANCH  14  18
ATOM     18  C   UNL     1       9.140  -4.774  25.407  0.00  0.00    +0.322 C 
ATOM     19  OXT UNL     1       9.156  -3.583  25.114  0.00  0.00    -0.249 OA
BRANCH  18  20
ATOM     20  O   UNL     1      10.228  -5.573  25.354  0.00  0.00    -0.480 OA
ATOM     21  H   UNL     1      10.959  -5.081  24.902  0.00  0.00    +0.295 HD
ENDBRANCH  18  20
ENDBRANCH  14  18
ENDBRANCH  13  14
ENDBRANCH   1  13
TORSDOF 8
ENDMDL
MODEL 9
REMARK VINA RESULT:      -4.6      2.925      5.436
REMARK  Name = 
REMARK  8 active torsions:
REMARK  status: ('A' for Active; 'I' for Inactive)
REMARK    1  A    between atoms: N_1  and  CA_2
REMARK    2  A    between atoms: CA_2  and  C_4
REMARK    3  A    between atoms: CA_2  and  C_15
REMARK    4  A    between atoms: C_4  and  C_5
REMARK    5  A    between atoms: N_10  and  P_11
REMARK    6  A    between atoms: P_11  and  O_12
REMARK    7  A    between atoms: P_11  and  O_13
REMARK    8  A    between atoms: C_15  and  O_16
REMARK                            x       y       z     vdW  Elec       q    Type
REMARK                         _______ _______ _______ _____ _____    ______ ____
ROOT
ATOM      1  C   UNL     1       7.824  -3.155  22.979  0.00  0.00    +0.099 A 
ATOM      2  N   UNL     1       7.933  -4.292  23.751  0.00  0.00    -0.198 N 
ATOM      3  C   UNL     1       7.260  -5.325  23.260  0.00  0.00    +0.416 A 
ATOM      4  N   UNL     1       6.699  -4.878  22.129  0.00  0.00    -0.200 N 
ATOM      5  H   UNL     1       6.107  -5.451  21.533  0.00  0.00    +0.454 HD
ATOM      6  C   UNL     1       7.027  -3.557  21.925  0.00  0.00    +0.330 A 
ENDROOT
BRANCH   2   7
ATOM      7  P   UNL     1       8.816  -4.469  25.286  0.00  0.00    +0.441 P 
ATOM      8  O   UNL     1       9.586  -4.623  26.620  0.00  0.00    -0.234 OA
BRANCH   7   9
ATOM      9  O   UNL     1       9.679  -5.673  24.588  0.00  0.00    -0.307 OA
ATOM     10  H   UNL     1       9.663  -6.396  25.254  0.00  0.00    +0.222 HD
ENDBRANCH   7   9
BRANCH   7  11
ATOM     11  O   UNL     1       7.561  -5.423  25.732  0.00  0.00    -0.307 OA
ATOM     12  H   UNL     1       7.883  -6.340  25.884  0.00  0.00    +0.222 HD
ENDBRANCH   7  11
ENDBRANCH   2   7
BRANCH   1  13
ATOM     13  C   UNL     1       8.443  -1.833  23.282  0.00  0.00    +0.090 C 
BRANCH  13  14
ATOM     14  CA  UNL     1       8.915  -1.107  22.013  0.00  0.00    +0.167 C 
BRANCH  14  15
ATOM     15  N   UNL     1      10.261  -1.531  21.562  0.00  0.00    -0.318 NA
ATOM     16  H1  UNL     1      10.213  -2.433  21.075  0.00  0.00    +0.119 HD
ATOM     17  H2  UNL     1      10.634  -0.877  20.867  0.00  0.00    +0.119 HD
ENDBRANCH  14  15
BRANCH  14  18
ATOM     18  C   UNL     1       8.966   0.412  22.257  0.00  0.00    +0.322 C 
ATOM     19  OXT UNL     1       8.960   0.941  23.363  0.00  0.00    -0.249 OA
BRANCH  18  20
ATOM     20  O   UNL     1       9.046   1.101  21.098  0.00  0.00    -0.480 OA
ATOM     21  H   UNL     1       9.992   1.121  20.807  0.00  0.00    +0.295 HD
ENDBRANCH  18  20
ENDBRANCH  14  18
ENDBRANCH  13  14
ENDBRANCH   1  13
TORSDOF 8
ENDMDL
