MODEL 1
REMARK VINA RESULT:      -2.8      0.000      0.000
REMARK  Name = 
REMARK  3 active torsions:
REMARK  status: ('A' for Active; 'I' for Inactive)
REMARK    1  A    between atoms: C_1  and  C_2
REMARK    2  A    between atoms: C_2  and  C_3
REMARK    3  A    between atoms: C_2  and  O_4
REMARK                            x       y       z     vdW  Elec       q    Type
REMARK                         _______ _______ _______ _____ _____    ______ ____
ROOT
ATOM      1  C   UNL     1      11.841   4.137  23.273  0.00  0.00    +0.037 C 
ATOM      2  C   UNL     1      12.677   5.407  23.228  0.00  0.00    +0.108 C 
ATOM      3  C   UNL     1      12.388   6.318  24.411  0.00  0.00    +0.037 C 
ENDROOT
BRANCH   2   4
ATOM      4  O   UNL     1      14.059   5.061  23.230  0.00  0.00    -0.392 OA
ATOM      5  H   UNL     1      14.573   5.880  23.128  0.00  0.00    +0.210 HD
ENDBRANCH   2   4
TORSDOF 1
ENDMDL
MODEL 2
REMARK VINA RESULT:      -2.5      5.218      5.775
REMARK  Name = 
REMARK  3 active torsions:
REMARK  status: ('A' for Active; 'I' for Inactive)
REMARK    1  A    between atoms: C_1  and  C_2
REMARK    2  A    between atoms: C_2  and  C_3
REMARK    3  A    between atoms: C_2  and  O_4
REMARK                            x       y       z     vdW  Elec       q    Type
REMARK                         _______ _______ _______ _____ _____    ______ ____
ROOT
ATOM      1  C   UNL     1       7.911   1.937  21.627  0.00  0.00    +0.037 C 
ATOM      2  C   UNL     1       9.276   1.401  22.032  0.00  0.00    +0.108 C 
ATOM      3  C   UNL     1       9.527   0.009  21.472  0.00  0.00    +0.037 C 
ENDROOT
BRANCH   2   4
ATOM      4  O   UNL     1      10.287   2.286  21.560  0.00  0.00    -0.392 OA
ATOM      5  H   UNL     1      10.507   2.901  22.280  0.00  0.00    +0.210 HD
ENDBRANCH   2   4
TORSDOF 1
ENDMDL
MODEL 3
REMARK VINA RESULT:      -2.5      4.611      5.082
REMARK  Name = 
REMARK  3 active torsions:
REMARK  status: ('A' for Active; 'I' for Inactive)
REMARK    1  A    between atoms: C_1  and  C_2
REMARK    2  A    between atoms: C_2  and  C_3
REMARK    3  A    between atoms: C_2  and  O_4
REMARK                            x       y       z     vdW  Elec       q    Type
REMARK                         _______ _______ _______ _____ _____    ______ ____
ROOT
ATOM      1  C   UNL     1       9.802  -0.038  21.778  0.00  0.00    +0.037 C 
ATOM      2  C   UNL     1       9.714   1.327  22.443  0.00  0.00    +0.108 C 
ATOM      3  C   UNL     1      10.445   1.356  23.777  0.00  0.00    +0.037 C 
ENDROOT
BRANCH   2   4
ATOM      4  O   UNL     1      10.277   2.308  21.578  0.00  0.00    -0.392 OA
ATOM      5  H   UNL     1       9.917   2.162  20.687  0.00  0.00    +0.210 HD
ENDBRANCH   2   4
TORSDOF 1
ENDMDL
MODEL 4
REMARK VINA RESULT:      -2.3      6.415      6.696
REMARK  Name = 
REMARK  3 active torsions:
REMARK  status: ('A' for Active; 'I' for Inactive)
REMARK    1  A    between atoms: C_1  and  C_2
REMARK    2  A    between atoms: C_2  and  C_3
REMARK    3  A    between atoms: C_2  and  O_4
REMARK                            x       y       z     vdW  Elec       q    Type
REMARK                         _______ _______ _______ _____ _____    ______ ____
ROOT
ATOM      1  C   UNL     1      10.462  -0.176  23.477  0.00  0.00    +0.037 C 
ATOM      2  C   UNL     1       9.582  -0.576  22.302  0.00  0.00    +0.108 C 
ATOM      3  C   UNL     1       9.238   0.615  21.421  0.00  0.00    +0.037 C 
ENDROOT
BRANCH   2   4
ATOM      4  O   UNL     1      10.257  -1.558  21.522  0.00  0.00    -0.392 OA
ATOM      5  H   UNL     1      10.366  -2.353  22.072  0.00  0.00    +0.210 HD
ENDBRANCH   2   4
TORSDOF 1
ENDMDL
MODEL 5
REMARK VINA RESULT:      -2.2      3.937      4.303
REMARK  Name = 
REMARK  3 active torsions:
REMARK  status: ('A' for Active; 'I' for Inactive)
REMARK    1  A    between atoms: C_1  and  C_2
REMARK    2  A    between atoms: C_2  and  C_3
REMARK    3  A    between atoms: C_2  and  O_4
REMARK                            x       y       z     vdW  Elec       q    Type
REMARK                         _______ _______ _______ _____ _____    ______ ____
ROOT
ATOM      1  C   UNL     1       9.138   3.405  23.518  0.00  0.00    +0.037 C 
ATOM      2  C   UNL     1      10.366   2.616  23.088  0.00  0.00    +0.108 C 
ATOM      3  C   UNL     1      10.551   1.357  23.922  0.00  0.00    +0.037 C 
ENDROOT
BRANCH   2   4
ATOM      4  O   UNL     1      10.235   2.255  21.717  0.00  0.00    -0.392 OA
ATOM      5  H   UNL     1       9.669   1.466  21.668  0.00  0.00    +0.210 HD
ENDBRANCH   2   4
TORSDOF 1
ENDMDL
MODEL 6
REMARK VINA RESULT:      -2.2     10.109     10.949
REMARK  Name = 
REMARK  3 active torsions:
REMARK  status: ('A' for Active; 'I' for Inactive)
REMARK    1  A    between atoms: C_1  and  C_2
REMARK    2  A    between atoms: C_2  and  C_3
REMARK    3  A    between atoms: C_2  and  O_4
REMARK                            x       y       z     vdW  Elec       q    Type
REMARK                         _______ _______ _______ _____ _____    ______ ____
ROOT
ATOM      1  C   UNL     1       8.143  -5.311  26.159  0.00  0.00    +0.037 C 
ATOM      2  C   UNL     1       9.142  -5.129  25.026  0.00  0.00    +0.108 C 
ATOM      3  C   UNL     1       9.259  -3.673  24.602  0.00  0.00    +0.037 C 
ENDROOT
BRANCH   2   4
ATOM      4  O   UNL     1      10.419  -5.600  25.446  0.00  0.00    -0.392 OA
ATOM      5  H   UNL     1      10.278  -6.365  26.030  0.00  0.00    +0.210 HD
ENDBRANCH   2   4
TORSDOF 1
ENDMDL
MODEL 7
REMARK VINA RESULT:      -2.2      7.764      8.136
REMARK  Name = 
REMARK  3 active torsions:
REMARK  status: ('A' for Active; 'I' for Inactive)
REMARK    1  A    between atoms: C_1  and  C_2
REMARK    2  A    between atoms: C_2  and  C_3
REMARK    3  A    between atoms: C_2  and  O_4
REMARK                            x       y       z     vdW  Elec       q    Type
REMARK                         _______ _______ _______ _____ _____    ______ ____
ROOT
ATOM      1  C   UNL     1       7.993  -2.300  22.245  0.00  0.00    +0.037 C 
ATOM      2  C   UNL     1       9.313  -1.674  22.670  0.00  0.00    +0.108 C 
ATOM      3  C   UNL     1       9.979  -2.460  23.789  0.00  0.00    +0.037 C 
ENDROOT
BRANCH   2   4
ATOM      4  O   UNL     1      10.190  -1.620  21.548  0.00  0.00    -0.392 OA
ATOM      5  H   UNL     1       9.800  -1.017  20.893  0.00  0.00    +0.210 HD
ENDBRANCH   2   4
TORSDOF 1
ENDMDL
MODEL 8
REMARK VINA RESULT:      -2.2     11.057     11.570
REMARK  Name = 
REMARK  3 active torsions:
REMARK  status: ('A' for Active; 'I' for Inactive)
REMARK    1  A    between atoms: C_1  and  C_2
REMARK    2  A    between atoms: C_2  and  C_3
REMARK    3  A    between atoms: C_2  and  O_4
REMARK                            x       y       z     vdW  Elec       q    Type
REMARK                         _______ _______ _______ _____ _____    ______ ____
ROOT
ATOM      1  C   UNL     1       7.944  -3.559  26.457  0.00  0.00    +0.037 C 
ATOM      2  C   UNL     1       8.166  -5.028  26.132  0.00  0.00    +0.108 C 
ATOM      3  C   UNL     1       9.500  -5.260  25.440  0.00  0.00    +0.037 C 
ENDROOT
BRANCH   2   4
ATOM      4  O   UNL     1       8.123  -5.788  27.336  0.00  0.00    -0.392 OA
ATOM      5  H   UNL     1       9.039  -5.959  27.614  0.00  0.00    +0.210 HD
ENDBRANCH   2   4
TORSDOF 1
ENDMDL
MODEL 9
REMARK VINA RESULT:      -2.1     12.017     12.513
REMARK  Name = 
REMARK  3 active torsions:
REMARK  status: ('A' for Active; 'I' for Inactive)
REMARK    1  A    between atoms: C_1  and  C_2
REMARK    2  A    between atoms: C_2  and  C_3
REMARK    3  A    between atoms: C_2  and  O_4
REMARK                            x       y       z     vdW  Elec       q    Type
REMARK                         _______ _______ _______ _____ _____    ______ ____
ROOT
ATOM      1  C   UNL     1       8.584  -5.310  25.649  0.00  0.00    +0.037 C 
ATOM      2  C   UNL     1       7.411  -5.202  26.611  0.00  0.00    +0.108 C 
ATOM      3  C   UNL     1       6.111  -5.672  25.975  0.00  0.00    +0.037 C 
ENDROOT
BRANCH   2   4
ATOM      4  O   UNL     1       7.678  -5.988  27.769  0.00  0.00    -0.392 OA
ATOM      5  H   UNL     1       8.573  -5.771  28.078  0.00  0.00    +0.210 HD
ENDBRANCH   2   4
TORSDOF 1
ENDMDL
