MODEL 1
REMARK VINA RESULT:      -8.1      0.000      0.000
REMARK  Name = 
REMARK  6 active torsions:
REMARK  status: ('A' for Active; 'I' for Inactive)
REMARK    1  A    between atoms: C_13  and  C_14
REMARK    2  A    between atoms: C_14  and  N_15
REMARK    3  A    between atoms: N_15  and  C_16
REMARK    4  A    between atoms: C_19  and  S_22
REMARK    5  A    between atoms: S_22  and  N_25
REMARK    6  A    between atoms: N_25  and  C_26
REMARK                            x       y       z     vdW  Elec       q    Type
REMARK                         _______ _______ _______ _____ _____    ______ ____
ROOT
ATOM      1  C   UNL     1       6.295  -3.150  26.297  0.00  0.00    +0.027 A 
ATOM      2  C   UNL     1       4.972  -2.867  25.954  0.00  0.00    +0.025 A 
ATOM      3  C   UNL     1       4.117  -3.883  25.514  0.00  0.00    +0.030 A 
ATOM      4  C   UNL     1       4.574  -5.200  25.429  0.00  0.00    +0.109 A 
ATOM      5  C   UNL     1       5.873  -5.515  25.819  0.00  0.00    +0.030 A 
ATOM      6  C   UNL     1       6.712  -4.494  26.282  0.00  0.00    +0.025 A 
ENDROOT
BRANCH   4   7
ATOM      7  S   UNL     1       3.554  -6.425  24.625  0.00  0.00    +0.073 S 
ATOM      8  O   UNL     1       2.174  -6.061  24.866  0.00  0.00    -0.150 OA
ATOM      9  O   UNL     1       4.047  -7.729  25.017  0.00  0.00    -0.150 OA
BRANCH   7  10
ATOM     10  N   UNL     1       3.803  -6.241  22.998  0.00  0.00    -0.199 N 
ATOM     11  H   UNL     1       3.049  -6.450  22.354  0.00  0.00    +0.175 HD
BRANCH  10  12
ATOM     12  C   UNL     1       4.948  -5.578  22.558  0.00  0.00    +0.138 A 
ATOM     13  N   UNL     1       4.771  -4.279  22.270  0.00  0.00    -0.239 NA
ATOM     14  C   UNL     1       5.869  -3.603  21.866  0.00  0.00    +0.113 A 
ATOM     15  C   UNL     1       7.120  -4.184  21.712  0.00  0.00    +0.020 A 
ATOM     16  C   UNL     1       7.251  -5.543  21.976  0.00  0.00    +0.005 A 
ATOM     17  C   UNL     1       6.141  -6.262  22.406  0.00  0.00    +0.045 A 
ENDBRANCH  10  12
ENDBRANCH   7  10
ENDBRANCH   4   7
BRANCH   1  18
ATOM     18  N   UNL     1       7.247  -2.192  26.670  0.00  0.00    -0.340 N 
ATOM     19  H   UNL     1       6.886  -1.290  26.348  0.00  0.00    +0.146 HD
BRANCH  18  20
ATOM     20  C   UNL     1       8.642  -2.310  26.270  0.00  0.00    +0.143 C 
BRANCH  20  23
ATOM     21  O   UNL     1       9.838  -4.034  24.533  0.00  0.00    -0.268 OA
ATOM     22  C   UNL     1       9.669  -2.910  24.115  0.00  0.00    +0.266 C 
ATOM     23  C   UNL     1       9.016  -1.811  24.911  0.00  0.00    +0.043 C 
ATOM     24  C   UNL     1       8.987  -0.748  24.099  0.00  0.00    +0.024 A 
ATOM     25  C   UNL     1       9.632  -1.228  22.852  0.00  0.00    +0.066 A 
ATOM     26  C   UNL     1       9.798  -0.304  21.706  0.00  0.00    +0.028 A 
ATOM     27  C   UNL     1       9.364   0.962  21.819  0.00  0.00    +0.031 A 
ATOM     28  C   UNL     1       8.735   1.435  23.008  0.00  0.00    +0.079 A 
ATOM     29  N   UNL     1       8.300   2.725  23.092  0.00  0.00    -0.247 NA
ATOM     30  C   UNL     1       7.751   2.884  24.276  0.00  0.00    +0.157 A 
ATOM     31  S   UNL     1       7.706   1.488  25.281  0.00  0.00    -0.075 S 
ATOM     32  C   UNL     1       8.547   0.594  24.102  0.00  0.00    +0.048 A 
ATOM     33  N   UNL     1      10.012  -2.454  22.873  0.00  0.00    -0.176 NA
ENDBRANCH  20  23
ENDBRANCH  18  20
ENDBRANCH   1  18
TORSDOF 6
ENDMDL
MODEL 2
REMARK VINA RESULT:      -7.7      2.948      8.177
REMARK  Name = 
REMARK  6 active torsions:
REMARK  status: ('A' for Active; 'I' for Inactive)
REMARK    1  A    between atoms: C_13  and  C_14
REMARK    2  A    between atoms: C_14  and  N_15
REMARK    3  A    between atoms: N_15  and  C_16
REMARK    4  A    between atoms: C_19  and  S_22
REMARK    5  A    between atoms: S_22  and  N_25
REMARK    6  A    between atoms: N_25  and  C_26
REMARK                            x       y       z     vdW  Elec       q    Type
REMARK                         _______ _______ _______ _____ _____    ______ ____
ROOT
ATOM      1  C   UNL     1       8.954  -1.834  23.607  0.00  0.00    +0.027 A 
ATOM      2  C   UNL     1       9.151  -1.151  22.405  0.00  0.00    +0.025 A 
ATOM      3  C   UNL     1       9.444   0.217  22.404  0.00  0.00    +0.030 A 
ATOM      4  C   UNL     1       9.560   0.914  23.609  0.00  0.00    +0.109 A 
ATOM      5  C   UNL     1       9.424   0.240  24.820  0.00  0.00    +0.030 A 
ATOM      6  C   UNL     1       9.156  -1.133  24.810  0.00  0.00    +0.025 A 
ENDROOT
BRANCH   4   7
ATOM      7  S   UNL     1       9.676   2.695  23.577  0.00  0.00    +0.073 S 
ATOM      8  O   UNL     1      11.059   3.032  23.314  0.00  0.00    -0.150 OA
ATOM      9  O   UNL     1       9.013   3.197  24.762  0.00  0.00    -0.150 OA
BRANCH   7  10
ATOM     10  N   UNL     1       8.819   3.193  22.250  0.00  0.00    -0.199 N 
ATOM     11  H   UNL     1       9.169   2.981  21.324  0.00  0.00    +0.175 HD
BRANCH  10  12
ATOM     12  C   UNL     1       7.521   3.674  22.423  0.00  0.00    +0.138 A 
ATOM     13  N   UNL     1       6.572   2.727  22.488  0.00  0.00    -0.239 NA
ATOM     14  C   UNL     1       5.308   3.162  22.682  0.00  0.00    +0.113 A 
ATOM     15  C   UNL     1       4.959   4.501  22.781  0.00  0.00    +0.020 A 
ATOM     16  C   UNL     1       5.965   5.454  22.662  0.00  0.00    +0.005 A 
ATOM     17  C   UNL     1       7.278   5.035  22.475  0.00  0.00    +0.045 A 
ENDBRANCH  10  12
ENDBRANCH   7  10
ENDBRANCH   4   7
BRANCH   1  18
ATOM     18  N   UNL     1       8.580  -3.180  23.708  0.00  0.00    -0.340 N 
ATOM     19  H   UNL     1       9.447  -3.710  23.831  0.00  0.00    +0.146 HD
BRANCH  18  20
ATOM     20  C   UNL     1       7.777  -3.826  22.679  0.00  0.00    +0.143 C 
BRANCH  20  23
ATOM     21  O   UNL     1       5.906  -4.569  20.843  0.00  0.00    -0.268 OA
ATOM     22  C   UNL     1       5.715  -4.968  21.971  0.00  0.00    +0.266 C 
ATOM     23  C   UNL     1       6.635  -4.680  23.128  0.00  0.00    +0.043 C 
ATOM     24  C   UNL     1       6.101  -5.314  24.178  0.00  0.00    +0.024 A 
ATOM     25  C   UNL     1       4.875  -5.948  23.632  0.00  0.00    +0.066 A 
ATOM     26  C   UNL     1       3.996  -6.740  24.524  0.00  0.00    +0.028 A 
ATOM     27  C   UNL     1       4.323  -6.865  25.820  0.00  0.00    +0.031 A 
ATOM     28  C   UNL     1       5.501  -6.267  26.357  0.00  0.00    +0.079 A 
ATOM     29  N   UNL     1       5.809  -6.416  27.678  0.00  0.00    -0.247 NA
ATOM     30  C   UNL     1       6.942  -5.785  27.895  0.00  0.00    +0.157 A 
ATOM     31  S   UNL     1       7.674  -5.051  26.522  0.00  0.00    -0.075 S 
ATOM     32  C   UNL     1       6.361  -5.528  25.549  0.00  0.00    +0.048 A 
ATOM     33  N   UNL     1       4.669  -5.746  22.381  0.00  0.00    -0.176 NA
ENDBRANCH  20  23
ENDBRANCH  18  20
ENDBRANCH   1  18
TORSDOF 6
ENDMDL
MODEL 3
REMARK VINA RESULT:      -7.6      3.169      8.711
REMARK  Name = 
REMARK  6 active torsions:
REMARK  status: ('A' for Active; 'I' for Inactive)
REMARK    1  A    between atoms: C_13  and  C_14
REMARK    2  A    between atoms: C_14  and  N_15
REMARK    3  A    between atoms: N_15  and  C_16
REMARK    4  A    between atoms: C_19  and  S_22
REMARK    5  A    between atoms: S_22  and  N_25
REMARK    6  A    between atoms: N_25  and  C_26
REMARK                            x       y       z     vdW  Elec       q    Type
REMARK                         _______ _______ _______ _____ _____    ______ ____
ROOT
ATOM      1  C   UNL     1       7.860  -1.973  22.369  0.00  0.00    +0.027 A 
ATOM      2  C   UNL     1       7.126  -1.191  23.263  0.00  0.00    +0.025 A 
ATOM      3  C   UNL     1       7.658  -0.001  23.772  0.00  0.00    +0.030 A 
ATOM      4  C   UNL     1       8.928   0.428  23.378  0.00  0.00    +0.109 A 
ATOM      5  C   UNL     1       9.654  -0.308  22.444  0.00  0.00    +0.030 A 
ATOM      6  C   UNL     1       9.100  -1.482  21.922  0.00  0.00    +0.025 A 
ENDROOT
BRANCH   4   7
ATOM      7  S   UNL     1       9.687   1.800  24.231  0.00  0.00    +0.073 S 
ATOM      8  O   UNL     1      10.978   1.350  24.706  0.00  0.00    -0.150 OA
ATOM      9  O   UNL     1       8.710   2.332  25.158  0.00  0.00    -0.150 OA
BRANCH   7  10
ATOM     10  N   UNL     1       9.993   2.951  23.080  0.00  0.00    -0.199 N 
ATOM     11  H   UNL     1       9.532   2.888  22.180  0.00  0.00    +0.175 HD
BRANCH  10  12
ATOM     12  C   UNL     1      10.680   4.108  23.444  0.00  0.00    +0.138 A 
ATOM     13  N   UNL     1      12.003   4.074  23.219  0.00  0.00    -0.239 NA
ATOM     14  C   UNL     1      12.691   5.192  23.538  0.00  0.00    +0.113 A 
ATOM     15  C   UNL     1      12.112   6.321  24.099  0.00  0.00    +0.020 A 
ATOM     16  C   UNL     1      10.747   6.299  24.361  0.00  0.00    +0.005 A 
ATOM     17  C   UNL     1      10.009   5.167  24.031  0.00  0.00    +0.045 A 
ENDBRANCH  10  12
ENDBRANCH   7  10
ENDBRANCH   4   7
BRANCH   1  18
ATOM     18  N   UNL     1       7.447  -3.214  21.868  0.00  0.00    -0.340 N 
ATOM     19  H   UNL     1       6.446  -3.125  21.674  0.00  0.00    +0.146 HD
BRANCH  18  20
ATOM     20  C   UNL     1       7.674  -4.447  22.609  0.00  0.00    +0.143 C 
BRANCH  20  23
ATOM     21  O   UNL     1       5.738  -5.209  20.850  0.00  0.00    -0.268 OA
ATOM     22  C   UNL     1       5.526  -5.489  22.010  0.00  0.00    +0.266 C 
ATOM     23  C   UNL     1       6.474  -5.168  23.134  0.00  0.00    +0.043 C 
ATOM     24  C   UNL     1       5.903  -5.663  24.239  0.00  0.00    +0.024 A 
ATOM     25  C   UNL     1       4.629  -6.250  23.754  0.00  0.00    +0.066 A 
ATOM     26  C   UNL     1       3.700  -6.890  24.715  0.00  0.00    +0.028 A 
ATOM     27  C   UNL     1       4.027  -6.922  26.016  0.00  0.00    +0.031 A 
ATOM     28  C   UNL     1       5.251  -6.369  26.496  0.00  0.00    +0.079 A 
ATOM     29  N   UNL     1       5.558  -6.421  27.824  0.00  0.00    -0.247 NA
ATOM     30  C   UNL     1       6.736  -5.860  27.982  0.00  0.00    +0.157 A 
ATOM     31  S   UNL     1       7.510  -5.310  26.547  0.00  0.00    -0.075 S 
ATOM     32  C   UNL     1       6.157  -5.772  25.623  0.00  0.00    +0.048 A 
ATOM     33  N   UNL     1       4.429  -6.147  22.489  0.00  0.00    -0.176 NA
ENDBRANCH  20  23
ENDBRANCH  18  20
ENDBRANCH   1  18
TORSDOF 6
ENDMDL
MODEL 4
REMARK VINA RESULT:      -7.6      2.725      8.267
REMARK  Name = 
REMARK  6 active torsions:
REMARK  status: ('A' for Active; 'I' for Inactive)
REMARK    1  A    between atoms: C_13  and  C_14
REMARK    2  A    between atoms: C_14  and  N_15
REMARK    3  A    between atoms: N_15  and  C_16
REMARK    4  A    between atoms: C_19  and  S_22
REMARK    5  A    between atoms: S_22  and  N_25
REMARK    6  A    between atoms: N_25  and  C_26
REMARK                            x       y       z     vdW  Elec       q    Type
REMARK                         _______ _______ _______ _____ _____    ______ ____
ROOT
ATOM      1  C   UNL     1       7.742  -2.123  22.596  0.00  0.00    +0.027 A 
ATOM      2  C   UNL     1       7.279  -1.184  23.519  0.00  0.00    +0.025 A 
ATOM      3  C   UNL     1       7.982   0.006  23.740  0.00  0.00    +0.030 A 
ATOM      4  C   UNL     1       9.150   0.276  23.024  0.00  0.00    +0.109 A 
ATOM      5  C   UNL     1       9.600  -0.621  22.057  0.00  0.00    +0.030 A 
ATOM      6  C   UNL     1       8.874  -1.795  21.828  0.00  0.00    +0.025 A 
ENDROOT
BRANCH   4   7
ATOM      7  S   UNL     1      10.163   1.665  23.503  0.00  0.00    +0.073 S 
ATOM      8  O   UNL     1      10.532   2.367  22.292  0.00  0.00    -0.150 OA
ATOM      9  O   UNL     1      11.184   1.172  24.403  0.00  0.00    -0.150 OA
BRANCH   7  10
ATOM     10  N   UNL     1       9.175   2.691  24.349  0.00  0.00    -0.199 N 
ATOM     11  H   UNL     1       9.025   2.532  25.337  0.00  0.00    +0.175 HD
BRANCH  10  12
ATOM     12  C   UNL     1       8.766   3.883  23.752  0.00  0.00    +0.138 A 
ATOM     13  N   UNL     1       7.741   3.763  22.894  0.00  0.00    -0.239 NA
ATOM     14  C   UNL     1       7.306   4.906  22.321  0.00  0.00    +0.113 A 
ATOM     15  C   UNL     1       7.876   6.150  22.550  0.00  0.00    +0.020 A 
ATOM     16  C   UNL     1       8.967   6.226  23.410  0.00  0.00    +0.005 A 
ATOM     17  C   UNL     1       9.429   5.067  24.025  0.00  0.00    +0.045 A 
ENDBRANCH  10  12
ENDBRANCH   7  10
ENDBRANCH   4   7
BRANCH   1  18
ATOM     18  N   UNL     1       7.154  -3.373  22.363  0.00  0.00    -0.340 N 
ATOM     19  H   UNL     1       6.185  -3.298  22.687  0.00  0.00    +0.146 HD
BRANCH  18  20
ATOM     20  C   UNL     1       7.733  -4.597  22.899  0.00  0.00    +0.143 C 
BRANCH  20  23
ATOM     21  O   UNL     1       9.746  -3.890  24.592  0.00  0.00    -0.268 OA
ATOM     22  C   UNL     1       8.784  -4.408  25.116  0.00  0.00    +0.266 C 
ATOM     23  C   UNL     1       7.563  -4.861  24.360  0.00  0.00    +0.043 C 
ATOM     24  C   UNL     1       6.726  -5.344  25.286  0.00  0.00    +0.024 A 
ATOM     25  C   UNL     1       7.467  -5.184  26.562  0.00  0.00    +0.066 A 
ATOM     26  C   UNL     1       6.850  -5.632  27.833  0.00  0.00    +0.028 A 
ATOM     27  C   UNL     1       5.627  -6.184  27.805  0.00  0.00    +0.031 A 
ATOM     28  C   UNL     1       4.900  -6.338  26.588  0.00  0.00    +0.079 A 
ATOM     29  N   UNL     1       3.656  -6.898  26.593  0.00  0.00    -0.247 NA
ATOM     30  C   UNL     1       3.215  -6.900  25.355  0.00  0.00    +0.157 A 
ATOM     31  S   UNL     1       4.256  -6.192  24.182  0.00  0.00    -0.075 S 
ATOM     32  C   UNL     1       5.437  -5.915  25.375  0.00  0.00    +0.048 A 
ATOM     33  N   UNL     1       8.630  -4.651  26.452  0.00  0.00    -0.176 NA
ENDBRANCH  20  23
ENDBRANCH  18  20
ENDBRANCH   1  18
TORSDOF 6
ENDMDL
MODEL 5
REMARK VINA RESULT:      -7.5      2.732      6.935
REMARK  Name = 
REMARK  6 active torsions:
REMARK  status: ('A' for Active; 'I' for Inactive)
REMARK    1  A    between atoms: C_13  and  C_14
REMARK    2  A    between atoms: C_14  and  N_15
REMARK    3  A    between atoms: N_15  and  C_16
REMARK    4  A    between atoms: C_19  and  S_22
REMARK    5  A    between atoms: S_22  and  N_25
REMARK    6  A    between atoms: N_25  and  C_26
REMARK                            x       y       z     vdW  Elec       q    Type
REMARK                         _______ _______ _______ _____ _____    ______ ____
ROOT
ATOM      1  C   UNL     1       6.530  -0.227  25.672  0.00  0.00    +0.027 A 
ATOM      2  C   UNL     1       7.453   0.658  26.232  0.00  0.00    +0.025 A 
ATOM      3  C   UNL     1       7.900   1.772  25.512  0.00  0.00    +0.030 A 
ATOM      4  C   UNL     1       7.413   2.021  24.227  0.00  0.00    +0.109 A 
ATOM      5  C   UNL     1       6.449   1.182  23.671  0.00  0.00    +0.030 A 
ATOM      6  C   UNL     1       5.992   0.086  24.411  0.00  0.00    +0.025 A 
ENDROOT
BRANCH   4   7
ATOM      7  S   UNL     1       8.183   3.289  23.235  0.00  0.00    +0.073 S 
ATOM      8  O   UNL     1       8.510   4.387  24.119  0.00  0.00    -0.150 OA
ATOM      9  O   UNL     1       7.343   3.508  22.076  0.00  0.00    -0.150 OA
BRANCH   7  10
ATOM     10  N   UNL     1       9.627   2.663  22.720  0.00  0.00    -0.199 N 
ATOM     11  H   UNL     1      10.448   3.256  22.705  0.00  0.00    +0.175 HD
BRANCH  10  12
ATOM     12  C   UNL     1       9.747   1.284  22.552  0.00  0.00    +0.138 A 
ATOM     13  N   UNL     1      10.453   0.658  23.507  0.00  0.00    -0.239 NA
ATOM     14  C   UNL     1      10.563  -0.683  23.384  0.00  0.00    +0.113 A 
ATOM     15  C   UNL     1      10.023  -1.409  22.332  0.00  0.00    +0.020 A 
ATOM     16  C   UNL     1       9.338  -0.718  21.339  0.00  0.00    +0.005 A 
ATOM     17  C   UNL     1       9.197   0.662  21.445  0.00  0.00    +0.045 A 
ENDBRANCH  10  12
ENDBRANCH   7  10
ENDBRANCH   4   7
BRANCH   1  18
ATOM     18  N   UNL     1       6.085  -1.408  26.280  0.00  0.00    -0.340 N 
ATOM     19  H   UNL     1       5.736  -1.140  27.205  0.00  0.00    +0.146 HD
BRANCH  18  20
ATOM     20  C   UNL     1       6.959  -2.564  26.427  0.00  0.00    +0.143 C 
BRANCH  20  23
ATOM     21  O   UNL     1       9.453  -3.205  25.539  0.00  0.00    -0.268 OA
ATOM     22  C   UNL     1       8.537  -3.704  24.922  0.00  0.00    +0.266 C 
ATOM     23  C   UNL     1       7.086  -3.487  25.258  0.00  0.00    +0.043 C 
ATOM     24  C   UNL     1       6.399  -4.224  24.378  0.00  0.00    +0.024 A 
ATOM     25  C   UNL     1       7.448  -4.848  23.533  0.00  0.00    +0.066 A 
ATOM     26  C   UNL     1       7.059  -5.739  22.414  0.00  0.00    +0.028 A 
ATOM     27  C   UNL     1       5.756  -5.963  22.182  0.00  0.00    +0.031 A 
ATOM     28  C   UNL     1       4.738  -5.377  22.989  0.00  0.00    +0.079 A 
ATOM     29  N   UNL     1       3.422  -5.628  22.731  0.00  0.00    -0.247 NA
ATOM     30  C   UNL     1       2.710  -4.984  23.628  0.00  0.00    +0.157 A 
ATOM     31  S   UNL     1       3.600  -4.113  24.816  0.00  0.00    -0.075 S 
ATOM     32  C   UNL     1       5.062  -4.546  24.058  0.00  0.00    +0.048 A 
ATOM     33  N   UNL     1       8.654  -4.547  23.852  0.00  0.00    -0.176 NA
ENDBRANCH  20  23
ENDBRANCH  18  20
ENDBRANCH   1  18
TORSDOF 6
ENDMDL
MODEL 6
REMARK VINA RESULT:      -7.4      3.164      6.371
REMARK  Name = 
REMARK  6 active torsions:
REMARK  status: ('A' for Active; 'I' for Inactive)
REMARK    1  A    between atoms: C_13  and  C_14
REMARK    2  A    between atoms: C_14  and  N_15
REMARK    3  A    between atoms: N_15  and  C_16
REMARK    4  A    between atoms: C_19  and  S_22
REMARK    5  A    between atoms: S_22  and  N_25
REMARK    6  A    between atoms: N_25  and  C_26
REMARK                            x       y       z     vdW  Elec       q    Type
REMARK                         _______ _______ _______ _____ _____    ______ ____
ROOT
ATOM      1  C   UNL     1      10.122   2.297  23.187  0.00  0.00    +0.027 A 
ATOM      2  C   UNL     1      10.686   1.547  24.221  0.00  0.00    +0.025 A 
ATOM      3  C   UNL     1      10.498   0.162  24.281  0.00  0.00    +0.030 A 
ATOM      4  C   UNL     1       9.755  -0.491  23.295  0.00  0.00    +0.109 A 
ATOM      5  C   UNL     1       9.230   0.229  22.224  0.00  0.00    +0.030 A 
ATOM      6  C   UNL     1       9.446   1.610  22.162  0.00  0.00    +0.025 A 
ENDROOT
BRANCH   4   7
ATOM      7  S   UNL     1       9.313  -2.204  23.531  0.00  0.00    +0.073 S 
ATOM      8  O   UNL     1       8.519  -2.282  24.738  0.00  0.00    -0.150 OA
ATOM      9  O   UNL     1      10.522  -2.990  23.398  0.00  0.00    -0.150 OA
BRANCH   7  10
ATOM     10  N   UNL     1       8.297  -2.598  22.283  0.00  0.00    -0.199 N 
ATOM     11  H   UNL     1       8.569  -2.376  21.333  0.00  0.00    +0.175 HD
BRANCH  10  12
ATOM     12  C   UNL     1       7.211  -3.436  22.532  0.00  0.00    +0.138 A 
ATOM     13  N   UNL     1       7.511  -4.742  22.603  0.00  0.00    -0.239 NA
ATOM     14  C   UNL     1       6.482  -5.577  22.869  0.00  0.00    +0.113 A 
ATOM     15  C   UNL     1       5.170  -5.157  23.035  0.00  0.00    +0.020 A 
ATOM     16  C   UNL     1       4.893  -3.800  22.908  0.00  0.00    +0.005 A 
ATOM     17  C   UNL     1       5.934  -2.915  22.647  0.00  0.00    +0.045 A 
ENDBRANCH  10  12
ENDBRANCH   7  10
ENDBRANCH   4   7
BRANCH   1  18
ATOM     18  N   UNL     1      10.187   3.692  23.084  0.00  0.00    -0.340 N 
ATOM     19  H   UNL     1      11.166   3.946  23.242  0.00  0.00    +0.146 HD
BRANCH  18  20
ATOM     20  C   UNL     1       9.342   4.555  23.899  0.00  0.00    +0.143 C 
BRANCH  20  23
ATOM     21  O   UNL     1       8.271   6.524  22.351  0.00  0.00    -0.268 OA
ATOM     22  C   UNL     1       7.482   5.706  22.772  0.00  0.00    +0.266 C 
ATOM     23  C   UNL     1       7.872   4.535  23.633  0.00  0.00    +0.043 C 
ATOM     24  C   UNL     1       6.738   3.860  23.856  0.00  0.00    +0.024 A 
ATOM     25  C   UNL     1       5.702   4.647  23.141  0.00  0.00    +0.066 A 
ATOM     26  C   UNL     1       4.288   4.207  23.176  0.00  0.00    +0.028 A 
ATOM     27  C   UNL     1       3.965   3.100  23.864  0.00  0.00    +0.031 A 
ATOM     28  C   UNL     1       4.950   2.330  24.550  0.00  0.00    +0.079 A 
ATOM     29  N   UNL     1       4.592   1.207  25.236  0.00  0.00    -0.247 NA
ATOM     30  C   UNL     1       5.685   0.689  25.751  0.00  0.00    +0.157 A 
ATOM     31  S   UNL     1       7.154   1.507  25.383  0.00  0.00    -0.075 S 
ATOM     32  C   UNL     1       6.292   2.701  24.529  0.00  0.00    +0.048 A 
ATOM     33  N   UNL     1       6.138   5.689  22.529  0.00  0.00    -0.176 NA
ENDBRANCH  20  23
ENDBRANCH  18  20
ENDBRANCH   1  18
TORSDOF 6
ENDMDL
MODEL 7
REMARK VINA RESULT:      -7.4      2.576      7.507
REMARK  Name = 
REMARK  6 active torsions:
REMARK  status: ('A' for Active; 'I' for Inactive)
REMARK    1  A    between atoms: C_13  and  C_14
REMARK    2  A    between atoms: C_14  and  N_15
REMARK    3  A    between atoms: N_15  and  C_16
REMARK    4  A    between atoms: C_19  and  S_22
REMARK    5  A    between atoms: S_22  and  N_25
REMARK    6  A    between atoms: N_25  and  C_26
REMARK                            x       y       z     vdW  Elec       q    Type
REMARK                         _______ _______ _______ _____ _____    ______ ____
ROOT
ATOM      1  C   UNL     1       8.305  -2.165  25.601  0.00  0.00    +0.027 A 
ATOM      2  C   UNL     1       7.144  -1.485  25.230  0.00  0.00    +0.025 A 
ATOM      3  C   UNL     1       7.155  -0.593  24.152  0.00  0.00    +0.030 A 
ATOM      4  C   UNL     1       8.327  -0.385  23.422  0.00  0.00    +0.109 A 
ATOM      5  C   UNL     1       9.482  -1.096  23.739  0.00  0.00    +0.030 A 
ATOM      6  C   UNL     1       9.453  -2.004  24.804  0.00  0.00    +0.025 A 
ENDROOT
BRANCH   4   7
ATOM      7  S   UNL     1       8.384   0.939  22.226  0.00  0.00    +0.073 S 
ATOM      8  O   UNL     1       7.037   1.447  22.081  0.00  0.00    -0.150 OA
ATOM      9  O   UNL     1       9.112   0.454  21.072  0.00  0.00    -0.150 OA
BRANCH   7  10
ATOM     10  N   UNL     1       9.265   2.156  22.923  0.00  0.00    -0.199 N 
ATOM     11  H   UNL     1      10.216   2.319  22.616  0.00  0.00    +0.175 HD
BRANCH  10  12
ATOM     12  C   UNL     1       8.614   3.084  23.735  0.00  0.00    +0.138 A 
ATOM     13  N   UNL     1       8.295   4.239  23.129  0.00  0.00    -0.239 NA
ATOM     14  C   UNL     1       7.640   5.147  23.885  0.00  0.00    +0.113 A 
ATOM     15  C   UNL     1       7.323   4.955  25.222  0.00  0.00    +0.020 A 
ATOM     16  C   UNL     1       7.713   3.764  25.826  0.00  0.00    +0.005 A 
ATOM     17  C   UNL     1       8.377   2.805  25.070  0.00  0.00    +0.045 A 
ENDBRANCH  10  12
ENDBRANCH   7  10
ENDBRANCH   4   7
BRANCH   1  18
ATOM     18  N   UNL     1       8.414  -3.014  26.710  0.00  0.00    -0.340 N 
ATOM     19  H   UNL     1       9.235  -2.698  27.233  0.00  0.00    +0.146 HD
BRANCH  18  20
ATOM     20  C   UNL     1       8.484  -4.461  26.557  0.00  0.00    +0.143 C 
BRANCH  20  23
ATOM     21  O   UNL     1       7.039  -5.647  28.538  0.00  0.00    -0.268 OA
ATOM     22  C   UNL     1       6.587  -5.769  27.420  0.00  0.00    +0.266 C 
ATOM     23  C   UNL     1       7.226  -5.179  26.191  0.00  0.00    +0.043 C 
ATOM     24  C   UNL     1       6.417  -5.503  25.175  0.00  0.00    +0.024 A 
ATOM     25  C   UNL     1       5.330  -6.286  25.814  0.00  0.00    +0.066 A 
ATOM     26  C   UNL     1       4.235  -6.839  24.984  0.00  0.00    +0.028 A 
ATOM     27  C   UNL     1       4.248  -6.625  23.658  0.00  0.00    +0.031 A 
ATOM     28  C   UNL     1       5.282  -5.869  23.032  0.00  0.00    +0.079 A 
ATOM     29  N   UNL     1       5.266  -5.664  21.683  0.00  0.00    -0.247 NA
ATOM     30  C   UNL     1       6.313  -4.929  21.379  0.00  0.00    +0.157 A 
ATOM     31  S   UNL     1       7.298  -4.436  22.700  0.00  0.00    -0.075 S 
ATOM     32  C   UNL     1       6.321  -5.320  23.778  0.00  0.00    +0.048 A 
ATOM     33  N   UNL     1       5.437  -6.428  27.086  0.00  0.00    -0.176 NA
ENDBRANCH  20  23
ENDBRANCH  18  20
ENDBRANCH   1  18
TORSDOF 6
ENDMDL
MODEL 8
REMARK VINA RESULT:      -7.4      2.699      4.353
REMARK  Name = 
REMARK  6 active torsions:
REMARK  status: ('A' for Active; 'I' for Inactive)
REMARK    1  A    between atoms: C_13  and  C_14
REMARK    2  A    between atoms: C_14  and  N_15
REMARK    3  A    between atoms: N_15  and  C_16
REMARK    4  A    between atoms: C_19  and  S_22
REMARK    5  A    between atoms: S_22  and  N_25
REMARK    6  A    between atoms: N_25  and  C_26
REMARK                            x       y       z     vdW  Elec       q    Type
REMARK                         _______ _______ _______ _____ _____    ______ ____
ROOT
ATOM      1  C   UNL     1       9.606  -0.403  25.252  0.00  0.00    +0.027 A 
ATOM      2  C   UNL     1       9.899  -1.311  24.232  0.00  0.00    +0.025 A 
ATOM      3  C   UNL     1       9.480  -2.643  24.322  0.00  0.00    +0.030 A 
ATOM      4  C   UNL     1       8.747  -3.077  25.428  0.00  0.00    +0.109 A 
ATOM      5  C   UNL     1       8.395  -2.176  26.430  0.00  0.00    +0.030 A 
ATOM      6  C   UNL     1       8.798  -0.840  26.317  0.00  0.00    +0.025 A 
ENDROOT
BRANCH   4   7
ATOM      7  S   UNL     1       8.450  -4.824  25.644  0.00  0.00    +0.073 S 
ATOM      8  O   UNL     1       8.425  -5.083  27.068  0.00  0.00    -0.150 OA
ATOM      9  O   UNL     1       9.376  -5.534  24.786  0.00  0.00    -0.150 OA
BRANCH   7  10
ATOM     10  N   UNL     1       6.912  -5.105  25.096  0.00  0.00    -0.199 N 
ATOM     11  H   UNL     1       6.193  -5.377  25.754  0.00  0.00    +0.175 HD
BRANCH  10  12
ATOM     12  C   UNL     1       6.577  -4.730  23.795  0.00  0.00    +0.138 A 
ATOM     13  N   UNL     1       5.923  -3.562  23.696  0.00  0.00    -0.239 NA
ATOM     14  C   UNL     1       5.609  -3.160  22.444  0.00  0.00    +0.113 A 
ATOM     15  C   UNL     1       5.895  -3.894  21.302  0.00  0.00    +0.020 A 
ATOM     16  C   UNL     1       6.533  -5.121  21.452  0.00  0.00    +0.005 A 
ATOM     17  C   UNL     1       6.881  -5.555  22.726  0.00  0.00    +0.045 A 
ENDBRANCH  10  12
ENDBRANCH   7  10
ENDBRANCH   4   7
BRANCH   1  18
ATOM     18  N   UNL     1      10.048   0.925  25.290  0.00  0.00    -0.340 N 
ATOM     19  H   UNL     1       9.460   1.403  25.980  0.00  0.00    +0.146 HD
BRANCH  18  20
ATOM     20  C   UNL     1      10.114   1.741  24.086  0.00  0.00    +0.143 C 
BRANCH  20  23
ATOM     21  O   UNL     1       9.626   1.020  21.504  0.00  0.00    -0.268 OA
ATOM     22  C   UNL     1       8.752   1.669  22.037  0.00  0.00    +0.266 C 
ATOM     23  C   UNL     1       8.820   2.155  23.460  0.00  0.00    +0.043 C 
ATOM     24  C   UNL     1       7.666   2.795  23.677  0.00  0.00    +0.024 A 
ATOM     25  C   UNL     1       6.946   2.690  22.384  0.00  0.00    +0.066 A 
ATOM     26  C   UNL     1       5.607   3.309  22.233  0.00  0.00    +0.028 A 
ATOM     27  C   UNL     1       5.070   3.962  23.276  0.00  0.00    +0.031 A 
ATOM     28  C   UNL     1       5.747   4.065  24.527  0.00  0.00    +0.079 A 
ATOM     29  N   UNL     1       5.172   4.731  25.569  0.00  0.00    -0.247 NA
ATOM     30  C   UNL     1       5.994   4.656  26.592  0.00  0.00    +0.157 A 
ATOM     31  S   UNL     1       7.436   3.752  26.336  0.00  0.00    -0.075 S 
ATOM     32  C   UNL     1       6.998   3.485  24.713  0.00  0.00    +0.048 A 
ATOM     33  N   UNL     1       7.571   2.049  21.464  0.00  0.00    -0.176 NA
ENDBRANCH  20  23
ENDBRANCH  18  20
ENDBRANCH   1  18
TORSDOF 6
ENDMDL
MODEL 9
REMARK VINA RESULT:      -7.4      2.710      8.054
REMARK  Name = 
REMARK  6 active torsions:
REMARK  status: ('A' for Active; 'I' for Inactive)
REMARK    1  A    between atoms: C_13  and  C_14
REMARK    2  A    between atoms: C_14  and  N_15
REMARK    3  A    between atoms: N_15  and  C_16
REMARK    4  A    between atoms: C_19  and  S_22
REMARK    5  A    between atoms: S_22  and  N_25
REMARK    6  A    between atoms: N_25  and  C_26
REMARK                            x       y       z     vdW  Elec       q    Type
REMARK                         _______ _______ _______ _____ _____    ______ ____
ROOT
ATOM      1  C   UNL     1       8.580  -2.095  23.273  0.00  0.00    +0.027 A 
ATOM      2  C   UNL     1       9.046  -1.376  22.171  0.00  0.00    +0.025 A 
ATOM      3  C   UNL     1       9.433  -0.038  22.305  0.00  0.00    +0.030 A 
ATOM      4  C   UNL     1       9.372   0.591  23.550  0.00  0.00    +0.109 A 
ATOM      5  C   UNL     1       8.964  -0.124  24.674  0.00  0.00    +0.030 A 
ATOM      6  C   UNL     1       8.603  -1.468  24.533  0.00  0.00    +0.025 A 
ENDROOT
BRANCH   4   7
ATOM      7  S   UNL     1       9.621   2.356  23.647  0.00  0.00    +0.073 S 
ATOM      8  O   UNL     1      11.035   2.602  23.462  0.00  0.00    -0.150 OA
ATOM      9  O   UNL     1       8.945   2.828  24.837  0.00  0.00    -0.150 OA
BRANCH   7  10
ATOM     10  N   UNL     1       8.861   3.005  22.325  0.00  0.00    -0.199 N 
ATOM     11  H   UNL     1       9.279   2.895  21.410  0.00  0.00    +0.175 HD
BRANCH  10  12
ATOM     12  C   UNL     1       7.554   3.473  22.457  0.00  0.00    +0.138 A 
ATOM     13  N   UNL     1       7.445   4.801  22.621  0.00  0.00    -0.239 NA
ATOM     14  C   UNL     1       6.188   5.287  22.725  0.00  0.00    +0.113 A 
ATOM     15  C   UNL     1       5.049   4.494  22.702  0.00  0.00    +0.020 A 
ATOM     16  C   UNL     1       5.208   3.118  22.577  0.00  0.00    +0.005 A 
ATOM     17  C   UNL     1       6.489   2.590  22.455  0.00  0.00    +0.045 A 
ENDBRANCH  10  12
ENDBRANCH   7  10
ENDBRANCH   4   7
BRANCH   1  18
ATOM     18  N   UNL     1       8.096  -3.409  23.224  0.00  0.00    -0.340 N 
ATOM     19  H   UNL     1       7.080  -3.344  23.332  0.00  0.00    +0.146 HD
BRANCH  18  20
ATOM     20  C   UNL     1       8.598  -4.438  24.125  0.00  0.00    +0.143 C 
BRANCH  20  23
ATOM     21  O   UNL     1       9.435  -4.654  26.708  0.00  0.00    -0.268 OA
ATOM     22  C   UNL     1       8.306  -5.036  26.494  0.00  0.00    +0.266 C 
ATOM     23  C   UNL     1       7.650  -4.991  25.140  0.00  0.00    +0.043 C 
ATOM     24  C   UNL     1       6.412  -5.464  25.323  0.00  0.00    +0.024 A 
ATOM     25  C   UNL     1       6.362  -5.792  26.770  0.00  0.00    +0.066 A 
ATOM     26  C   UNL     1       5.126  -6.366  27.353  0.00  0.00    +0.028 A 
ATOM     27  C   UNL     1       4.070  -6.587  26.555  0.00  0.00    +0.031 A 
ATOM     28  C   UNL     1       4.101  -6.270  25.165  0.00  0.00    +0.079 A 
ATOM     29  N   UNL     1       3.009  -6.501  24.380  0.00  0.00    -0.247 NA
ATOM     30  C   UNL     1       3.303  -6.105  23.162  0.00  0.00    +0.157 A 
ATOM     31  S   UNL     1       4.863  -5.411  22.949  0.00  0.00    -0.075 S 
ATOM     32  C   UNL     1       5.236  -5.715  24.582  0.00  0.00    +0.048 A 
ATOM     33  N   UNL     1       7.440  -5.543  27.422  0.00  0.00    -0.176 NA
ENDBRANCH  20  23
ENDBRANCH  18  20
ENDBRANCH   1  18
TORSDOF 6
ENDMDL
