MODEL 1
REMARK VINA RESULT:      -6.3      0.000      0.000
REMARK  Name = 
REMARK  13 active torsions:
REMARK  status: ('A' for Active; 'I' for Inactive)
REMARK    1  A    between atoms: C_1  and  C_2
REMARK    2  A    between atoms: C_2  and  C_3
REMARK    3  A    between atoms: C_2  and  N_4
REMARK    4  A    between atoms: N_4  and  C_5
REMARK    5  A    between atoms: N_4  and  C_6
REMARK    6  A    between atoms: N_4  and  C_24
REMARK    7  A    between atoms: C_6  and  C_7
REMARK    8  A    between atoms: C_7  and  C_8
REMARK    9  A    between atoms: C_8  and  C_9
REMARK   10  A    between atoms: C_8  and  C_12
REMARK   11  A    between atoms: C_8  and  C_18
REMARK   12  A    between atoms: C_24  and  C_25
REMARK   13  A    between atoms: C_24  and  C_26
REMARK                            x       y       z     vdW  Elec       q    Type
REMARK                         _______ _______ _______ _____ _____    ______ ____
ROOT
ATOM      1  C   UNL     1       8.174  -3.773  24.891  0.00  0.00    +0.101 C 
ENDROOT
BRANCH   1   2
ATOM      2  C   UNL     1       8.824  -2.366  24.669  0.00  0.00    -0.028 A 
ATOM      3  C   UNL     1       8.572  -1.315  25.576  0.00  0.00    +0.005 A 
ATOM      4  C   UNL     1       9.167  -0.058  25.422  0.00  0.00    +0.000 A 
ATOM      5  C   UNL     1      10.008   0.194  24.344  0.00  0.00    +0.000 A 
ATOM      6  C   UNL     1      10.255  -0.808  23.419  0.00  0.00    +0.000 A 
ATOM      7  C   UNL     1       9.670  -2.068  23.580  0.00  0.00    +0.005 A 
ENDBRANCH   1   2
BRANCH   1   8
ATOM      8  C   UNL     1       7.486  -4.230  23.571  0.00  0.00    -0.028 A 
ATOM      9  C   UNL     1       7.581  -5.558  23.102  0.00  0.00    +0.005 A 
ATOM     10  C   UNL     1       6.952  -5.969  21.922  0.00  0.00    +0.000 A 
ATOM     11  C   UNL     1       6.247  -5.049  21.154  0.00  0.00    +0.000 A 
ATOM     12  C   UNL     1       6.196  -3.719  21.551  0.00  0.00    +0.000 A 
ATOM     13  C   UNL     1       6.823  -3.309  22.737  0.00  0.00    +0.005 A 
ENDBRANCH   1   8
BRANCH   1  14
ATOM     14  C   UNL     1       9.259  -4.774  25.424  0.00  0.00    +0.226 C 
ATOM     15  O   UNL     1      10.323  -4.994  24.844  0.00  0.00    -0.275 OA
ATOM     16  N   UNL     1       9.127  -5.274  26.697  0.00  0.00    -0.328 N 
ATOM     17  H   UNL     1       9.822  -5.976  26.936  0.00  0.00    +0.145 HD
ATOM     18  H   UNL     1       8.221  -5.413  27.126  0.00  0.00    +0.145 HD
ENDBRANCH   1  14
BRANCH   1  19
ATOM     19  C   UNL     1       7.159  -3.689  26.103  0.00  0.00    +0.076 C 
BRANCH  19  20
ATOM     20  C   UNL     1       5.667  -3.638  25.766  0.00  0.00    +0.135 C 
BRANCH  20  21
ATOM     21  N   UNL     1       4.820  -4.880  26.334  0.00  0.00    +0.245 N 
ATOM     22  C   UNL     1       5.805  -5.961  26.808  0.00  0.00    +0.193 C 
BRANCH  21  24
ATOM     23  C   UNL     1       3.587  -4.508  24.023  0.00  0.00    +0.063 C 
ATOM     24  C   UNL     1       3.932  -5.484  25.155  0.00  0.00    +0.060 C 
ATOM     25  C   UNL     1       4.478  -6.815  24.640  0.00  0.00    +0.063 C 
ENDBRANCH  21  24
BRANCH  21  26
ATOM     26  C   UNL     1       3.976  -4.293  27.564  0.00  0.00    +0.060 C 
ATOM     27  C   UNL     1       4.721  -4.431  28.905  0.00  0.00    +0.063 C 
ATOM     28  C   UNL     1       2.588  -4.905  27.733  0.00  0.00    +0.063 C 
ENDBRANCH  21  26
ENDBRANCH  20  21
ENDBRANCH  19  20
ENDBRANCH   1  19
TORSDOF 8
ENDMDL
MODEL 2
REMARK VINA RESULT:      -6.2      0.600      1.998
REMARK  Name = 
REMARK  13 active torsions:
REMARK  status: ('A' for Active; 'I' for Inactive)
REMARK    1  A    between atoms: C_1  and  C_2
REMARK    2  A    between atoms: C_2  and  C_3
REMARK    3  A    between atoms: C_2  and  N_4
REMARK    4  A    between atoms: N_4  and  C_5
REMARK    5  A    between atoms: N_4  and  C_6
REMARK    6  A    between atoms: N_4  and  C_24
REMARK    7  A    between atoms: C_6  and  C_7
REMARK    8  A    between atoms: C_7  and  C_8
REMARK    9  A    between atoms: C_8  and  C_9
REMARK   10  A    between atoms: C_8  and  C_12
REMARK   11  A    between atoms: C_8  and  C_18
REMARK   12  A    between atoms: C_24  and  C_25
REMARK   13  A    between atoms: C_24  and  C_26
REMARK                            x       y       z     vdW  Elec       q    Type
REMARK                         _______ _______ _______ _____ _____    ______ ____
ROOT
ATOM      1  C   UNL     1       7.924  -3.975  24.936  0.00  0.00    +0.101 C 
ENDROOT
BRANCH   1   2
ATOM      2  C   UNL     1       8.631  -2.582  24.824  0.00  0.00    -0.028 A 
ATOM      3  C   UNL     1       8.393  -1.584  25.793  0.00  0.00    +0.005 A 
ATOM      4  C   UNL     1       9.037  -0.344  25.738  0.00  0.00    +0.000 A 
ATOM      5  C   UNL     1       9.916  -0.054  24.701  0.00  0.00    +0.000 A 
ATOM      6  C   UNL     1      10.150  -1.001  23.717  0.00  0.00    +0.000 A 
ATOM      7  C   UNL     1       9.516  -2.246  23.778  0.00  0.00    +0.005 A 
ENDBRANCH   1   2
BRANCH   1   8
ATOM      8  C   UNL     1       7.329  -4.356  23.548  0.00  0.00    -0.028 A 
ATOM      9  C   UNL     1       7.578  -5.611  22.949  0.00  0.00    +0.005 A 
ATOM     10  C   UNL     1       7.033  -5.956  21.709  0.00  0.00    +0.000 A 
ATOM     11  C   UNL     1       6.260  -5.036  21.010  0.00  0.00    +0.000 A 
ATOM     12  C   UNL     1       6.057  -3.767  21.539  0.00  0.00    +0.000 A 
ATOM     13  C   UNL     1       6.600  -3.424  22.785  0.00  0.00    +0.005 A 
ENDBRANCH   1   8
BRANCH   1  14
ATOM     14  C   UNL     1       8.934  -5.032  25.508  0.00  0.00    +0.226 C 
ATOM     15  O   UNL     1      10.070  -5.196  25.063  0.00  0.00    -0.275 OA
ATOM     16  N   UNL     1       8.630  -5.660  26.692  0.00  0.00    -0.328 N 
ATOM     17  H   UNL     1       9.291  -6.387  26.953  0.00  0.00    +0.145 HD
ATOM     18  H   UNL     1       7.674  -5.838  26.974  0.00  0.00    +0.145 HD
ENDBRANCH   1  14
BRANCH   1  19
ATOM     19  C   UNL     1       6.819  -3.906  26.067  0.00  0.00    +0.076 C 
BRANCH  19  20
ATOM     20  C   UNL     1       5.777  -5.026  26.099  0.00  0.00    +0.135 C 
BRANCH  20  21
ATOM     21  N   UNL     1       4.260  -4.519  25.945  0.00  0.00    +0.245 N 
ATOM     22  C   UNL     1       4.283  -3.071  25.430  0.00  0.00    +0.193 C 
BRANCH  21  24
ATOM     23  C   UNL     1       2.042  -4.765  27.366  0.00  0.00    +0.063 C 
ATOM     24  C   UNL     1       3.559  -4.537  27.377  0.00  0.00    +0.060 C 
ATOM     25  C   UNL     1       4.284  -5.448  28.367  0.00  0.00    +0.063 C 
ENDBRANCH  21  24
BRANCH  21  26
ATOM     26  C   UNL     1       3.590  -5.501  24.869  0.00  0.00    +0.060 C 
ATOM     27  C   UNL     1       4.476  -6.721  24.556  0.00  0.00    +0.063 C 
ATOM     28  C   UNL     1       3.222  -4.836  23.545  0.00  0.00    +0.063 C 
ENDBRANCH  21  26
ENDBRANCH  20  21
ENDBRANCH  19  20
ENDBRANCH   1  19
TORSDOF 8
ENDMDL
MODEL 3
REMARK VINA RESULT:      -6.2      0.820      2.383
REMARK  Name = 
REMARK  13 active torsions:
REMARK  status: ('A' for Active; 'I' for Inactive)
REMARK    1  A    between atoms: C_1  and  C_2
REMARK    2  A    between atoms: C_2  and  C_3
REMARK    3  A    between atoms: C_2  and  N_4
REMARK    4  A    between atoms: N_4  and  C_5
REMARK    5  A    between atoms: N_4  and  C_6
REMARK    6  A    between atoms: N_4  and  C_24
REMARK    7  A    between atoms: C_6  and  C_7
REMARK    8  A    between atoms: C_7  and  C_8
REMARK    9  A    between atoms: C_8  and  C_9
REMARK   10  A    between atoms: C_8  and  C_12
REMARK   11  A    between atoms: C_8  and  C_18
REMARK   12  A    between atoms: C_24  and  C_25
REMARK   13  A    between atoms: C_24  and  C_26
REMARK                            x       y       z     vdW  Elec       q    Type
REMARK                         _______ _______ _______ _____ _____    ______ ____
ROOT
ATOM      1  C   UNL     1       8.295  -3.699  24.667  0.00  0.00    +0.101 C 
ENDROOT
BRANCH   1   2
ATOM      2  C   UNL     1       9.035  -2.369  24.300  0.00  0.00    -0.028 A 
ATOM      3  C   UNL     1       9.066  -1.296  25.216  0.00  0.00    +0.005 A 
ATOM      4  C   UNL     1       9.749  -0.109  24.930  0.00  0.00    +0.000 A 
ATOM      5  C   UNL     1      10.398   0.051  23.711  0.00  0.00    +0.000 A 
ATOM      6  C   UNL     1      10.363  -0.972  22.777  0.00  0.00    +0.000 A 
ATOM      7  C   UNL     1       9.691  -2.163  23.068  0.00  0.00    +0.005 A 
ENDBRANCH   1   2
BRANCH   1   8
ATOM      8  C   UNL     1       7.568  -4.242  23.401  0.00  0.00    -0.028 A 
ATOM      9  C   UNL     1       6.710  -3.430  22.628  0.00  0.00    +0.005 A 
ATOM     10  C   UNL     1       6.068  -3.916  21.485  0.00  0.00    +0.000 A 
ATOM     11  C   UNL     1       6.232  -5.244  21.108  0.00  0.00    +0.000 A 
ATOM     12  C   UNL     1       7.012  -6.087  21.888  0.00  0.00    +0.000 A 
ATOM     13  C   UNL     1       7.659  -5.598  23.032  0.00  0.00    +0.005 A 
ENDBRANCH   1   8
BRANCH   1  14
ATOM     14  C   UNL     1       9.315  -4.711  25.299  0.00  0.00    +0.226 C 
ATOM     15  O   UNL     1      10.451  -4.893  24.860  0.00  0.00    -0.275 OA
ATOM     16  N   UNL     1       9.021  -5.267  26.520  0.00  0.00    -0.328 N 
ATOM     17  H   UNL     1       9.689  -5.971  26.822  0.00  0.00    +0.145 HD
ATOM     18  H   UNL     1       8.068  -5.434  26.817  0.00  0.00    +0.145 HD
ENDBRANCH   1  14
BRANCH   1  19
ATOM     19  C   UNL     1       7.297  -3.423  25.864  0.00  0.00    +0.076 C 
BRANCH  19  20
ATOM     20  C   UNL     1       6.069  -4.329  25.977  0.00  0.00    +0.135 C 
BRANCH  20  21
ATOM     21  N   UNL     1       4.665  -3.549  25.911  0.00  0.00    +0.245 N 
ATOM     22  C   UNL     1       4.949  -2.066  25.620  0.00  0.00    +0.193 C 
BRANCH  21  24
ATOM     23  C   UNL     1       4.238  -4.939  28.121  0.00  0.00    +0.063 C 
ATOM     24  C   UNL     1       3.943  -3.660  27.328  0.00  0.00    +0.060 C 
ATOM     25  C   UNL     1       4.116  -2.394  28.168  0.00  0.00    +0.063 C 
ENDBRANCH  21  24
BRANCH  21  26
ATOM     26  C   UNL     1       3.858  -4.227  24.703  0.00  0.00    +0.060 C 
ATOM     27  C   UNL     1       2.332  -4.141  24.895  0.00  0.00    +0.063 C 
ATOM     28  C   UNL     1       4.217  -5.687  24.437  0.00  0.00    +0.063 C 
ENDBRANCH  21  26
ENDBRANCH  20  21
ENDBRANCH  19  20
ENDBRANCH   1  19
TORSDOF 8
ENDMDL
MODEL 4
REMARK VINA RESULT:      -6.1      2.522      6.231
REMARK  Name = 
REMARK  13 active torsions:
REMARK  status: ('A' for Active; 'I' for Inactive)
REMARK    1  A    between atoms: C_1  and  C_2
REMARK    2  A    between atoms: C_2  and  C_3
REMARK    3  A    between atoms: C_2  and  N_4
REMARK    4  A    between atoms: N_4  and  C_5
REMARK    5  A    between atoms: N_4  and  C_6
REMARK    6  A    between atoms: N_4  and  C_24
REMARK    7  A    between atoms: C_6  and  C_7
REMARK    8  A    between atoms: C_7  and  C_8
REMARK    9  A    between atoms: C_8  and  C_9
REMARK   10  A    between atoms: C_8  and  C_12
REMARK   11  A    between atoms: C_8  and  C_18
REMARK   12  A    between atoms: C_24  and  C_25
REMARK   13  A    between atoms: C_24  and  C_26
REMARK                            x       y       z     vdW  Elec       q    Type
REMARK                         _______ _______ _______ _____ _____    ______ ____
ROOT
ATOM      1  C   UNL     1       5.823  -4.221  23.168  0.00  0.00    +0.101 C 
ENDROOT
BRANCH   1   2
ATOM      2  C   UNL     1       4.380  -4.255  23.777  0.00  0.00    -0.028 A 
ATOM      3  C   UNL     1       3.430  -5.185  23.303  0.00  0.00    +0.005 A 
ATOM      4  C   UNL     1       2.146  -5.261  23.852  0.00  0.00    +0.000 A 
ATOM      5  C   UNL     1       1.764  -4.396  24.870  0.00  0.00    +0.000 A 
ATOM      6  C   UNL     1       2.664  -3.451  25.340  0.00  0.00    +0.000 A 
ATOM      7  C   UNL     1       3.952  -3.383  24.800  0.00  0.00    +0.005 A 
ENDBRANCH   1   2
BRANCH   1   8
ATOM      8  C   UNL     1       6.855  -4.550  24.287  0.00  0.00    -0.028 A 
ATOM      9  C   UNL     1       8.246  -4.524  24.048  0.00  0.00    +0.005 A 
ATOM     10  C   UNL     1       9.172  -4.809  25.058  0.00  0.00    +0.000 A 
ATOM     11  C   UNL     1       8.728  -5.170  26.325  0.00  0.00    +0.000 A 
ATOM     12  C   UNL     1       7.365  -5.274  26.571  0.00  0.00    +0.000 A 
ATOM     13  C   UNL     1       6.438  -4.985  25.560  0.00  0.00    +0.005 A 
ENDBRANCH   1   8
BRANCH   1  14
ATOM     14  C   UNL     1       5.894  -5.184  21.932  0.00  0.00    +0.226 C 
ATOM     15  O   UNL     1       5.888  -4.793  20.765  0.00  0.00    -0.275 OA
ATOM     16  N   UNL     1       6.193  -6.509  22.144  0.00  0.00    -0.328 N 
ATOM     17  H   UNL     1       6.140  -7.081  21.306  0.00  0.00    +0.145 HD
ATOM     18  H   UNL     1       5.934  -6.985  22.999  0.00  0.00    +0.145 HD
ENDBRANCH   1  14
BRANCH   1  19
ATOM     19  C   UNL     1       6.074  -2.801  22.514  0.00  0.00    +0.076 C 
BRANCH  19  20
ATOM     20  C   UNL     1       6.300  -1.622  23.462  0.00  0.00    +0.135 C 
BRANCH  20  21
ATOM     21  N   UNL     1       7.636  -0.780  23.161  0.00  0.00    +0.245 N 
ATOM     22  C   UNL     1       8.459  -1.539  22.107  0.00  0.00    +0.193 C 
BRANCH  21  24
ATOM     23  C   UNL     1       7.845  -1.280  25.750  0.00  0.00    +0.063 C 
ATOM     24  C   UNL     1       8.497  -0.677  24.500  0.00  0.00    +0.060 C 
ATOM     25  C   UNL     1       9.937  -1.148  24.301  0.00  0.00    +0.063 C 
ENDBRANCH  21  24
BRANCH  21  26
ATOM     26  C   UNL     1       7.132   0.630  22.589  0.00  0.00    +0.060 C 
ATOM     27  C   UNL     1       8.257   1.416  21.889  0.00  0.00    +0.063 C 
ATOM     28  C   UNL     1       6.495   1.548  23.630  0.00  0.00    +0.063 C 
ENDBRANCH  21  26
ENDBRANCH  20  21
ENDBRANCH  19  20
ENDBRANCH   1  19
TORSDOF 8
ENDMDL
MODEL 5
REMARK VINA RESULT:      -6.0      1.747      5.854
REMARK  Name = 
REMARK  13 active torsions:
REMARK  status: ('A' for Active; 'I' for Inactive)
REMARK    1  A    between atoms: C_1  and  C_2
REMARK    2  A    between atoms: C_2  and  C_3
REMARK    3  A    between atoms: C_2  and  N_4
REMARK    4  A    between atoms: N_4  and  C_5
REMARK    5  A    between atoms: N_4  and  C_6
REMARK    6  A    between atoms: N_4  and  C_24
REMARK    7  A    between atoms: C_6  and  C_7
REMARK    8  A    between atoms: C_7  and  C_8
REMARK    9  A    between atoms: C_8  and  C_9
REMARK   10  A    between atoms: C_8  and  C_12
REMARK   11  A    between atoms: C_8  and  C_18
REMARK   12  A    between atoms: C_24  and  C_25
REMARK   13  A    between atoms: C_24  and  C_26
REMARK                            x       y       z     vdW  Elec       q    Type
REMARK                         _______ _______ _______ _____ _____    ______ ____
ROOT
ATOM      1  C   UNL     1       7.404  -3.812  25.646  0.00  0.00    +0.101 C 
ENDROOT
BRANCH   1   2
ATOM      2  C   UNL     1       7.071  -4.162  24.156  0.00  0.00    -0.028 A 
ATOM      3  C   UNL     1       7.656  -5.289  23.542  0.00  0.00    +0.005 A 
ATOM      4  C   UNL     1       7.350  -5.645  22.225  0.00  0.00    +0.000 A 
ATOM      5  C   UNL     1       6.473  -4.872  21.473  0.00  0.00    +0.000 A 
ATOM      6  C   UNL     1       5.903  -3.741  22.036  0.00  0.00    +0.000 A 
ATOM      7  C   UNL     1       6.199  -3.392  23.358  0.00  0.00    +0.005 A 
ENDBRANCH   1   2
BRANCH   1   8
ATOM      8  C   UNL     1       6.073  -3.642  26.437  0.00  0.00    -0.028 A 
ATOM      9  C   UNL     1       5.058  -4.623  26.409  0.00  0.00    +0.005 A 
ATOM     10  C   UNL     1       3.870  -4.474  27.130  0.00  0.00    +0.000 A 
ATOM     11  C   UNL     1       3.645  -3.316  27.866  0.00  0.00    +0.000 A 
ATOM     12  C   UNL     1       4.593  -2.302  27.857  0.00  0.00    +0.000 A 
ATOM     13  C   UNL     1       5.787  -2.454  27.136  0.00  0.00    +0.005 A 
ENDBRANCH   1   8
BRANCH   1  14
ATOM     14  C   UNL     1       8.364  -4.902  26.240  0.00  0.00    +0.226 C 
ATOM     15  O   UNL     1       9.590  -4.848  26.151  0.00  0.00    -0.275 OA
ATOM     16  N   UNL     1       7.840  -5.854  27.082  0.00  0.00    -0.328 N 
ATOM     17  H   UNL     1       8.507  -6.570  27.357  0.00  0.00    +0.145 HD
ATOM     18  H   UNL     1       6.885  -6.177  26.996  0.00  0.00    +0.145 HD
ENDBRANCH   1  14
BRANCH   1  19
ATOM     19  C   UNL     1       8.299  -2.507  25.683  0.00  0.00    +0.076 C 
BRANCH  19  20
ATOM     20  C   UNL     1       8.957  -2.070  24.373  0.00  0.00    +0.135 C 
BRANCH  20  21
ATOM     21  N   UNL     1       8.885  -0.488  24.094  0.00  0.00    +0.245 N 
ATOM     22  C   UNL     1      10.167   0.159  24.645  0.00  0.00    +0.193 C 
BRANCH  21  24
ATOM     23  C   UNL     1       7.910   1.407  25.660  0.00  0.00    +0.063 C 
ATOM     24  C   UNL     1       7.634   0.119  24.874  0.00  0.00    +0.060 C 
ATOM     25  C   UNL     1       6.393   0.224  23.989  0.00  0.00    +0.063 C 
ENDBRANCH  21  24
BRANCH  21  26
ATOM     26  C   UNL     1       8.807  -0.339  22.501  0.00  0.00    +0.060 C 
ATOM     27  C   UNL     1       9.099  -1.665  21.772  0.00  0.00    +0.063 C 
ATOM     28  C   UNL     1       9.726   0.730  21.915  0.00  0.00    +0.063 C 
ENDBRANCH  21  26
ENDBRANCH  20  21
ENDBRANCH  19  20
ENDBRANCH   1  19
TORSDOF 8
ENDMDL
MODEL 6
REMARK VINA RESULT:      -5.9      1.656      2.007
REMARK  Name = 
REMARK  13 active torsions:
REMARK  status: ('A' for Active; 'I' for Inactive)
REMARK    1  A    between atoms: C_1  and  C_2
REMARK    2  A    between atoms: C_2  and  C_3
REMARK    3  A    between atoms: C_2  and  N_4
REMARK    4  A    between atoms: N_4  and  C_5
REMARK    5  A    between atoms: N_4  and  C_6
REMARK    6  A    between atoms: N_4  and  C_24
REMARK    7  A    between atoms: C_6  and  C_7
REMARK    8  A    between atoms: C_7  and  C_8
REMARK    9  A    between atoms: C_8  and  C_9
REMARK   10  A    between atoms: C_8  and  C_12
REMARK   11  A    between atoms: C_8  and  C_18
REMARK   12  A    between atoms: C_24  and  C_25
REMARK   13  A    between atoms: C_24  and  C_26
REMARK                            x       y       z     vdW  Elec       q    Type
REMARK                         _______ _______ _______ _____ _____    ______ ____
ROOT
ATOM      1  C   UNL     1       7.670  -2.679  23.829  0.00  0.00    +0.101 C 
ENDROOT
BRANCH   1   2
ATOM      2  C   UNL     1       8.052  -1.394  23.019  0.00  0.00    -0.028 A 
ATOM      3  C   UNL     1       7.305  -0.207  23.174  0.00  0.00    +0.005 A 
ATOM      4  C   UNL     1       7.645   0.964  22.489  0.00  0.00    +0.000 A 
ATOM      5  C   UNL     1       8.723   0.978  21.611  0.00  0.00    +0.000 A 
ATOM      6  C   UNL     1       9.461  -0.179  21.415  0.00  0.00    +0.000 A 
ATOM      7  C   UNL     1       9.128  -1.347  22.108  0.00  0.00    +0.005 A 
ENDBRANCH   1   2
BRANCH   1   8
ATOM      8  C   UNL     1       7.207  -3.786  22.838  0.00  0.00    -0.028 A 
ATOM      9  C   UNL     1       6.429  -3.488  21.698  0.00  0.00    +0.005 A 
ATOM     10  C   UNL     1       6.024  -4.483  20.802  0.00  0.00    +0.000 A 
ATOM     11  C   UNL     1       6.349  -5.812  21.047  0.00  0.00    +0.000 A 
ATOM     12  C   UNL     1       7.052  -6.146  22.198  0.00  0.00    +0.000 A 
ATOM     13  C   UNL     1       7.461  -5.148  23.093  0.00  0.00    +0.005 A 
ENDBRANCH   1   8
BRANCH   1  14
ATOM     14  C   UNL     1       8.875  -3.103  24.740  0.00  0.00    +0.226 C 
ATOM     15  O   UNL     1       9.942  -3.531  24.299  0.00  0.00    -0.275 OA
ATOM     16  N   UNL     1       8.834  -2.789  26.078  0.00  0.00    -0.328 N 
ATOM     17  H   UNL     1       9.610  -3.168  26.613  0.00  0.00    +0.145 HD
ATOM     18  H   UNL     1       7.961  -2.727  26.586  0.00  0.00    +0.145 HD
ENDBRANCH   1  14
BRANCH   1  19
ATOM     19  C   UNL     1       6.551  -2.309  24.887  0.00  0.00    +0.076 C 
BRANCH  19  20
ATOM     20  C   UNL     1       5.136  -2.825  24.620  0.00  0.00    +0.135 C 
BRANCH  20  21
ATOM     21  N   UNL     1       4.599  -3.874  25.714  0.00  0.00    +0.245 N 
ATOM     22  C   UNL     1       5.804  -4.399  26.512  0.00  0.00    +0.193 C 
BRANCH  21  24
ATOM     23  C   UNL     1       3.574  -4.864  23.485  0.00  0.00    +0.063 C 
ATOM     24  C   UNL     1       3.915  -5.102  24.962  0.00  0.00    +0.060 C 
ATOM     25  C   UNL     1       4.666  -6.414  25.189  0.00  0.00    +0.063 C 
ENDBRANCH  21  24
BRANCH  21  26
ATOM     26  C   UNL     1       3.607  -3.038  26.655  0.00  0.00    +0.060 C 
ATOM     27  C   UNL     1       3.597  -3.557  28.105  0.00  0.00    +0.063 C 
ATOM     28  C   UNL     1       2.162  -2.983  26.167  0.00  0.00    +0.063 C 
ENDBRANCH  21  26
ENDBRANCH  20  21
ENDBRANCH  19  20
ENDBRANCH   1  19
TORSDOF 8
ENDMDL
MODEL 7
REMARK VINA RESULT:      -5.9      2.469      6.128
REMARK  Name = 
REMARK  13 active torsions:
REMARK  status: ('A' for Active; 'I' for Inactive)
REMARK    1  A    between atoms: C_1  and  C_2
REMARK    2  A    between atoms: C_2  and  C_3
REMARK    3  A    between atoms: C_2  and  N_4
REMARK    4  A    between atoms: N_4  and  C_5
REMARK    5  A    between atoms: N_4  and  C_6
REMARK    6  A    between atoms: N_4  and  C_24
REMARK    7  A    between atoms: C_6  and  C_7
REMARK    8  A    between atoms: C_7  and  C_8
REMARK    9  A    between atoms: C_8  and  C_9
REMARK   10  A    between atoms: C_8  and  C_12
REMARK   11  A    between atoms: C_8  and  C_18
REMARK   12  A    between atoms: C_24  and  C_25
REMARK   13  A    between atoms: C_24  and  C_26
REMARK                            x       y       z     vdW  Elec       q    Type
REMARK                         _______ _______ _______ _____ _____    ______ ____
ROOT
ATOM      1  C   UNL     1       6.157  -3.601  23.385  0.00  0.00    +0.101 C 
ENDROOT
BRANCH   1   2
ATOM      2  C   UNL     1       4.711  -3.781  23.959  0.00  0.00    -0.028 A 
ATOM      3  C   UNL     1       3.846  -4.755  23.416  0.00  0.00    +0.005 A 
ATOM      4  C   UNL     1       2.562  -4.961  23.931  0.00  0.00    +0.000 A 
ATOM      5  C   UNL     1       2.095  -4.184  24.985  0.00  0.00    +0.000 A 
ATOM      6  C   UNL     1       2.908  -3.199  25.523  0.00  0.00    +0.000 A 
ATOM      7  C   UNL     1       4.196  -3.001  25.016  0.00  0.00    +0.005 A 
ENDBRANCH   1   2
BRANCH   1   8
ATOM      8  C   UNL     1       7.186  -4.138  24.423  0.00  0.00    -0.028 A 
ATOM      9  C   UNL     1       8.571  -4.174  24.149  0.00  0.00    +0.005 A 
ATOM     10  C   UNL     1       9.495  -4.645  25.087  0.00  0.00    +0.000 A 
ATOM     11  C   UNL     1       9.053  -5.137  26.311  0.00  0.00    +0.000 A 
ATOM     12  C   UNL     1       7.691  -5.182  26.581  0.00  0.00    +0.000 A 
ATOM     13  C   UNL     1       6.766  -4.705  25.642  0.00  0.00    +0.005 A 
ENDBRANCH   1   8
BRANCH   1  14
ATOM     14  C   UNL     1       6.253  -4.289  21.978  0.00  0.00    +0.226 C 
ATOM     15  O   UNL     1       5.854  -3.765  20.938  0.00  0.00    -0.275 OA
ATOM     16  N   UNL     1       7.005  -5.433  21.853  0.00  0.00    -0.328 N 
ATOM     17  H   UNL     1       6.950  -5.861  20.933  0.00  0.00    +0.145 HD
ATOM     18  H   UNL     1       7.115  -6.086  22.618  0.00  0.00    +0.145 HD
ENDBRANCH   1  14
BRANCH   1  19
ATOM     19  C   UNL     1       6.390  -2.074  23.039  0.00  0.00    +0.076 C 
BRANCH  19  20
ATOM     20  C   UNL     1       6.882  -1.166  24.168  0.00  0.00    +0.135 C 
BRANCH  20  21
ATOM     21  N   UNL     1       8.175  -0.288  23.792  0.00  0.00    +0.245 N 
ATOM     22  C   UNL     1       7.811   1.198  23.944  0.00  0.00    +0.193 C 
BRANCH  21  24
ATOM     23  C   UNL     1       8.758   0.688  21.403  0.00  0.00    +0.063 C 
ATOM     24  C   UNL     1       8.563  -0.562  22.270  0.00  0.00    +0.060 C 
ATOM     25  C   UNL     1       9.715  -1.557  22.135  0.00  0.00    +0.063 C 
ENDBRANCH  21  24
BRANCH  21  26
ATOM     26  C   UNL     1       9.302  -0.713  24.849  0.00  0.00    +0.060 C 
ATOM     27  C   UNL     1       8.710  -1.076  26.224  0.00  0.00    +0.063 C 
ATOM     28  C   UNL     1      10.395   0.330  25.069  0.00  0.00    +0.063 C 
ENDBRANCH  21  26
ENDBRANCH  20  21
ENDBRANCH  19  20
ENDBRANCH   1  19
TORSDOF 8
ENDMDL
MODEL 8
REMARK VINA RESULT:      -5.9      1.989      5.823
REMARK  Name = 
REMARK  13 active torsions:
REMARK  status: ('A' for Active; 'I' for Inactive)
REMARK    1  A    between atoms: C_1  and  C_2
REMARK    2  A    between atoms: C_2  and  C_3
REMARK    3  A    between atoms: C_2  and  N_4
REMARK    4  A    between atoms: N_4  and  C_5
REMARK    5  A    between atoms: N_4  and  C_6
REMARK    6  A    between atoms: N_4  and  C_24
REMARK    7  A    between atoms: C_6  and  C_7
REMARK    8  A    between atoms: C_7  and  C_8
REMARK    9  A    between atoms: C_8  and  C_9
REMARK   10  A    between atoms: C_8  and  C_12
REMARK   11  A    between atoms: C_8  and  C_18
REMARK   12  A    between atoms: C_24  and  C_25
REMARK   13  A    between atoms: C_24  and  C_26
REMARK                            x       y       z     vdW  Elec       q    Type
REMARK                         _______ _______ _______ _____ _____    ______ ____
ROOT
ATOM      1  C   UNL     1       7.389  -4.054  25.329  0.00  0.00    +0.101 C 
ENDROOT
BRANCH   1   2
ATOM      2  C   UNL     1       6.847  -4.818  24.074  0.00  0.00    -0.028 A 
ATOM      3  C   UNL     1       7.596  -4.847  22.880  0.00  0.00    +0.005 A 
ATOM      4  C   UNL     1       7.152  -5.551  21.755  0.00  0.00    +0.000 A 
ATOM      5  C   UNL     1       5.936  -6.224  21.782  0.00  0.00    +0.000 A 
ATOM      6  C   UNL     1       5.161  -6.192  22.931  0.00  0.00    +0.000 A 
ATOM      7  C   UNL     1       5.611  -5.498  24.059  0.00  0.00    +0.005 A 
ENDBRANCH   1   2
BRANCH   1   8
ATOM      8  C   UNL     1       6.225  -3.248  25.976  0.00  0.00    -0.028 A 
ATOM      9  C   UNL     1       5.935  -3.334  27.356  0.00  0.00    +0.005 A 
ATOM     10  C   UNL     1       4.897  -2.600  27.938  0.00  0.00    +0.000 A 
ATOM     11  C   UNL     1       4.089  -1.792  27.146  0.00  0.00    +0.000 A 
ATOM     12  C   UNL     1       4.303  -1.742  25.774  0.00  0.00    +0.000 A 
ATOM     13  C   UNL     1       5.347  -2.475  25.192  0.00  0.00    +0.005 A 
ENDBRANCH   1   8
BRANCH   1  14
ATOM     14  C   UNL     1       8.081  -5.070  26.305  0.00  0.00    +0.226 C 
ATOM     15  O   UNL     1       7.502  -6.037  26.799  0.00  0.00    -0.275 OA
ATOM     16  N   UNL     1       9.446  -5.015  26.455  0.00  0.00    -0.328 N 
ATOM     17  H   UNL     1       9.806  -5.648  27.163  0.00  0.00    +0.145 HD
ATOM     18  H   UNL     1       9.960  -4.148  26.362  0.00  0.00    +0.145 HD
ENDBRANCH   1  14
BRANCH   1  19
ATOM     19  C   UNL     1       8.593  -3.125  24.888  0.00  0.00    +0.076 C 
BRANCH  19  20
ATOM     20  C   UNL     1       8.592  -1.684  25.401  0.00  0.00    +0.135 C 
BRANCH  20  21
ATOM     21  N   UNL     1       8.497  -0.572  24.245  0.00  0.00    +0.245 N 
ATOM     22  C   UNL     1       7.712  -1.167  23.064  0.00  0.00    +0.193 C 
BRANCH  21  24
ATOM     23  C   UNL     1      10.059   0.403  22.345  0.00  0.00    +0.063 C 
ATOM     24  C   UNL     1       9.969  -0.215  23.746  0.00  0.00    +0.060 C 
ATOM     25  C   UNL     1      10.760   0.574  24.789  0.00  0.00    +0.063 C 
ENDBRANCH  21  24
BRANCH  21  26
ATOM     26  C   UNL     1       7.705   0.658  24.900  0.00  0.00    +0.060 C 
ATOM     27  C   UNL     1       7.363   0.414  26.382  0.00  0.00    +0.063 C 
ATOM     28  C   UNL     1       6.415   1.041  24.178  0.00  0.00    +0.063 C 
ENDBRANCH  21  26
ENDBRANCH  20  21
ENDBRANCH  19  20
ENDBRANCH   1  19
TORSDOF 8
ENDMDL
MODEL 9
REMARK VINA RESULT:      -5.6      2.417      6.171
REMARK  Name = 
REMARK  13 active torsions:
REMARK  status: ('A' for Active; 'I' for Inactive)
REMARK    1  A    between atoms: C_1  and  C_2
REMARK    2  A    between atoms: C_2  and  C_3
REMARK    3  A    between atoms: C_2  and  N_4
REMARK    4  A    between atoms: N_4  and  C_5
REMARK    5  A    between atoms: N_4  and  C_6
REMARK    6  A    between atoms: N_4  and  C_24
REMARK    7  A    between atoms: C_6  and  C_7
REMARK    8  A    between atoms: C_7  and  C_8
REMARK    9  A    between atoms: C_8  and  C_9
REMARK   10  A    between atoms: C_8  and  C_12
REMARK   11  A    between atoms: C_8  and  C_18
REMARK   12  A    between atoms: C_24  and  C_25
REMARK   13  A    between atoms: C_24  and  C_26
REMARK                            x       y       z     vdW  Elec       q    Type
REMARK                         _______ _______ _______ _____ _____    ______ ____
ROOT
ATOM      1  C   UNL     1       5.898  -4.194  23.229  0.00  0.00    +0.101 C 
ENDROOT
BRANCH   1   2
ATOM      2  C   UNL     1       4.448  -4.209  23.821  0.00  0.00    -0.028 A 
ATOM      3  C   UNL     1       3.507  -5.161  23.375  0.00  0.00    +0.005 A 
ATOM      4  C   UNL     1       2.217  -5.219  23.911  0.00  0.00    +0.000 A 
ATOM      5  C   UNL     1       1.819  -4.313  24.888  0.00  0.00    +0.000 A 
ATOM      6  C   UNL     1       2.710  -3.346  25.327  0.00  0.00    +0.000 A 
ATOM      7  C   UNL     1       4.004  -3.296  24.800  0.00  0.00    +0.005 A 
ENDBRANCH   1   2
BRANCH   1   8
ATOM      8  C   UNL     1       6.904  -4.624  24.337  0.00  0.00    -0.028 A 
ATOM      9  C   UNL     1       8.214  -5.053  24.029  0.00  0.00    +0.005 A 
ATOM     10  C   UNL     1       9.119  -5.426  25.027  0.00  0.00    +0.000 A 
ATOM     11  C   UNL     1       8.725  -5.424  26.360  0.00  0.00    +0.000 A 
ATOM     12  C   UNL     1       7.421  -5.076  26.689  0.00  0.00    +0.000 A 
ATOM     13  C   UNL     1       6.514  -4.697  25.689  0.00  0.00    +0.005 A 
ENDBRANCH   1   8
BRANCH   1  14
ATOM     14  C   UNL     1       5.948  -5.090  21.941  0.00  0.00    +0.226 C 
ATOM     15  O   UNL     1       5.910  -4.636  20.797  0.00  0.00    -0.275 OA
ATOM     16  N   UNL     1       6.264  -6.420  22.075  0.00  0.00    -0.328 N 
ATOM     17  H   UNL     1       6.196  -6.948  21.209  0.00  0.00    +0.145 HD
ATOM     18  H   UNL     1       6.029  -6.945  22.908  0.00  0.00    +0.145 HD
ENDBRANCH   1  14
BRANCH   1  19
ATOM     19  C   UNL     1       6.209  -2.751  22.658  0.00  0.00    +0.076 C 
BRANCH  19  20
ATOM     20  C   UNL     1       7.671  -2.301  22.648  0.00  0.00    +0.135 C 
BRANCH  20  21
ATOM     21  N   UNL     1       8.010  -1.136  23.703  0.00  0.00    +0.245 N 
ATOM     22  C   UNL     1       8.994  -1.695  24.742  0.00  0.00    +0.193 C 
BRANCH  21  24
ATOM     23  C   UNL     1       6.647  -0.970  25.964  0.00  0.00    +0.063 C 
ATOM     24  C   UNL     1       6.669  -0.709  24.452  0.00  0.00    +0.060 C 
ATOM     25  C   UNL     1       6.229   0.710  24.093  0.00  0.00    +0.063 C 
ENDBRANCH  21  24
BRANCH  21  26
ATOM     26  C   UNL     1       8.687   0.034  22.843  0.00  0.00    +0.060 C 
ATOM     27  C   UNL     1       9.257  -0.474  21.505  0.00  0.00    +0.063 C 
ATOM     28  C   UNL     1       9.796   0.795  23.565  0.00  0.00    +0.063 C 
ENDBRANCH  21  26
ENDBRANCH  20  21
ENDBRANCH  19  20
ENDBRANCH   1  19
TORSDOF 8
ENDMDL
