MODEL 1
REMARK VINA RESULT:      -7.2      0.000      0.000
REMARK  Name = 
REMARK  5 active torsions:
REMARK  status: ('A' for Active; 'I' for Inactive)
REMARK    1  A    between atoms: N_1  and  S_2
REMARK    2  A    between atoms: S_2  and  C_5
REMARK    3  A    between atoms: C_8  and  C_11
REMARK    4  A    between atoms: N_13  and  C_14
REMARK    5  A    between atoms: C_14  and  C_15
REMARK                            x       y       z     vdW  Elec       q    Type
REMARK                         _______ _______ _______ _____ _____    ______ ____
ROOT
ATOM      1  C   UNL     1       6.687  -5.213  26.718  0.00  0.00    +0.105 A 
ATOM      2  C   UNL     1       5.889  -4.818  25.642  0.00  0.00    +0.029 A 
ATOM      3  C   UNL     1       6.462  -4.145  24.559  0.00  0.00    +0.015 A 
ATOM      4  C   UNL     1       7.837  -3.868  24.544  0.00  0.00    +0.037 A 
ATOM      5  C   UNL     1       8.633  -4.309  25.618  0.00  0.00    +0.015 A 
ATOM      6  C   UNL     1       8.063  -4.981  26.703  0.00  0.00    +0.029 A 
ENDROOT
BRANCH   4   7
ATOM      7  C   UNL     1       8.503  -3.066  23.467  0.00  0.00    +0.244 C 
ATOM      8  N   UNL     1       9.733  -2.511  23.747  0.00  0.00    -0.307 N 
ATOM      9  H   UNL     1      10.105  -2.498  24.681  0.00  0.00    +0.149 HD
ATOM     10  O   UNL     1       7.958  -2.949  22.374  0.00  0.00    -0.270 OA
BRANCH   8  11
ATOM     11  C   UNL     1      10.477  -1.770  22.753  0.00  0.00    +0.142 C 
BRANCH  11  12
ATOM     12  C   UNL     1      10.275  -0.290  22.891  0.00  0.00    +0.005 A 
ATOM     13  C   UNL     1       9.694   0.449  21.859  0.00  0.00    +0.128 A 
ATOM     14  F   UNL     1       9.320  -0.164  20.725  0.00  0.00    -0.205 F 
ATOM     15  C   UNL     1       9.491   1.822  21.975  0.00  0.00    +0.038 A 
ATOM     16  C   UNL     1       9.881   2.480  23.141  0.00  0.00    +0.003 A 
ATOM     17  C   UNL     1      10.481   1.761  24.175  0.00  0.00    +0.000 A 
ATOM     18  C   UNL     1      10.682   0.385  24.050  0.00  0.00    +0.008 A 
ENDBRANCH  11  12
ENDBRANCH   8  11
ENDBRANCH   4   7
BRANCH   1  19
ATOM     19  S   UNL     1       5.937  -5.953  28.139  0.00  0.00    +0.056 S 
ATOM     20  O   UNL     1       6.955  -6.607  28.928  0.00  0.00    -0.153 OA
ATOM     21  O   UNL     1       4.989  -5.022  28.704  0.00  0.00    -0.153 OA
BRANCH  19  22
ATOM     22  N   UNL     1       5.043  -7.193  27.448  0.00  0.00    -0.204 NA
ATOM     23  H   UNL     1       4.651  -7.792  28.174  0.00  0.00    +0.144 HD
ATOM     24  H   UNL     1       4.347  -6.803  26.813  0.00  0.00    +0.144 HD
ENDBRANCH  19  22
ENDBRANCH   1  19
TORSDOF 5
ENDMDL
MODEL 2
REMARK VINA RESULT:      -7.1      2.739      3.259
REMARK  Name = 
REMARK  5 active torsions:
REMARK  status: ('A' for Active; 'I' for Inactive)
REMARK    1  A    between atoms: N_1  and  S_2
REMARK    2  A    between atoms: S_2  and  C_5
REMARK    3  A    between atoms: C_8  and  C_11
REMARK    4  A    between atoms: N_13  and  C_14
REMARK    5  A    between atoms: C_14  and  C_15
REMARK                            x       y       z     vdW  Elec       q    Type
REMARK                         _______ _______ _______ _____ _____    ______ ____
ROOT
ATOM      1  C   UNL     1       4.787  -5.840  24.054  0.00  0.00    +0.105 A 
ATOM      2  C   UNL     1       5.564  -5.866  22.894  0.00  0.00    +0.029 A 
ATOM      3  C   UNL     1       6.867  -5.358  22.918  0.00  0.00    +0.015 A 
ATOM      4  C   UNL     1       7.401  -4.829  24.102  0.00  0.00    +0.037 A 
ATOM      5  C   UNL     1       6.617  -4.848  25.271  0.00  0.00    +0.015 A 
ATOM      6  C   UNL     1       5.313  -5.353  25.251  0.00  0.00    +0.029 A 
ENDROOT
BRANCH   4   7
ATOM      7  C   UNL     1       8.749  -4.179  24.178  0.00  0.00    +0.244 C 
ATOM      8  N   UNL     1       8.881  -2.909  23.660  0.00  0.00    -0.307 N 
ATOM      9  H   UNL     1       8.154  -2.489  23.105  0.00  0.00    +0.149 HD
ATOM     10  O   UNL     1       9.679  -4.774  24.715  0.00  0.00    -0.270 OA
BRANCH   8  11
ATOM     11  C   UNL     1      10.126  -2.180  23.740  0.00  0.00    +0.142 C 
BRANCH  11  12
ATOM     12  C   UNL     1      10.005  -0.800  23.162  0.00  0.00    +0.005 A 
ATOM     13  C   UNL     1      10.475   0.310  23.864  0.00  0.00    +0.128 A 
ATOM     14  F   UNL     1      11.033   0.150  25.074  0.00  0.00    -0.205 F 
ATOM     15  C   UNL     1      10.379   1.596  23.336  0.00  0.00    +0.038 A 
ATOM     16  C   UNL     1       9.793   1.785  22.085  0.00  0.00    +0.003 A 
ATOM     17  C   UNL     1       9.300   0.689  21.377  0.00  0.00    +0.000 A 
ATOM     18  C   UNL     1       9.399  -0.596  21.914  0.00  0.00    +0.008 A 
ENDBRANCH  11  12
ENDBRANCH   8  11
ENDBRANCH   4   7
BRANCH   1  19
ATOM     19  S   UNL     1       3.100  -6.369  23.988  0.00  0.00    +0.056 S 
ATOM     20  O   UNL     1       2.432  -5.981  25.208  0.00  0.00    -0.153 OA
ATOM     21  O   UNL     1       2.570  -6.073  22.679  0.00  0.00    -0.153 OA
BRANCH  19  22
ATOM     22  N   UNL     1       3.260  -8.037  24.078  0.00  0.00    -0.204 NA
ATOM     23  H   UNL     1       3.972  -8.358  23.423  0.00  0.00    +0.144 HD
ATOM     24  H   UNL     1       3.431  -8.315  25.044  0.00  0.00    +0.144 HD
ENDBRANCH  19  22
ENDBRANCH   1  19
TORSDOF 5
ENDMDL
MODEL 3
REMARK VINA RESULT:      -6.9      1.933      2.572
REMARK  Name = 
REMARK  5 active torsions:
REMARK  status: ('A' for Active; 'I' for Inactive)
REMARK    1  A    between atoms: N_1  and  S_2
REMARK    2  A    between atoms: S_2  and  C_5
REMARK    3  A    between atoms: C_8  and  C_11
REMARK    4  A    between atoms: N_13  and  C_14
REMARK    5  A    between atoms: C_14  and  C_15
REMARK                            x       y       z     vdW  Elec       q    Type
REMARK                         _______ _______ _______ _____ _____    ______ ____
ROOT
ATOM      1  C   UNL     1       5.696  -5.481  25.182  0.00  0.00    +0.105 A 
ATOM      2  C   UNL     1       6.846  -5.412  25.971  0.00  0.00    +0.029 A 
ATOM      3  C   UNL     1       7.942  -4.657  25.539  0.00  0.00    +0.015 A 
ATOM      4  C   UNL     1       7.889  -3.963  24.322  0.00  0.00    +0.037 A 
ATOM      5  C   UNL     1       6.707  -4.012  23.560  0.00  0.00    +0.015 A 
ATOM      6  C   UNL     1       5.610  -4.767  23.986  0.00  0.00    +0.029 A 
ENDROOT
BRANCH   4   7
ATOM      7  C   UNL     1       9.056  -3.216  23.750  0.00  0.00    +0.244 C 
ATOM      8  N   UNL     1       8.804  -2.291  22.759  0.00  0.00    -0.307 N 
ATOM      9  H   UNL     1       7.903  -2.227  22.316  0.00  0.00    +0.149 HD
ATOM     10  O   UNL     1      10.183  -3.424  24.188  0.00  0.00    -0.270 OA
BRANCH   8  11
ATOM     11  C   UNL     1       9.856  -1.482  22.188  0.00  0.00    +0.142 C 
BRANCH  11  12
ATOM     12  C   UNL     1       9.694  -0.030  22.529  0.00  0.00    +0.005 A 
ATOM     13  C   UNL     1      10.148   0.471  23.750  0.00  0.00    +0.128 A 
ATOM     14  F   UNL     1      10.728  -0.353  24.638  0.00  0.00    -0.205 F 
ATOM     15  C   UNL     1      10.013   1.818  24.077  0.00  0.00    +0.038 A 
ATOM     16  C   UNL     1       9.404   2.689  23.174  0.00  0.00    +0.003 A 
ATOM     17  C   UNL     1       8.926   2.203  21.957  0.00  0.00    +0.000 A 
ATOM     18  C   UNL     1       9.065   0.850  21.638  0.00  0.00    +0.008 A 
ENDBRANCH  11  12
ENDBRANCH   8  11
ENDBRANCH   4   7
BRANCH   1  19
ATOM     19  S   UNL     1       4.362  -6.536  25.671  0.00  0.00    +0.056 S 
ATOM     20  O   UNL     1       3.242  -5.725  26.086  0.00  0.00    -0.153 OA
ATOM     21  O   UNL     1       4.239  -7.607  24.711  0.00  0.00    -0.153 OA
BRANCH  19  22
ATOM     22  N   UNL     1       4.965  -7.218  27.080  0.00  0.00    -0.204 NA
ATOM     23  H   UNL     1       5.957  -7.003  27.180  0.00  0.00    +0.144 HD
ATOM     24  H   UNL     1       4.397  -6.927  27.875  0.00  0.00    +0.144 HD
ENDBRANCH  19  22
ENDBRANCH   1  19
TORSDOF 5
ENDMDL
MODEL 4
REMARK VINA RESULT:      -6.7      1.949      2.634
REMARK  Name = 
REMARK  5 active torsions:
REMARK  status: ('A' for Active; 'I' for Inactive)
REMARK    1  A    between atoms: N_1  and  S_2
REMARK    2  A    between atoms: S_2  and  C_5
REMARK    3  A    between atoms: C_8  and  C_11
REMARK    4  A    between atoms: N_13  and  C_14
REMARK    5  A    between atoms: C_14  and  C_15
REMARK                            x       y       z     vdW  Elec       q    Type
REMARK                         _______ _______ _______ _____ _____    ______ ____
ROOT
ATOM      1  C   UNL     1       7.459  -4.335  25.695  0.00  0.00    +0.105 A 
ATOM      2  C   UNL     1       7.479  -4.681  24.342  0.00  0.00    +0.029 A 
ATOM      3  C   UNL     1       8.121  -3.848  23.420  0.00  0.00    +0.015 A 
ATOM      4  C   UNL     1       8.752  -2.671  23.847  0.00  0.00    +0.037 A 
ATOM      5  C   UNL     1       8.756  -2.360  25.219  0.00  0.00    +0.015 A 
ATOM      6  C   UNL     1       8.114  -3.188  26.144  0.00  0.00    +0.029 A 
ENDROOT
BRANCH   4   7
ATOM      7  C   UNL     1       9.373  -1.683  22.907  0.00  0.00    +0.244 C 
ATOM      8  N   UNL     1       8.636  -0.569  22.566  0.00  0.00    -0.307 N 
ATOM      9  H   UNL     1       7.661  -0.491  22.802  0.00  0.00    +0.149 HD
ATOM     10  O   UNL     1      10.512  -1.874  22.491  0.00  0.00    -0.270 OA
BRANCH   8  11
ATOM     11  C   UNL     1       9.173   0.467  21.713  0.00  0.00    +0.142 C 
BRANCH  11  12
ATOM     12  C   UNL     1       8.937   1.837  22.279  0.00  0.00    +0.005 A 
ATOM     13  C   UNL     1       9.803   2.372  23.233  0.00  0.00    +0.128 A 
ATOM     14  F   UNL     1      10.854   1.655  23.661  0.00  0.00    -0.205 F 
ATOM     15  C   UNL     1       9.604   3.646  23.761  0.00  0.00    +0.038 A 
ATOM     16  C   UNL     1       8.512   4.404  23.338  0.00  0.00    +0.003 A 
ATOM     17  C   UNL     1       7.624   3.877  22.399  0.00  0.00    +0.000 A 
ATOM     18  C   UNL     1       7.831   2.599  21.876  0.00  0.00    +0.008 A 
ENDBRANCH  11  12
ENDBRANCH   8  11
ENDBRANCH   4   7
BRANCH   1  19
ATOM     19  S   UNL     1       6.541  -5.326  26.837  0.00  0.00    +0.056 S 
ATOM     20  O   UNL     1       5.867  -4.463  27.779  0.00  0.00    -0.153 OA
ATOM     21  O   UNL     1       5.860  -6.369  26.107  0.00  0.00    -0.153 OA
BRANCH  19  22
ATOM     22  N   UNL     1       7.767  -6.068  27.709  0.00  0.00    -0.204 NA
ATOM     23  H   UNL     1       7.466  -6.234  28.670  0.00  0.00    +0.144 HD
ATOM     24  H   UNL     1       8.076  -6.909  27.222  0.00  0.00    +0.144 HD
ENDBRANCH  19  22
ENDBRANCH   1  19
TORSDOF 5
ENDMDL
MODEL 5
REMARK VINA RESULT:      -6.6      4.301      7.789
REMARK  Name = 
REMARK  5 active torsions:
REMARK  status: ('A' for Active; 'I' for Inactive)
REMARK    1  A    between atoms: N_1  and  S_2
REMARK    2  A    between atoms: S_2  and  C_5
REMARK    3  A    between atoms: C_8  and  C_11
REMARK    4  A    between atoms: N_13  and  C_14
REMARK    5  A    between atoms: C_14  and  C_15
REMARK                            x       y       z     vdW  Elec       q    Type
REMARK                         _______ _______ _______ _____ _____    ______ ____
ROOT
ATOM      1  C   UNL     1       9.472   2.751  23.741  0.00  0.00    +0.105 A 
ATOM      2  C   UNL     1       9.984   2.217  22.556  0.00  0.00    +0.029 A 
ATOM      3  C   UNL     1      10.118   0.832  22.418  0.00  0.00    +0.015 A 
ATOM      4  C   UNL     1       9.735  -0.026  23.461  0.00  0.00    +0.037 A 
ATOM      5  C   UNL     1       9.185   0.529  24.631  0.00  0.00    +0.015 A 
ATOM      6  C   UNL     1       9.051   1.913  24.774  0.00  0.00    +0.029 A 
ENDROOT
BRANCH   4   7
ATOM      7  C   UNL     1       9.941  -1.509  23.423  0.00  0.00    +0.244 C 
ATOM      8  N   UNL     1       9.418  -2.257  24.456  0.00  0.00    -0.307 N 
ATOM      9  H   UNL     1       9.054  -1.824  25.288  0.00  0.00    +0.149 HD
ATOM     10  O   UNL     1      10.536  -2.015  22.477  0.00  0.00    -0.270 OA
BRANCH   8  11
ATOM     11  C   UNL     1       9.515  -3.699  24.477  0.00  0.00    +0.142 C 
BRANCH  11  12
ATOM     12  C   UNL     1       8.164  -4.350  24.533  0.00  0.00    +0.005 A 
ATOM     13  C   UNL     1       7.369  -4.442  23.389  0.00  0.00    +0.128 A 
ATOM     14  F   UNL     1       7.807  -3.933  22.227  0.00  0.00    -0.205 F 
ATOM     15  C   UNL     1       6.118  -5.052  23.423  0.00  0.00    +0.038 A 
ATOM     16  C   UNL     1       5.639  -5.577  24.623  0.00  0.00    +0.003 A 
ATOM     17  C   UNL     1       6.412  -5.479  25.781  0.00  0.00    +0.000 A 
ATOM     18  C   UNL     1       7.665  -4.864  25.738  0.00  0.00    +0.008 A 
ENDBRANCH  11  12
ENDBRANCH   8  11
ENDBRANCH   4   7
BRANCH   1  19
ATOM     19  S   UNL     1       9.421   4.506  23.958  0.00  0.00    +0.056 S 
ATOM     20  O   UNL     1       8.743   4.813  25.196  0.00  0.00    -0.153 OA
ATOM     21  O   UNL     1      10.712   5.056  23.618  0.00  0.00    -0.153 OA
BRANCH  19  22
ATOM     22  N   UNL     1       8.363   4.971  22.742  0.00  0.00    -0.204 NA
ATOM     23  H   UNL     1       8.718   5.799  22.263  0.00  0.00    +0.144 HD
ATOM     24  H   UNL     1       8.182   4.181  22.123  0.00  0.00    +0.144 HD
ENDBRANCH  19  22
ENDBRANCH   1  19
TORSDOF 5
ENDMDL
MODEL 6
REMARK VINA RESULT:      -6.5      4.441      7.724
REMARK  Name = 
REMARK  5 active torsions:
REMARK  status: ('A' for Active; 'I' for Inactive)
REMARK    1  A    between atoms: N_1  and  S_2
REMARK    2  A    between atoms: S_2  and  C_5
REMARK    3  A    between atoms: C_8  and  C_11
REMARK    4  A    between atoms: N_13  and  C_14
REMARK    5  A    between atoms: C_14  and  C_15
REMARK                            x       y       z     vdW  Elec       q    Type
REMARK                         _______ _______ _______ _____ _____    ______ ____
ROOT
ATOM      1  C   UNL     1       9.331   2.105  24.091  0.00  0.00    +0.105 A 
ATOM      2  C   UNL     1       8.148   1.363  24.090  0.00  0.00    +0.029 A 
ATOM      3  C   UNL     1       8.203  -0.034  24.058  0.00  0.00    +0.015 A 
ATOM      4  C   UNL     1       9.440  -0.695  24.034  0.00  0.00    +0.037 A 
ATOM      5  C   UNL     1      10.621   0.068  24.076  0.00  0.00    +0.015 A 
ATOM      6  C   UNL     1      10.571   1.465  24.106  0.00  0.00    +0.029 A 
ENDROOT
BRANCH   4   7
ATOM      7  C   UNL     1       9.575  -2.181  23.901  0.00  0.00    +0.244 C 
ATOM      8  N   UNL     1       8.688  -2.973  24.598  0.00  0.00    -0.307 N 
ATOM      9  H   UNL     1       8.076  -2.587  25.297  0.00  0.00    +0.149 HD
ATOM     10  O   UNL     1      10.441  -2.648  23.166  0.00  0.00    -0.270 OA
BRANCH   8  11
ATOM     11  C   UNL     1       8.703  -4.414  24.486  0.00  0.00    +0.142 C 
BRANCH  11  12
ATOM     12  C   UNL     1       7.473  -4.936  23.805  0.00  0.00    +0.005 A 
ATOM     13  C   UNL     1       6.332  -5.258  24.542  0.00  0.00    +0.128 A 
ATOM     14  F   UNL     1       6.334  -5.113  25.877  0.00  0.00    -0.205 F 
ATOM     15  C   UNL     1       5.179  -5.735  23.923  0.00  0.00    +0.038 A 
ATOM     16  C   UNL     1       5.159  -5.903  22.539  0.00  0.00    +0.003 A 
ATOM     17  C   UNL     1       6.296  -5.605  21.788  0.00  0.00    +0.000 A 
ATOM     18  C   UNL     1       7.449  -5.129  22.417  0.00  0.00    +0.008 A 
ENDBRANCH  11  12
ENDBRANCH   8  11
ENDBRANCH   4   7
BRANCH   1  19
ATOM     19  S   UNL     1       9.256   3.871  24.005  0.00  0.00    +0.056 S 
ATOM     20  O   UNL     1       8.495   4.370  25.127  0.00  0.00    -0.153 OA
ATOM     21  O   UNL     1      10.564   4.376  23.662  0.00  0.00    -0.153 OA
BRANCH  19  22
ATOM     22  N   UNL     1       8.279   4.107  22.662  0.00  0.00    -0.204 NA
ATOM     23  H   UNL     1       8.710   3.694  21.835  0.00  0.00    +0.144 HD
ATOM     24  H   UNL     1       7.339   3.762  22.855  0.00  0.00    +0.144 HD
ENDBRANCH  19  22
ENDBRANCH   1  19
TORSDOF 5
ENDMDL
MODEL 7
REMARK VINA RESULT:      -6.4      3.289      4.458
REMARK  Name = 
REMARK  5 active torsions:
REMARK  status: ('A' for Active; 'I' for Inactive)
REMARK    1  A    between atoms: N_1  and  S_2
REMARK    2  A    between atoms: S_2  and  C_5
REMARK    3  A    between atoms: C_8  and  C_11
REMARK    4  A    between atoms: N_13  and  C_14
REMARK    5  A    between atoms: C_14  and  C_15
REMARK                            x       y       z     vdW  Elec       q    Type
REMARK                         _______ _______ _______ _____ _____    ______ ____
ROOT
ATOM      1  C   UNL     1       8.719  -3.377  25.164  0.00  0.00    +0.105 A 
ATOM      2  C   UNL     1       9.508  -2.609  24.304  0.00  0.00    +0.029 A 
ATOM      3  C   UNL     1       9.378  -1.217  24.298  0.00  0.00    +0.015 A 
ATOM      4  C   UNL     1       8.465  -0.585  25.156  0.00  0.00    +0.037 A 
ATOM      5  C   UNL     1       7.708  -1.373  26.044  0.00  0.00    +0.015 A 
ATOM      6  C   UNL     1       7.834  -2.765  26.052  0.00  0.00    +0.029 A 
ENDROOT
BRANCH   4   7
ATOM      7  C   UNL     1       8.201   0.889  25.135  0.00  0.00    +0.244 C 
ATOM      8  N   UNL     1       8.358   1.553  23.937  0.00  0.00    -0.307 N 
ATOM      9  H   UNL     1       8.788   1.111  23.142  0.00  0.00    +0.149 HD
ATOM     10  O   UNL     1       7.833   1.454  26.160  0.00  0.00    -0.270 OA
BRANCH   8  11
ATOM     11  C   UNL     1       8.070   2.964  23.806  0.00  0.00    +0.142 C 
BRANCH  11  12
ATOM     12  C   UNL     1       9.324   3.785  23.719  0.00  0.00    +0.005 A 
ATOM     13  C   UNL     1       9.290   5.162  23.943  0.00  0.00    +0.128 A 
ATOM     14  F   UNL     1       8.126   5.766  24.227  0.00  0.00    -0.205 F 
ATOM     15  C   UNL     1      10.447   5.936  23.876  0.00  0.00    +0.038 A 
ATOM     16  C   UNL     1      11.665   5.329  23.572  0.00  0.00    +0.003 A 
ATOM     17  C   UNL     1      11.715   3.957  23.326  0.00  0.00    +0.000 A 
ATOM     18  C   UNL     1      10.550   3.189  23.394  0.00  0.00    +0.008 A 
ENDBRANCH  11  12
ENDBRANCH   8  11
ENDBRANCH   4   7
BRANCH   1  19
ATOM     19  S   UNL     1       8.798  -5.142  25.081  0.00  0.00    +0.056 S 
ATOM     20  O   UNL     1       8.062  -5.704  26.189  0.00  0.00    -0.153 OA
ATOM     21  O   UNL     1       8.587  -5.554  23.713  0.00  0.00    -0.153 OA
BRANCH  19  22
ATOM     22  N   UNL     1      10.415  -5.430  25.426  0.00  0.00    -0.204 NA
ATOM     23  H   UNL     1      10.852  -4.585  25.795  0.00  0.00    +0.144 HD
ATOM     24  H   UNL     1      10.497  -6.240  26.040  0.00  0.00    +0.144 HD
ENDBRANCH  19  22
ENDBRANCH   1  19
TORSDOF 5
ENDMDL
MODEL 8
REMARK VINA RESULT:      -6.3      4.547      8.057
REMARK  Name = 
REMARK  5 active torsions:
REMARK  status: ('A' for Active; 'I' for Inactive)
REMARK    1  A    between atoms: N_1  and  S_2
REMARK    2  A    between atoms: S_2  and  C_5
REMARK    3  A    between atoms: C_8  and  C_11
REMARK    4  A    between atoms: N_13  and  C_14
REMARK    5  A    between atoms: C_14  and  C_15
REMARK                            x       y       z     vdW  Elec       q    Type
REMARK                         _______ _______ _______ _____ _____    ______ ____
ROOT
ATOM      1  C   UNL     1       8.905   3.371  23.298  0.00  0.00    +0.105 A 
ATOM      2  C   UNL     1       9.832   2.603  24.007  0.00  0.00    +0.029 A 
ATOM      3  C   UNL     1       9.956   1.237  23.737  0.00  0.00    +0.015 A 
ATOM      4  C   UNL     1       9.158   0.633  22.753  0.00  0.00    +0.037 A 
ATOM      5  C   UNL     1       8.259   1.430  22.022  0.00  0.00    +0.015 A 
ATOM      6  C   UNL     1       8.131   2.796  22.289  0.00  0.00    +0.029 A 
ENDROOT
BRANCH   4   7
ATOM      7  C   UNL     1       9.165  -0.840  22.479  0.00  0.00    +0.244 C 
ATOM      8  N   UNL     1       8.090  -1.581  22.920  0.00  0.00    -0.307 N 
ATOM      9  H   UNL     1       7.402  -1.192  23.543  0.00  0.00    +0.149 HD
ATOM     10  O   UNL     1      10.099  -1.337  21.857  0.00  0.00    -0.270 OA
BRANCH   8  11
ATOM     11  C   UNL     1       7.980  -2.997  22.652  0.00  0.00    +0.142 C 
BRANCH  11  12
ATOM     12  C   UNL     1       7.991  -3.808  23.914  0.00  0.00    +0.005 A 
ATOM     13  C   UNL     1       9.164  -3.958  24.656  0.00  0.00    +0.128 A 
ATOM     14  F   UNL     1      10.300  -3.382  24.234  0.00  0.00    -0.205 F 
ATOM     15  C   UNL     1       9.187  -4.699  25.834  0.00  0.00    +0.038 A 
ATOM     16  C   UNL     1       8.019  -5.315  26.285  0.00  0.00    +0.003 A 
ATOM     17  C   UNL     1       6.842  -5.193  25.547  0.00  0.00    +0.000 A 
ATOM     18  C   UNL     1       6.828  -4.448  24.365  0.00  0.00    +0.008 A 
ENDBRANCH  11  12
ENDBRANCH   8  11
ENDBRANCH   4   7
BRANCH   1  19
ATOM     19  S   UNL     1       8.665   5.070  23.728  0.00  0.00    +0.056 S 
ATOM     20  O   UNL     1       7.511   5.580  23.026  0.00  0.00    -0.153 OA
ATOM     21  O   UNL     1       8.843   5.220  25.153  0.00  0.00    -0.153 OA
BRANCH  19  22
ATOM     22  N   UNL     1       9.989   5.798  22.998  0.00  0.00    -0.204 NA
ATOM     23  H   UNL     1       9.684   6.566  22.399  0.00  0.00    +0.144 HD
ATOM     24  H   UNL     1      10.667   6.072  23.708  0.00  0.00    +0.144 HD
ENDBRANCH  19  22
ENDBRANCH   1  19
TORSDOF 5
ENDMDL
MODEL 9
REMARK VINA RESULT:      -6.1      3.705      4.871
REMARK  Name = 
REMARK  5 active torsions:
REMARK  status: ('A' for Active; 'I' for Inactive)
REMARK    1  A    between atoms: N_1  and  S_2
REMARK    2  A    between atoms: S_2  and  C_5
REMARK    3  A    between atoms: C_8  and  C_11
REMARK    4  A    between atoms: N_13  and  C_14
REMARK    5  A    between atoms: C_14  and  C_15
REMARK                            x       y       z     vdW  Elec       q    Type
REMARK                         _______ _______ _______ _____ _____    ______ ____
ROOT
ATOM      1  C   UNL     1       7.465  -3.010  23.100  0.00  0.00    +0.105 A 
ATOM      2  C   UNL     1       8.675  -3.290  23.739  0.00  0.00    +0.029 A 
ATOM      3  C   UNL     1       9.512  -2.242  24.135  0.00  0.00    +0.015 A 
ATOM      4  C   UNL     1       9.140  -0.910  23.900  0.00  0.00    +0.037 A 
ATOM      5  C   UNL     1       7.899  -0.646  23.291  0.00  0.00    +0.015 A 
ATOM      6  C   UNL     1       7.060  -1.691  22.892  0.00  0.00    +0.029 A 
ENDROOT
BRANCH   4   7
ATOM      7  C   UNL     1      10.028   0.258  24.206  0.00  0.00    +0.244 C 
ATOM      8  N   UNL     1      10.007   1.327  23.335  0.00  0.00    -0.307 N 
ATOM      9  H   UNL     1       9.544   1.270  22.444  0.00  0.00    +0.149 HD
ATOM     10  O   UNL     1      10.719   0.245  25.219  0.00  0.00    -0.270 OA
BRANCH   8  11
ATOM     11  C   UNL     1      10.785   2.521  23.578  0.00  0.00    +0.142 C 
BRANCH  11  12
ATOM     12  C   UNL     1       9.940   3.760  23.520  0.00  0.00    +0.005 A 
ATOM     13  C   UNL     1      10.514   5.022  23.683  0.00  0.00    +0.128 A 
ATOM     14  F   UNL     1      11.833   5.134  23.905  0.00  0.00    -0.205 F 
ATOM     15  C   UNL     1       9.745   6.181  23.623  0.00  0.00    +0.038 A 
ATOM     16  C   UNL     1       8.370   6.086  23.404  0.00  0.00    +0.003 A 
ATOM     17  C   UNL     1       7.776   4.833  23.259  0.00  0.00    +0.000 A 
ATOM     18  C   UNL     1       8.555   3.675  23.322  0.00  0.00    +0.008 A 
ENDBRANCH  11  12
ENDBRANCH   8  11
ENDBRANCH   4   7
BRANCH   1  19
ATOM     19  S   UNL     1       6.469  -4.340  22.492  0.00  0.00    +0.056 S 
ATOM     20  O   UNL     1       5.179  -3.826  22.097  0.00  0.00    -0.153 OA
ATOM     21  O   UNL     1       7.277  -5.170  21.630  0.00  0.00    -0.153 OA
BRANCH  19  22
ATOM     22  N   UNL     1       6.189  -5.225  23.889  0.00  0.00    -0.204 NA
ATOM     23  H   UNL     1       6.313  -4.634  24.711  0.00  0.00    +0.144 HD
ATOM     24  H   UNL     1       5.274  -5.672  23.836  0.00  0.00    +0.144 HD
ENDBRANCH  19  22
ENDBRANCH   1  19
TORSDOF 5
ENDMDL
