MODEL 1
REMARK VINA RESULT:      -6.7      0.000      0.000
REMARK  Name = 
REMARK  15 active torsions:
REMARK  status: ('A' for Active; 'I' for Inactive)
REMARK    1  A    between atoms: C_1  and  N_2
REMARK    2  A    between atoms: C_3  and  C_5
REMARK    3  A    between atoms: C_8  and  C_9
REMARK    4  A    between atoms: N_11  and  C_12
REMARK    5  A    between atoms: C_12  and  C_13
REMARK    6  A    between atoms: N_15  and  C_16
REMARK    7  A    between atoms: C_19  and  C_20
REMARK    8  A    between atoms: C_20  and  O_21
REMARK    9  A    between atoms: C_25  and  C_26
REMARK   10  A    between atoms: N_28  and  C_29
REMARK   11  A    between atoms: C_29  and  C_30
REMARK   12  A    between atoms: C_30  and  O_31
REMARK   13  A    between atoms: C_36  and  N_37
REMARK   14  A    between atoms: N_37  and  C_38
REMARK   15  A    between atoms: C_39  and  C_40
REMARK                            x       y       z     vdW  Elec       q    Type
REMARK                         _______ _______ _______ _____ _____    ______ ____
ROOT
ATOM      1  C   UNL     1       7.413   0.167  22.988  0.00  0.00    +0.234 C 
ATOM      2  N   UNL     1       7.989   0.571  24.192  0.00  0.00    -0.282 N 
ATOM      3  H   UNL     1       8.896   0.121  24.329  0.00  0.00    +0.155 HD
ATOM      4  O   UNL     1       6.785   0.914  22.239  0.00  0.00    -0.274 OA
ENDROOT
BRANCH   2   5
ATOM      5  C   UNL     1       7.904   1.946  24.542  0.00  0.00    +0.062 A 
ATOM      6  C   UNL     1       8.918   2.845  24.127  0.00  0.00    +0.049 A 
ATOM      7  I   UNL     1      10.362   2.101  22.698  0.00  0.00    -0.041 I 
ATOM      8  C   UNL     1       8.885   4.196  24.537  0.00  0.00    +0.065 A 
ATOM      9  C   UNL     1       7.823   4.622  25.387  0.00  0.00    +0.042 A 
ATOM     10  I   UNL     1       7.926   6.572  26.335  0.00  0.00    -0.042 I 
ATOM     11  C   UNL     1       6.761   3.744  25.740  0.00  0.00    +0.088 A 
ATOM     12  C   UNL     1       6.804   2.409  25.296  0.00  0.00    +0.051 A 
ATOM     13  I   UNL     1       5.254   1.021  25.767  0.00  0.00    -0.041 I 
BRANCH   8  14
ATOM     14  C   UNL     1       9.856   5.204  24.003  0.00  0.00    +0.246 C 
ATOM     15  N   UNL     1      11.163   5.125  24.436  0.00  0.00    -0.309 N 
ATOM     16  H   UNL     1      11.473   4.293  24.924  0.00  0.00    +0.149 HD
ATOM     17  O   UNL     1       9.481   6.046  23.196  0.00  0.00    -0.270 OA
BRANCH  15  18
ATOM     18  C   UNL     1      12.201   6.008  23.909  0.00  0.00    +0.132 C 
BRANCH  18  19
ATOM     19  C   UNL     1      12.950   5.331  22.765  0.00  0.00    +0.174 C 
BRANCH  19  20
ATOM     20  O   UNL     1      14.315   5.135  23.135  0.00  0.00    -0.393 OA
ATOM     21  H   UNL     1      14.308   4.955  24.091  0.00  0.00    +0.209 HD
ENDBRANCH  19  20
ENDBRANCH  18  19
ENDBRANCH  15  18
ENDBRANCH   8  14
BRANCH  11  22
ATOM     22  C   UNL     1       5.577   4.260  26.486  0.00  0.00    +0.339 C 
ATOM     23  O   UNL     1       5.473   4.177  27.697  0.00  0.00    -0.245 OA
BRANCH  22  24
ATOM     24  O   UNL     1       4.613   4.806  25.715  0.00  0.00    -0.477 OA
ATOM     25  H   UNL     1       3.936   4.188  25.381  0.00  0.00    +0.295 HD
ENDBRANCH  22  24
ENDBRANCH  11  22
ENDBRANCH   2   5
BRANCH   1  26
ATOM     26  C   UNL     1       7.751  -1.272  22.624  0.00  0.00    +0.200 C 
BRANCH  26  28
ATOM     27  C   UNL     1       7.174  -3.380  23.811  0.00  0.00    +0.247 C 
ATOM     28  N   UNL     1       6.786  -2.178  23.251  0.00  0.00    -0.303 N 
ATOM     29  H   UNL     1       5.888  -1.775  23.489  0.00  0.00    +0.150 HD
ATOM     30  O   UNL     1       8.315  -3.782  23.630  0.00  0.00    -0.270 OA
BRANCH  27  37
ATOM     31  C   UNL     1       4.281  -5.741  24.787  0.00  0.00    +0.065 A 
ATOM     32  C   UNL     1       4.051  -5.337  26.131  0.00  0.00    +0.049 A 
ATOM     33  I   UNL     1       2.084  -5.796  26.975  0.00  0.00    -0.041 I 
ATOM     34  C   UNL     1       4.982  -4.516  26.829  0.00  0.00    +0.064 A 
ATOM     35  C   UNL     1       5.954  -3.842  26.025  0.00  0.00    +0.049 A 
ATOM     36  I   UNL     1       6.826  -2.041  26.934  0.00  0.00    -0.041 I 
ATOM     37  C   UNL     1       6.189  -4.180  24.644  0.00  0.00    +0.065 A 
ATOM     38  C   UNL     1       5.387  -5.203  24.070  0.00  0.00    +0.040 A 
ATOM     39  I   UNL     1       5.773  -5.983  22.062  0.00  0.00    -0.042 I 
BRANCH  31  43
ATOM     40  C   UNL     1       1.489  -6.840  22.442  0.00  0.00    +0.128 C 
ATOM     41  N   UNL     1       2.358  -6.047  23.286  0.00  0.00    -0.314 N 
ATOM     42  H   UNL     1       2.434  -5.062  23.068  0.00  0.00    +0.149 HD
ATOM     43  C   UNL     1       3.312  -6.645  24.088  0.00  0.00    +0.246 C 
ATOM     44  O   UNL     1       3.414  -7.858  24.218  0.00  0.00    -0.270 OA
ENDBRANCH  31  43
BRANCH  34  45
ATOM     45  N   UNL     1       4.949  -4.345  28.273  0.00  0.00    -0.273 N 
ATOM     46  C   UNL     1       5.581  -5.143  29.239  0.00  0.00    +0.216 C 
ATOM     47  O   UNL     1       5.431  -4.919  30.454  0.00  0.00    -0.276 OA
ATOM     48  C   UNL     1       6.429  -6.332  28.873  0.00  0.00    +0.109 C 
ATOM     49  C   UNL     1       4.218  -3.224  28.847  0.00  0.00    +0.138 C 
ENDBRANCH  34  45
ENDBRANCH  27  37
ENDBRANCH  26  28
ENDBRANCH   1  26
TORSDOF 12
ENDMDL
MODEL 2
REMARK VINA RESULT:      -6.6      2.459     10.595
REMARK  Name = 
REMARK  15 active torsions:
REMARK  status: ('A' for Active; 'I' for Inactive)
REMARK    1  A    between atoms: C_1  and  N_2
REMARK    2  A    between atoms: C_3  and  C_5
REMARK    3  A    between atoms: C_8  and  C_9
REMARK    4  A    between atoms: N_11  and  C_12
REMARK    5  A    between atoms: C_12  and  C_13
REMARK    6  A    between atoms: N_15  and  C_16
REMARK    7  A    between atoms: C_19  and  C_20
REMARK    8  A    between atoms: C_20  and  O_21
REMARK    9  A    between atoms: C_25  and  C_26
REMARK   10  A    between atoms: N_28  and  C_29
REMARK   11  A    between atoms: C_29  and  C_30
REMARK   12  A    between atoms: C_30  and  O_31
REMARK   13  A    between atoms: C_36  and  N_37
REMARK   14  A    between atoms: N_37  and  C_38
REMARK   15  A    between atoms: C_39  and  C_40
REMARK                            x       y       z     vdW  Elec       q    Type
REMARK                         _______ _______ _______ _____ _____    ______ ____
ROOT
ATOM      1  C   UNL     1       5.943  -4.657  23.588  0.00  0.00    +0.234 C 
ATOM      2  N   UNL     1       5.237  -4.092  24.649  0.00  0.00    -0.282 N 
ATOM      3  H   UNL     1       4.590  -3.376  24.314  0.00  0.00    +0.155 HD
ATOM      4  O   UNL     1       6.223  -5.852  23.502  0.00  0.00    -0.274 OA
ENDROOT
BRANCH   2   5
ATOM      5  C   UNL     1       4.751  -4.963  25.662  0.00  0.00    +0.062 A 
ATOM      6  C   UNL     1       3.452  -5.519  25.552  0.00  0.00    +0.049 A 
ATOM      7  I   UNL     1       2.429  -5.252  23.665  0.00  0.00    -0.041 I 
ATOM      8  C   UNL     1       2.929  -6.320  26.591  0.00  0.00    +0.065 A 
ATOM      9  C   UNL     1       3.729  -6.537  27.750  0.00  0.00    +0.042 A 
ATOM     10  I   UNL     1       2.839  -7.442  29.512  0.00  0.00    -0.042 I 
ATOM     11  C   UNL     1       5.062  -6.048  27.830  0.00  0.00    +0.088 A 
ATOM     12  C   UNL     1       5.569  -5.275  26.769  0.00  0.00    +0.051 A 
ATOM     13  I   UNL     1       7.559  -4.505  26.794  0.00  0.00    -0.041 I 
BRANCH   8  14
ATOM     14  C   UNL     1       1.622  -7.039  26.447  0.00  0.00    +0.246 C 
ATOM     15  N   UNL     1       1.655  -8.345  26.007  0.00  0.00    -0.309 N 
ATOM     16  H   UNL     1       2.539  -8.840  25.992  0.00  0.00    +0.149 HD
ATOM     17  O   UNL     1       0.576  -6.469  26.737  0.00  0.00    -0.270 OA
BRANCH  15  18
ATOM     18  C   UNL     1       0.443  -9.156  25.917  0.00  0.00    +0.132 C 
BRANCH  18  19
ATOM     19  C   UNL     1       0.789 -10.642  25.935  0.00  0.00    +0.174 C 
BRANCH  19  20
ATOM     20  O   UNL     1       2.154 -10.821  25.557  0.00  0.00    -0.393 OA
ATOM     21  H   UNL     1       2.660 -10.829  26.388  0.00  0.00    +0.209 HD
ENDBRANCH  19  20
ENDBRANCH  18  19
ENDBRANCH  15  18
ENDBRANCH   8  14
BRANCH  11  22
ATOM     22  C   UNL     1       5.935  -6.433  28.977  0.00  0.00    +0.339 C 
ATOM     23  O   UNL     1       6.541  -7.488  29.020  0.00  0.00    -0.245 OA
BRANCH  22  24
ATOM     24  O   UNL     1       5.985  -5.530  29.980  0.00  0.00    -0.477 OA
ATOM     25  H   UNL     1       6.677  -4.847  29.902  0.00  0.00    +0.295 HD
ENDBRANCH  22  24
ENDBRANCH  11  22
ENDBRANCH   2   5
BRANCH   1  26
ATOM     26  C   UNL     1       6.225  -3.662  22.469  0.00  0.00    +0.200 C 
BRANCH  26  28
ATOM     27  C   UNL     1       7.016  -1.645  23.691  0.00  0.00    +0.247 C 
ATOM     28  N   UNL     1       6.037  -2.297  22.965  0.00  0.00    -0.303 N 
ATOM     29  H   UNL     1       5.287  -1.768  22.537  0.00  0.00    +0.150 HD
ATOM     30  O   UNL     1       7.990  -2.274  24.079  0.00  0.00    -0.270 OA
BRANCH  27  37
ATOM     31  C   UNL     1       7.752   2.140  23.861  0.00  0.00    +0.065 A 
ATOM     32  C   UNL     1       6.879   2.533  24.913  0.00  0.00    +0.049 A 
ATOM     33  I   UNL     1       7.363   4.400  25.948  0.00  0.00    -0.041 I 
ATOM     34  C   UNL     1       5.853   1.668  25.388  0.00  0.00    +0.064 A 
ATOM     35  C   UNL     1       5.967   0.291  25.016  0.00  0.00    +0.049 A 
ATOM     36  I   UNL     1       4.917  -1.119  26.335  0.00  0.00    -0.041 I 
ATOM     37  C   UNL     1       6.874  -0.164  23.992  0.00  0.00    +0.065 A 
ATOM     38  C   UNL     1       7.702   0.806  23.366  0.00  0.00    +0.040 A 
ATOM     39  I   UNL     1       8.961   0.312  21.645  0.00  0.00    -0.042 I 
BRANCH  31  43
ATOM     40  C   UNL     1      11.178   3.707  23.297  0.00  0.00    +0.128 C 
ATOM     41  N   UNL     1      10.072   2.955  23.854  0.00  0.00    -0.314 N 
ATOM     42  H   UNL     1      10.305   2.152  24.423  0.00  0.00    +0.149 HD
ATOM     43  C   UNL     1       8.793   3.085  23.343  0.00  0.00    +0.246 C 
ATOM     44  O   UNL     1       8.495   3.900  22.480  0.00  0.00    -0.270 OA
ENDBRANCH  31  43
BRANCH  34  45
ATOM     45  N   UNL     1       4.756   2.135  26.221  0.00  0.00    -0.273 N 
ATOM     46  C   UNL     1       4.732   2.231  27.621  0.00  0.00    +0.216 C 
ATOM     47  O   UNL     1       3.706   2.600  28.220  0.00  0.00    -0.276 OA
ATOM     48  C   UNL     1       5.913   1.854  28.474  0.00  0.00    +0.109 C 
ATOM     49  C   UNL     1       3.523   2.593  25.595  0.00  0.00    +0.138 C 
ENDBRANCH  34  45
ENDBRANCH  27  37
ENDBRANCH  26  28
ENDBRANCH   1  26
TORSDOF 12
ENDMDL
MODEL 3
REMARK VINA RESULT:      -6.0      3.029      9.213
REMARK  Name = 
REMARK  15 active torsions:
REMARK  status: ('A' for Active; 'I' for Inactive)
REMARK    1  A    between atoms: C_1  and  N_2
REMARK    2  A    between atoms: C_3  and  C_5
REMARK    3  A    between atoms: C_8  and  C_9
REMARK    4  A    between atoms: N_11  and  C_12
REMARK    5  A    between atoms: C_12  and  C_13
REMARK    6  A    between atoms: N_15  and  C_16
REMARK    7  A    between atoms: C_19  and  C_20
REMARK    8  A    between atoms: C_20  and  O_21
REMARK    9  A    between atoms: C_25  and  C_26
REMARK   10  A    between atoms: N_28  and  C_29
REMARK   11  A    between atoms: C_29  and  C_30
REMARK   12  A    between atoms: C_30  and  O_31
REMARK   13  A    between atoms: C_36  and  N_37
REMARK   14  A    between atoms: N_37  and  C_38
REMARK   15  A    between atoms: C_39  and  C_40
REMARK                            x       y       z     vdW  Elec       q    Type
REMARK                         _______ _______ _______ _____ _____    ______ ____
ROOT
ATOM      1  C   UNL     1       4.186  -2.026  27.383  0.00  0.00    +0.234 C 
ATOM      2  N   UNL     1       3.962  -1.935  26.010  0.00  0.00    -0.282 N 
ATOM      3  H   UNL     1       3.918  -0.958  25.714  0.00  0.00    +0.155 HD
ATOM      4  O   UNL     1       4.915  -2.866  27.909  0.00  0.00    -0.274 OA
ENDROOT
BRANCH   2   5
ATOM      5  C   UNL     1       4.674  -2.825  25.160  0.00  0.00    +0.062 A 
ATOM      6  C   UNL     1       5.932  -2.443  24.631  0.00  0.00    +0.049 A 
ATOM      7  I   UNL     1       6.828  -0.646  25.438  0.00  0.00    -0.041 I 
ATOM      8  C   UNL     1       6.609  -3.285  23.722  0.00  0.00    +0.065 A 
ATOM      9  C   UNL     1       5.989  -4.510  23.340  0.00  0.00    +0.042 A 
ATOM     10  I   UNL     1       6.804  -5.652  21.683  0.00  0.00    -0.042 I 
ATOM     11  C   UNL     1       4.766  -4.934  23.928  0.00  0.00    +0.088 A 
ATOM     12  C   UNL     1       4.124  -4.088  24.852  0.00  0.00    +0.051 A 
ATOM     13  I   UNL     1       2.291  -4.641  25.793  0.00  0.00    -0.041 I 
BRANCH   8  14
ATOM     14  C   UNL     1       8.000  -2.982  23.257  0.00  0.00    +0.246 C 
ATOM     15  N   UNL     1       8.155  -2.014  22.287  0.00  0.00    -0.309 N 
ATOM     16  H   UNL     1       7.375  -1.404  22.069  0.00  0.00    +0.149 HD
ATOM     17  O   UNL     1       8.952  -3.574  23.751  0.00  0.00    -0.270 OA
BRANCH  15  18
ATOM     18  C   UNL     1       9.475  -1.588  21.830  0.00  0.00    +0.132 C 
BRANCH  18  19
ATOM     19  C   UNL     1       9.693  -0.107  22.124  0.00  0.00    +0.174 C 
BRANCH  19  20
ATOM     20  O   UNL     1       9.158   0.678  21.057  0.00  0.00    -0.393 OA
ATOM     21  H   UNL     1       8.192   0.587  21.119  0.00  0.00    +0.209 HD
ENDBRANCH  19  20
ENDBRANCH  18  19
ENDBRANCH  15  18
ENDBRANCH   8  14
BRANCH  11  22
ATOM     22  C   UNL     1       4.226  -6.294  23.639  0.00  0.00    +0.339 C 
ATOM     23  O   UNL     1       4.564  -7.284  24.262  0.00  0.00    -0.245 OA
BRANCH  22  24
ATOM     24  O   UNL     1       3.348  -6.351  22.615  0.00  0.00    -0.477 OA
ATOM     25  H   UNL     1       3.064  -7.246  22.349  0.00  0.00    +0.295 HD
ENDBRANCH  22  24
ENDBRANCH  11  22
ENDBRANCH   2   5
BRANCH   1  26
ATOM     26  C   UNL     1       3.537  -0.892  28.165  0.00  0.00    +0.200 C 
BRANCH  26  28
ATOM     27  C   UNL     1       3.424   1.585  27.968  0.00  0.00    +0.247 C 
ATOM     28  N   UNL     1       3.603   0.345  27.384  0.00  0.00    -0.303 N 
ATOM     29  H   UNL     1       4.039   0.273  26.473  0.00  0.00    +0.150 HD
ATOM     30  O   UNL     1       3.031   1.648  29.124  0.00  0.00    -0.270 OA
BRANCH  27  37
ATOM     31  C   UNL     1       3.204   4.361  25.295  0.00  0.00    +0.065 A 
ATOM     32  C   UNL     1       4.501   4.934  25.401  0.00  0.00    +0.049 A 
ATOM     33  I   UNL     1       5.224   6.061  23.669  0.00  0.00    -0.041 I 
ATOM     34  C   UNL     1       5.357   4.637  26.500  0.00  0.00    +0.064 A 
ATOM     35  C   UNL     1       5.003   3.492  27.282  0.00  0.00    +0.049 A 
ATOM     36  I   UNL     1       6.659   2.588  28.410  0.00  0.00    -0.041 I 
ATOM     37  C   UNL     1       3.720   2.845  27.174  0.00  0.00    +0.065 A 
ATOM     38  C   UNL     1       2.799   3.359  26.223  0.00  0.00    +0.040 A 
ATOM     39  I   UNL     1       0.739   2.632  26.099  0.00  0.00    -0.042 I 
BRANCH  31  43
ATOM     40  C   UNL     1       1.348   4.062  21.983  0.00  0.00    +0.128 C 
ATOM     41  N   UNL     1       2.305   3.887  23.057  0.00  0.00    -0.314 N 
ATOM     42  H   UNL     1       2.775   2.993  23.110  0.00  0.00    +0.149 HD
ATOM     43  C   UNL     1       2.302   4.725  24.156  0.00  0.00    +0.246 C 
ATOM     44  O   UNL     1       1.582   5.712  24.246  0.00  0.00    -0.270 OA
ENDBRANCH  31  43
BRANCH  34  45
ATOM     45  N   UNL     1       6.537   5.427  26.812  0.00  0.00    -0.273 N 
ATOM     46  C   UNL     1       7.835   5.256  26.305  0.00  0.00    +0.216 C 
ATOM     47  O   UNL     1       8.775   5.972  26.695  0.00  0.00    -0.276 OA
ATOM     48  C   UNL     1       8.174   4.179  25.309  0.00  0.00    +0.109 C 
ATOM     49  C   UNL     1       6.425   6.555  27.727  0.00  0.00    +0.138 C 
ENDBRANCH  34  45
ENDBRANCH  27  37
ENDBRANCH  26  28
ENDBRANCH   1  26
TORSDOF 12
ENDMDL
MODEL 4
REMARK VINA RESULT:      -5.9      2.155      4.535
REMARK  Name = 
REMARK  15 active torsions:
REMARK  status: ('A' for Active; 'I' for Inactive)
REMARK    1  A    between atoms: C_1  and  N_2
REMARK    2  A    between atoms: C_3  and  C_5
REMARK    3  A    between atoms: C_8  and  C_9
REMARK    4  A    between atoms: N_11  and  C_12
REMARK    5  A    between atoms: C_12  and  C_13
REMARK    6  A    between atoms: N_15  and  C_16
REMARK    7  A    between atoms: C_19  and  C_20
REMARK    8  A    between atoms: C_20  and  O_21
REMARK    9  A    between atoms: C_25  and  C_26
REMARK   10  A    between atoms: N_28  and  C_29
REMARK   11  A    between atoms: C_29  and  C_30
REMARK   12  A    between atoms: C_30  and  O_31
REMARK   13  A    between atoms: C_36  and  N_37
REMARK   14  A    between atoms: N_37  and  C_38
REMARK   15  A    between atoms: C_39  and  C_40
REMARK                            x       y       z     vdW  Elec       q    Type
REMARK                         _______ _______ _______ _____ _____    ______ ____
ROOT
ATOM      1  C   UNL     1       8.739  -1.164  23.696  0.00  0.00    +0.234 C 
ATOM      2  N   UNL     1       7.713  -0.365  23.194  0.00  0.00    -0.282 N 
ATOM      3  H   UNL     1       6.888  -0.927  22.976  0.00  0.00    +0.155 HD
ATOM      4  O   UNL     1       9.491  -0.829  24.610  0.00  0.00    -0.274 OA
ENDROOT
BRANCH   2   5
ATOM      5  C   UNL     1       7.478   0.889  23.823  0.00  0.00    +0.062 A 
ATOM      6  C   UNL     1       6.475   1.004  24.817  0.00  0.00    +0.049 A 
ATOM      7  I   UNL     1       5.595  -0.837  25.538  0.00  0.00    -0.041 I 
ATOM      8  C   UNL     1       6.179   2.260  25.390  0.00  0.00    +0.065 A 
ATOM      9  C   UNL     1       6.898   3.401  24.932  0.00  0.00    +0.042 A 
ATOM     10  I   UNL     1       6.233   5.387  25.506  0.00  0.00    -0.042 I 
ATOM     11  C   UNL     1       7.959   3.279  23.994  0.00  0.00    +0.088 A 
ATOM     12  C   UNL     1       8.252   2.011  23.458  0.00  0.00    +0.051 A 
ATOM     13  I   UNL     1       9.831   1.726  22.052  0.00  0.00    -0.041 I 
BRANCH   8  14
ATOM     14  C   UNL     1       5.229   2.395  26.541  0.00  0.00    +0.246 C 
ATOM     15  N   UNL     1       3.882   2.470  26.255  0.00  0.00    -0.309 N 
ATOM     16  H   UNL     1       3.560   2.231  25.324  0.00  0.00    +0.149 HD
ATOM     17  O   UNL     1       5.658   2.415  27.688  0.00  0.00    -0.270 OA
BRANCH  15  18
ATOM     18  C   UNL     1       2.873   2.517  27.310  0.00  0.00    +0.132 C 
BRANCH  18  19
ATOM     19  C   UNL     1       1.983   1.280  27.258  0.00  0.00    +0.174 C 
BRANCH  19  20
ATOM     20  O   UNL     1       2.585   0.223  28.006  0.00  0.00    -0.393 OA
ATOM     21  H   UNL     1       2.074  -0.577  27.795  0.00  0.00    +0.209 HD
ENDBRANCH  19  20
ENDBRANCH  18  19
ENDBRANCH  15  18
ENDBRANCH   8  14
BRANCH  11  22
ATOM     22  C   UNL     1       8.807   4.460  23.661  0.00  0.00    +0.339 C 
ATOM     23  O   UNL     1       9.759   4.802  24.338  0.00  0.00    -0.245 OA
BRANCH  22  24
ATOM     24  O   UNL     1       8.423   5.142  22.561  0.00  0.00    -0.477 OA
ATOM     25  H   UNL     1       7.474   5.367  22.510  0.00  0.00    +0.295 HD
ENDBRANCH  22  24
ENDBRANCH  11  22
ENDBRANCH   2   5
BRANCH   1  26
ATOM     26  C   UNL     1       8.755  -2.559  23.085  0.00  0.00    +0.200 C 
BRANCH  26  28
ATOM     27  C   UNL     1       7.537  -4.575  23.883  0.00  0.00    +0.247 C 
ATOM     28  N   UNL     1       7.523  -3.266  23.440  0.00  0.00    -0.303 N 
ATOM     29  H   UNL     1       6.708  -2.687  23.600  0.00  0.00    +0.150 HD
ATOM     30  O   UNL     1       8.576  -5.217  23.814  0.00  0.00    -0.270 OA
BRANCH  27  37
ATOM     31  C   UNL     1       3.971  -6.029  24.137  0.00  0.00    +0.065 A 
ATOM     32  C   UNL     1       3.744  -5.933  25.538  0.00  0.00    +0.049 A 
ATOM     33  I   UNL     1       1.658  -5.926  26.200  0.00  0.00    -0.041 I 
ATOM     34  C   UNL     1       4.810  -5.671  26.446  0.00  0.00    +0.064 A 
ATOM     35  C   UNL     1       6.019  -5.167  25.870  0.00  0.00    +0.049 A 
ATOM     36  I   UNL     1       7.311  -4.048  27.251  0.00  0.00    -0.041 I 
ATOM     37  C   UNL     1       6.274  -5.195  24.451  0.00  0.00    +0.065 A 
ATOM     38  C   UNL     1       5.256  -5.716  23.609  0.00  0.00    +0.040 A 
ATOM     39  I   UNL     1       5.579  -6.034  21.468  0.00  0.00    -0.042 I 
BRANCH  31  43
ATOM     40  C   UNL     1       1.334  -8.087  22.316  0.00  0.00    +0.128 C 
ATOM     41  N   UNL     1       2.511  -7.688  23.060  0.00  0.00    -0.314 N 
ATOM     42  H   UNL     1       2.911  -8.375  23.686  0.00  0.00    +0.149 HD
ATOM     43  C   UNL     1       2.844  -6.354  23.205  0.00  0.00    +0.246 C 
ATOM     44  O   UNL     1       2.246  -5.448  22.639  0.00  0.00    -0.270 OA
ENDBRANCH  31  43
BRANCH  34  45
ATOM     45  N   UNL     1       4.687  -5.877  27.880  0.00  0.00    -0.273 N 
ATOM     46  C   UNL     1       4.201  -4.968  28.832  0.00  0.00    +0.216 C 
ATOM     47  O   UNL     1       4.197  -5.250  30.044  0.00  0.00    -0.276 OA
ATOM     48  C   UNL     1       3.707  -3.596  28.457  0.00  0.00    +0.109 C 
ATOM     49  C   UNL     1       5.070  -7.159  28.457  0.00  0.00    +0.138 C 
ENDBRANCH  34  45
ENDBRANCH  27  37
ENDBRANCH  26  28
ENDBRANCH   1  26
TORSDOF 12
ENDMDL
MODEL 5
REMARK VINA RESULT:      -5.8      2.571      4.881
REMARK  Name = 
REMARK  15 active torsions:
REMARK  status: ('A' for Active; 'I' for Inactive)
REMARK    1  A    between atoms: C_1  and  N_2
REMARK    2  A    between atoms: C_3  and  C_5
REMARK    3  A    between atoms: C_8  and  C_9
REMARK    4  A    between atoms: N_11  and  C_12
REMARK    5  A    between atoms: C_12  and  C_13
REMARK    6  A    between atoms: N_15  and  C_16
REMARK    7  A    between atoms: C_19  and  C_20
REMARK    8  A    between atoms: C_20  and  O_21
REMARK    9  A    between atoms: C_25  and  C_26
REMARK   10  A    between atoms: N_28  and  C_29
REMARK   11  A    between atoms: C_29  and  C_30
REMARK   12  A    between atoms: C_30  and  O_31
REMARK   13  A    between atoms: C_36  and  N_37
REMARK   14  A    between atoms: N_37  and  C_38
REMARK   15  A    between atoms: C_39  and  C_40
REMARK                            x       y       z     vdW  Elec       q    Type
REMARK                         _______ _______ _______ _____ _____    ______ ____
ROOT
ATOM      1  C   UNL     1       5.381   0.961  28.602  0.00  0.00    +0.234 C 
ATOM      2  N   UNL     1       4.771   2.013  27.921  0.00  0.00    -0.282 N 
ATOM      3  H   UNL     1       3.794   2.110  28.203  0.00  0.00    +0.155 HD
ATOM      4  O   UNL     1       6.537   0.988  29.022  0.00  0.00    -0.274 OA
ENDROOT
BRANCH   2   5
ATOM      5  C   UNL     1       5.508   3.218  27.761  0.00  0.00    +0.062 A 
ATOM      6  C   UNL     1       6.277   3.426  26.589  0.00  0.00    +0.049 A 
ATOM      7  I   UNL     1       5.999   2.016  24.972  0.00  0.00    -0.041 I 
ATOM      8  C   UNL     1       7.076   4.583  26.456  0.00  0.00    +0.065 A 
ATOM      9  C   UNL     1       7.103   5.517  27.531  0.00  0.00    +0.042 A 
ATOM     10  I   UNL     1       8.582   7.107  27.534  0.00  0.00    -0.042 I 
ATOM     11  C   UNL     1       6.272   5.352  28.674  0.00  0.00    +0.088 A 
ATOM     12  C   UNL     1       5.465   4.204  28.770  0.00  0.00    +0.051 A 
ATOM     13  I   UNL     1       4.180   3.873  30.441  0.00  0.00    -0.041 I 
BRANCH   8  14
ATOM     14  C   UNL     1       7.787   4.905  25.177  0.00  0.00    +0.246 C 
ATOM     15  N   UNL     1       8.910   4.170  24.865  0.00  0.00    -0.309 N 
ATOM     16  H   UNL     1       9.104   3.320  25.382  0.00  0.00    +0.149 HD
ATOM     17  O   UNL     1       7.352   5.783  24.441  0.00  0.00    -0.270 OA
BRANCH  15  18
ATOM     18  C   UNL     1       9.621   4.351  23.602  0.00  0.00    +0.132 C 
BRANCH  18  19
ATOM     19  C   UNL     1      10.712   3.296  23.444  0.00  0.00    +0.174 C 
BRANCH  19  20
ATOM     20  O   UNL     1      10.729   2.820  22.098  0.00  0.00    -0.393 OA
ATOM     21  H   UNL     1      11.245   3.472  21.593  0.00  0.00    +0.209 HD
ENDBRANCH  19  20
ENDBRANCH  18  19
ENDBRANCH  15  18
ENDBRANCH   8  14
BRANCH  11  22
ATOM     22  C   UNL     1       6.191   6.428  29.704  0.00  0.00    +0.339 C 
ATOM     23  O   UNL     1       7.096   6.665  30.484  0.00  0.00    -0.245 OA
BRANCH  22  24
ATOM     24  O   UNL     1       5.025   7.108  29.725  0.00  0.00    -0.477 OA
ATOM     25  H   UNL     1       4.427   6.903  30.469  0.00  0.00    +0.295 HD
ENDBRANCH  22  24
ENDBRANCH  11  22
ENDBRANCH   2   5
BRANCH   1  26
ATOM     26  C   UNL     1       4.426  -0.188  28.893  0.00  0.00    +0.200 C 
BRANCH  26  28
ATOM     27  C   UNL     1       4.689  -1.393  26.733  0.00  0.00    +0.247 C 
ATOM     28  N   UNL     1       4.814  -1.362  28.109  0.00  0.00    -0.303 N 
ATOM     29  H   UNL     1       5.412  -2.032  28.577  0.00  0.00    +0.150 HD
ATOM     30  O   UNL     1       4.082  -0.492  26.169  0.00  0.00    -0.270 OA
BRANCH  27  37
ATOM     31  C   UNL     1       7.161  -3.437  24.587  0.00  0.00    +0.065 A 
ATOM     32  C   UNL     1       6.301  -4.455  24.089  0.00  0.00    +0.049 A 
ATOM     33  I   UNL     1       6.944  -5.480  22.264  0.00  0.00    -0.041 I 
ATOM     34  C   UNL     1       5.006  -4.668  24.641  0.00  0.00    +0.064 A 
ATOM     35  C   UNL     1       4.486  -3.612  25.454  0.00  0.00    +0.049 A 
ATOM     36  I   UNL     1       2.296  -3.567  25.630  0.00  0.00    -0.041 I 
ATOM     37  C   UNL     1       5.306  -2.531  25.941  0.00  0.00    +0.065 A 
ATOM     38  C   UNL     1       6.673  -2.516  25.558  0.00  0.00    +0.040 A 
ATOM     39  I   UNL     1       8.092  -1.076  26.396  0.00  0.00    -0.042 I 
BRANCH  31  43
ATOM     40  C   UNL     1      10.035  -1.907  22.611  0.00  0.00    +0.128 C 
ATOM     41  N   UNL     1       8.713  -2.262  23.086  0.00  0.00    -0.314 N 
ATOM     42  H   UNL     1       7.974  -1.590  22.927  0.00  0.00    +0.149 HD
ATOM     43  C   UNL     1       8.538  -3.262  24.025  0.00  0.00    +0.246 C 
ATOM     44  O   UNL     1       9.452  -3.971  24.428  0.00  0.00    -0.270 OA
ENDBRANCH  31  43
BRANCH  34  45
ATOM     45  N   UNL     1       4.234  -5.874  24.387  0.00  0.00    -0.273 N 
ATOM     46  C   UNL     1       4.122  -7.003  25.213  0.00  0.00    +0.216 C 
ATOM     47  O   UNL     1       3.466  -7.997  24.854  0.00  0.00    -0.276 OA
ATOM     48  C   UNL     1       4.818  -7.098  26.544  0.00  0.00    +0.109 C 
ATOM     49  C   UNL     1       3.442  -5.977  23.168  0.00  0.00    +0.138 C 
ENDBRANCH  34  45
ENDBRANCH  27  37
ENDBRANCH  26  28
ENDBRANCH   1  26
TORSDOF 12
ENDMDL
MODEL 6
REMARK VINA RESULT:      -5.7      2.939      4.495
REMARK  Name = 
REMARK  15 active torsions:
REMARK  status: ('A' for Active; 'I' for Inactive)
REMARK    1  A    between atoms: C_1  and  N_2
REMARK    2  A    between atoms: C_3  and  C_5
REMARK    3  A    between atoms: C_8  and  C_9
REMARK    4  A    between atoms: N_11  and  C_12
REMARK    5  A    between atoms: C_12  and  C_13
REMARK    6  A    between atoms: N_15  and  C_16
REMARK    7  A    between atoms: C_19  and  C_20
REMARK    8  A    between atoms: C_20  and  O_21
REMARK    9  A    between atoms: C_25  and  C_26
REMARK   10  A    between atoms: N_28  and  C_29
REMARK   11  A    between atoms: C_29  and  C_30
REMARK   12  A    between atoms: C_30  and  O_31
REMARK   13  A    between atoms: C_36  and  N_37
REMARK   14  A    between atoms: N_37  and  C_38
REMARK   15  A    between atoms: C_39  and  C_40
REMARK                            x       y       z     vdW  Elec       q    Type
REMARK                         _______ _______ _______ _____ _____    ______ ____
ROOT
ATOM      1  C   UNL     1       6.103   1.277  27.937  0.00  0.00    +0.234 C 
ATOM      2  N   UNL     1       5.645   2.135  26.938  0.00  0.00    -0.282 N 
ATOM      3  H   UNL     1       4.855   2.691  27.272  0.00  0.00    +0.155 HD
ATOM      4  O   UNL     1       7.289   1.027  28.142  0.00  0.00    -0.274 OA
ENDROOT
BRANCH   2   5
ATOM      5  C   UNL     1       6.613   2.816  26.151  0.00  0.00    +0.062 A 
ATOM      6  C   UNL     1       7.127   2.206  24.980  0.00  0.00    +0.049 A 
ATOM      7  I   UNL     1       6.140   0.405  24.300  0.00  0.00    -0.041 I 
ATOM      8  C   UNL     1       8.147   2.838  24.235  0.00  0.00    +0.065 A 
ATOM      9  C   UNL     1       8.654   4.086  24.701  0.00  0.00    +0.042 A 
ATOM     10  I   UNL     1      10.455   4.911  23.812  0.00  0.00    -0.042 I 
ATOM     11  C   UNL     1       8.086   4.739  25.830  0.00  0.00    +0.088 A 
ATOM     12  C   UNL     1       7.052   4.100  26.539  0.00  0.00    +0.051 A 
ATOM     13  I   UNL     1       6.133   5.004  28.238  0.00  0.00    -0.041 I 
BRANCH   8  14
ATOM     14  C   UNL     1       8.612   2.294  22.919  0.00  0.00    +0.246 C 
ATOM     15  N   UNL     1       9.406   1.167  22.936  0.00  0.00    -0.309 N 
ATOM     16  H   UNL     1       9.482   0.629  23.791  0.00  0.00    +0.149 HD
ATOM     17  O   UNL     1       8.268   2.840  21.877  0.00  0.00    -0.270 OA
BRANCH  15  18
ATOM     18  C   UNL     1       9.838   0.513  21.703  0.00  0.00    +0.132 C 
BRANCH  18  19
ATOM     19  C   UNL     1       9.418  -0.953  21.698  0.00  0.00    +0.174 C 
BRANCH  19  20
ATOM     20  O   UNL     1      10.568  -1.783  21.862  0.00  0.00    -0.393 OA
ATOM     21  H   UNL     1      11.155  -1.305  22.473  0.00  0.00    +0.209 HD
ENDBRANCH  19  20
ENDBRANCH  18  19
ENDBRANCH  15  18
ENDBRANCH   8  14
BRANCH  11  22
ATOM     22  C   UNL     1       8.518   6.120  26.193  0.00  0.00    +0.339 C 
ATOM     23  O   UNL     1       9.361   6.346  27.042  0.00  0.00    -0.245 OA
BRANCH  22  24
ATOM     24  O   UNL     1       7.884   7.108  25.526  0.00  0.00    -0.477 OA
ATOM     25  H   UNL     1       8.213   8.011  25.692  0.00  0.00    +0.295 HD
ENDBRANCH  22  24
ENDBRANCH  11  22
ENDBRANCH   2   5
BRANCH   1  26
ATOM     26  C   UNL     1       4.987   0.775  28.844  0.00  0.00    +0.200 C 
BRANCH  26  28
ATOM     27  C   UNL     1       4.221  -1.143  27.457  0.00  0.00    +0.247 C 
ATOM     28  N   UNL     1       4.781  -0.658  28.624  0.00  0.00    -0.303 N 
ATOM     29  H   UNL     1       5.298  -1.280  29.234  0.00  0.00    +0.150 HD
ATOM     30  O   UNL     1       3.727  -0.357  26.662  0.00  0.00    -0.270 OA
BRANCH  27  37
ATOM     31  C   UNL     1       5.246  -4.598  26.075  0.00  0.00    +0.065 A 
ATOM     32  C   UNL     1       4.038  -5.326  26.260  0.00  0.00    +0.049 A 
ATOM     33  I   UNL     1       3.766  -7.111  25.022  0.00  0.00    -0.041 I 
ATOM     34  C   UNL     1       2.983  -4.820  27.071  0.00  0.00    +0.064 A 
ATOM     35  C   UNL     1       3.047  -3.427  27.392  0.00  0.00    +0.049 A 
ATOM     36  I   UNL     1       1.123  -2.505  27.919  0.00  0.00    -0.041 I 
ATOM     37  C   UNL     1       4.231  -2.634  27.176  0.00  0.00    +0.065 A 
ATOM     38  C   UNL     1       5.355  -3.274  26.589  0.00  0.00    +0.040 A 
ATOM     39  I   UNL     1       7.291  -2.270  26.407  0.00  0.00    -0.042 I 
BRANCH  31  43
ATOM     40  C   UNL     1       7.553  -5.170  23.099  0.00  0.00    +0.128 C 
ATOM     41  N   UNL     1       6.420  -4.804  23.926  0.00  0.00    -0.314 N 
ATOM     42  H   UNL     1       5.827  -4.058  23.585  0.00  0.00    +0.149 HD
ATOM     43  C   UNL     1       6.362  -5.171  25.257  0.00  0.00    +0.246 C 
ATOM     44  O   UNL     1       7.189  -5.902  25.789  0.00  0.00    -0.270 OA
ENDBRANCH  31  43
BRANCH  34  45
ATOM     45  N   UNL     1       1.885  -5.651  27.539  0.00  0.00    -0.273 N 
ATOM     46  C   UNL     1       1.802  -6.346  28.755  0.00  0.00    +0.216 C 
ATOM     47  O   UNL     1       0.823  -7.069  29.015  0.00  0.00    -0.276 OA
ATOM     48  C   UNL     1       2.899  -6.299  29.786  0.00  0.00    +0.109 C 
ATOM     49  C   UNL     1       0.694  -5.801  26.712  0.00  0.00    +0.138 C 
ENDBRANCH  34  45
ENDBRANCH  27  37
ENDBRANCH  26  28
ENDBRANCH   1  26
TORSDOF 12
ENDMDL
MODEL 7
REMARK VINA RESULT:      -5.7      2.481      3.005
REMARK  Name = 
REMARK  15 active torsions:
REMARK  status: ('A' for Active; 'I' for Inactive)
REMARK    1  A    between atoms: C_1  and  N_2
REMARK    2  A    between atoms: C_3  and  C_5
REMARK    3  A    between atoms: C_8  and  C_9
REMARK    4  A    between atoms: N_11  and  C_12
REMARK    5  A    between atoms: C_12  and  C_13
REMARK    6  A    between atoms: N_15  and  C_16
REMARK    7  A    between atoms: C_19  and  C_20
REMARK    8  A    between atoms: C_20  and  O_21
REMARK    9  A    between atoms: C_25  and  C_26
REMARK   10  A    between atoms: N_28  and  C_29
REMARK   11  A    between atoms: C_29  and  C_30
REMARK   12  A    between atoms: C_30  and  O_31
REMARK   13  A    between atoms: C_36  and  N_37
REMARK   14  A    between atoms: N_37  and  C_38
REMARK   15  A    between atoms: C_39  and  C_40
REMARK                            x       y       z     vdW  Elec       q    Type
REMARK                         _______ _______ _______ _____ _____    ______ ____
ROOT
ATOM      1  C   UNL     1       8.054  -1.613  26.082  0.00  0.00    +0.234 C 
ATOM      2  N   UNL     1       6.981  -1.184  25.303  0.00  0.00    -0.282 N 
ATOM      3  H   UNL     1       6.236  -1.884  25.293  0.00  0.00    +0.155 HD
ATOM      4  O   UNL     1       8.707  -0.878  26.822  0.00  0.00    -0.274 OA
ENDROOT
BRANCH   2   5
ATOM      5  C   UNL     1       6.573   0.173  25.421  0.00  0.00    +0.062 A 
ATOM      6  C   UNL     1       7.275   1.185  24.721  0.00  0.00    +0.049 A 
ATOM      7  I   UNL     1       8.724   0.535  23.252  0.00  0.00    -0.041 I 
ATOM      8  C   UNL     1       6.930   2.543  24.895  0.00  0.00    +0.065 A 
ATOM      9  C   UNL     1       5.878   2.866  25.799  0.00  0.00    +0.042 A 
ATOM     10  I   UNL     1       5.557   4.935  26.377  0.00  0.00    -0.042 I 
ATOM     11  C   UNL     1       5.118   1.850  26.443  0.00  0.00    +0.088 A 
ATOM     12  C   UNL     1       5.466   0.502  26.232  0.00  0.00    +0.051 A 
ATOM     13  I   UNL     1       4.381  -1.091  27.146  0.00  0.00    -0.041 I 
BRANCH   8  14
ATOM     14  C   UNL     1       7.552   3.625  24.065  0.00  0.00    +0.246 C 
ATOM     15  N   UNL     1       8.735   4.174  24.512  0.00  0.00    -0.309 N 
ATOM     16  H   UNL     1       9.249   3.708  25.251  0.00  0.00    +0.149 HD
ATOM     17  O   UNL     1       7.017   3.978  23.021  0.00  0.00    -0.270 OA
BRANCH  15  18
ATOM     18  C   UNL     1       9.462   5.172  23.731  0.00  0.00    +0.132 C 
BRANCH  18  19
ATOM     19  C   UNL     1      10.945   4.821  23.658  0.00  0.00    +0.174 C 
BRANCH  19  20
ATOM     20  O   UNL     1      11.126   3.673  22.830  0.00  0.00    -0.393 OA
ATOM     21  H   UNL     1      11.828   3.149  23.252  0.00  0.00    +0.209 HD
ENDBRANCH  19  20
ENDBRANCH  18  19
ENDBRANCH  15  18
ENDBRANCH   8  14
BRANCH  11  22
ATOM     22  C   UNL     1       3.916   2.209  27.249  0.00  0.00    +0.339 C 
ATOM     23  O   UNL     1       2.830   2.441  26.748  0.00  0.00    -0.245 OA
BRANCH  22  24
ATOM     24  O   UNL     1       4.126   2.281  28.581  0.00  0.00    -0.477 OA
ATOM     25  H   UNL     1       3.660   3.002  29.045  0.00  0.00    +0.295 HD
ENDBRANCH  22  24
ENDBRANCH  11  22
ENDBRANCH   2   5
BRANCH   1  26
ATOM     26  C   UNL     1       8.258  -3.121  26.029  0.00  0.00    +0.200 C 
BRANCH  26  28
ATOM     27  C   UNL     1       6.787  -5.126  26.096  0.00  0.00    +0.247 C 
ATOM     28  N   UNL     1       6.971  -3.785  25.814  0.00  0.00    -0.303 N 
ATOM     29  H   UNL     1       6.169  -3.176  25.707  0.00  0.00    +0.150 HD
ATOM     30  O   UNL     1       7.759  -5.817  26.366  0.00  0.00    -0.270 OA
BRANCH  27  37
ATOM     31  C   UNL     1       3.369  -6.386  24.821  0.00  0.00    +0.065 A 
ATOM     32  C   UNL     1       2.623  -6.401  26.032  0.00  0.00    +0.049 A 
ATOM     33  I   UNL     1       0.443  -6.331  25.847  0.00  0.00    -0.041 I 
ATOM     34  C   UNL     1       3.263  -6.282  27.299  0.00  0.00    +0.064 A 
ATOM     35  C   UNL     1       4.610  -5.801  27.282  0.00  0.00    +0.049 A 
ATOM     36  I   UNL     1       5.294  -4.886  29.159  0.00  0.00    -0.041 I 
ATOM     37  C   UNL     1       5.390  -5.719  26.073  0.00  0.00    +0.065 A 
ATOM     38  C   UNL     1       4.764  -6.102  24.857  0.00  0.00    +0.040 A 
ATOM     39  I   UNL     1       5.879  -6.249  22.979  0.00  0.00    -0.042 I 
BRANCH  31  43
ATOM     40  C   UNL     1       1.381  -8.053  22.032  0.00  0.00    +0.128 C 
ATOM     41  N   UNL     1       2.204  -7.824  23.203  0.00  0.00    -0.314 N 
ATOM     42  H   UNL     1       2.186  -8.535  23.921  0.00  0.00    +0.149 HD
ATOM     43  C   UNL     1       2.681  -6.561  23.502  0.00  0.00    +0.246 C 
ATOM     44  O   UNL     1       2.536  -5.596  22.762  0.00  0.00    -0.270 OA
ENDBRANCH  31  43
BRANCH  34  45
ATOM     45  N   UNL     1       2.594  -6.607  28.549  0.00  0.00    -0.273 N 
ATOM     46  C   UNL     1       1.858  -5.740  29.371  0.00  0.00    +0.216 C 
ATOM     47  O   UNL     1       1.376  -6.133  30.449  0.00  0.00    -0.276 OA
ATOM     48  C   UNL     1       1.649  -4.289  29.027  0.00  0.00    +0.109 C 
ATOM     49  C   UNL     1       2.631  -7.975  29.049  0.00  0.00    +0.138 C 
ENDBRANCH  34  45
ENDBRANCH  27  37
ENDBRANCH  26  28
ENDBRANCH   1  26
TORSDOF 12
ENDMDL
MODEL 8
REMARK VINA RESULT:      -5.6      1.203      3.633
REMARK  Name = 
REMARK  15 active torsions:
REMARK  status: ('A' for Active; 'I' for Inactive)
REMARK    1  A    between atoms: C_1  and  N_2
REMARK    2  A    between atoms: C_3  and  C_5
REMARK    3  A    between atoms: C_8  and  C_9
REMARK    4  A    between atoms: N_11  and  C_12
REMARK    5  A    between atoms: C_12  and  C_13
REMARK    6  A    between atoms: N_15  and  C_16
REMARK    7  A    between atoms: C_19  and  C_20
REMARK    8  A    between atoms: C_20  and  O_21
REMARK    9  A    between atoms: C_25  and  C_26
REMARK   10  A    between atoms: N_28  and  C_29
REMARK   11  A    between atoms: C_29  and  C_30
REMARK   12  A    between atoms: C_30  and  O_31
REMARK   13  A    between atoms: C_36  and  N_37
REMARK   14  A    between atoms: N_37  and  C_38
REMARK   15  A    between atoms: C_39  and  C_40
REMARK                            x       y       z     vdW  Elec       q    Type
REMARK                         _______ _______ _______ _____ _____    ______ ____
ROOT
ATOM      1  C   UNL     1       7.165   0.460  23.174  0.00  0.00    +0.234 C 
ATOM      2  N   UNL     1       7.720   0.938  24.360  0.00  0.00    -0.282 N 
ATOM      3  H   UNL     1       8.589   0.446  24.578  0.00  0.00    +0.155 HD
ATOM      4  O   UNL     1       6.618   1.171  22.332  0.00  0.00    -0.274 OA
ENDROOT
BRANCH   2   5
ATOM      5  C   UNL     1       7.716   2.343  24.578  0.00  0.00    +0.062 A 
ATOM      6  C   UNL     1       8.814   3.128  24.149  0.00  0.00    +0.049 A 
ATOM      7  I   UNL     1      10.278   2.157  22.886  0.00  0.00    -0.041 I 
ATOM      8  C   UNL     1       8.856   4.511  24.432  0.00  0.00    +0.065 A 
ATOM      9  C   UNL     1       7.782   5.086  25.171  0.00  0.00    +0.042 A 
ATOM     10  I   UNL     1       7.973   7.106  25.944  0.00  0.00    -0.042 I 
ATOM     11  C   UNL     1       6.641   4.319  25.534  0.00  0.00    +0.088 A 
ATOM     12  C   UNL     1       6.612   2.948  25.217  0.00  0.00    +0.051 A 
ATOM     13  I   UNL     1       4.941   1.717  25.712  0.00  0.00    -0.041 I 
BRANCH   8  14
ATOM     14  C   UNL     1       9.927   5.397  23.871  0.00  0.00    +0.246 C 
ATOM     15  N   UNL     1      11.206   5.243  24.361  0.00  0.00    -0.309 N 
ATOM     16  H   UNL     1      11.429   4.424  24.915  0.00  0.00    +0.149 HD
ATOM     17  O   UNL     1       9.652   6.207  22.995  0.00  0.00    -0.270 OA
BRANCH  15  18
ATOM     18  C   UNL     1      12.333   5.998  23.818  0.00  0.00    +0.132 C 
BRANCH  18  19
ATOM     19  C   UNL     1      12.983   5.239  22.666  0.00  0.00    +0.174 C 
BRANCH  19  20
ATOM     20  O   UNL     1      14.155   5.931  22.236  0.00  0.00    -0.393 OA
ATOM     21  H   UNL     1      13.943   6.294  21.359  0.00  0.00    +0.209 HD
ENDBRANCH  19  20
ENDBRANCH  18  19
ENDBRANCH  15  18
ENDBRANCH   8  14
BRANCH  11  22
ATOM     22  C   UNL     1       5.457   4.981  26.155  0.00  0.00    +0.339 C 
ATOM     23  O   UNL     1       5.270   5.005  27.358  0.00  0.00    -0.245 OA
BRANCH  22  24
ATOM     24  O   UNL     1       4.592   5.535  25.279  0.00  0.00    -0.477 OA
ATOM     25  H   UNL     1       4.607   6.509  25.226  0.00  0.00    +0.295 HD
ENDBRANCH  22  24
ENDBRANCH  11  22
ENDBRANCH   2   5
BRANCH   1  26
ATOM     26  C   UNL     1       7.417  -1.026  22.959  0.00  0.00    +0.200 C 
BRANCH  26  28
ATOM     27  C   UNL     1       6.536  -2.889  24.352  0.00  0.00    +0.247 C 
ATOM     28  N   UNL     1       6.314  -1.801  23.530  0.00  0.00    -0.303 N 
ATOM     29  H   UNL     1       5.404  -1.356  23.515  0.00  0.00    +0.150 HD
ATOM     30  O   UNL     1       7.673  -3.324  24.469  0.00  0.00    -0.270 OA
BRANCH  27  37
ATOM     31  C   UNL     1       4.149  -3.922  27.203  0.00  0.00    +0.065 A 
ATOM     32  C   UNL     1       3.499  -5.040  26.613  0.00  0.00    +0.049 A 
ATOM     33  I   UNL     1       2.572  -6.475  27.981  0.00  0.00    -0.041 I 
ATOM     34  C   UNL     1       3.605  -5.309  25.218  0.00  0.00    +0.064 A 
ATOM     35  C   UNL     1       4.654  -4.630  24.523  0.00  0.00    +0.049 A 
ATOM     36  I   UNL     1       5.314  -5.594  22.662  0.00  0.00    -0.041 I 
ATOM     37  C   UNL     1       5.377  -3.524  25.099  0.00  0.00    +0.065 A 
ATOM     38  C   UNL     1       5.041  -3.133  26.422  0.00  0.00    +0.040 A 
ATOM     39  I   UNL     1       5.886  -1.338  27.346  0.00  0.00    -0.042 I 
BRANCH  31  43
ATOM     40  C   UNL     1       2.555  -2.681  30.432  0.00  0.00    +0.128 C 
ATOM     41  N   UNL     1       2.890  -2.873  29.036  0.00  0.00    -0.314 N 
ATOM     42  H   UNL     1       2.163  -2.679  28.359  0.00  0.00    +0.149 HD
ATOM     43  C   UNL     1       3.985  -3.630  28.663  0.00  0.00    +0.246 C 
ATOM     44  O   UNL     1       4.788  -4.088  29.466  0.00  0.00    -0.270 OA
ENDBRANCH  31  43
BRANCH  34  45
ATOM     45  N   UNL     1       2.719  -6.234  24.528  0.00  0.00    -0.273 N 
ATOM     46  C   UNL     1       1.513  -5.932  23.878  0.00  0.00    +0.216 C 
ATOM     47  O   UNL     1       0.818  -6.829  23.367  0.00  0.00    -0.276 OA
ATOM     48  C   UNL     1       0.968  -4.531  23.803  0.00  0.00    +0.109 C 
ATOM     49  C   UNL     1       3.079  -7.643  24.441  0.00  0.00    +0.138 C 
ENDBRANCH  34  45
ENDBRANCH  27  37
ENDBRANCH  26  28
ENDBRANCH   1  26
TORSDOF 12
ENDMDL
MODEL 9
REMARK VINA RESULT:      -5.5      2.294     10.655
REMARK  Name = 
REMARK  15 active torsions:
REMARK  status: ('A' for Active; 'I' for Inactive)
REMARK    1  A    between atoms: C_1  and  N_2
REMARK    2  A    between atoms: C_3  and  C_5
REMARK    3  A    between atoms: C_8  and  C_9
REMARK    4  A    between atoms: N_11  and  C_12
REMARK    5  A    between atoms: C_12  and  C_13
REMARK    6  A    between atoms: N_15  and  C_16
REMARK    7  A    between atoms: C_19  and  C_20
REMARK    8  A    between atoms: C_20  and  O_21
REMARK    9  A    between atoms: C_25  and  C_26
REMARK   10  A    between atoms: N_28  and  C_29
REMARK   11  A    between atoms: C_29  and  C_30
REMARK   12  A    between atoms: C_30  and  O_31
REMARK   13  A    between atoms: C_36  and  N_37
REMARK   14  A    between atoms: N_37  and  C_38
REMARK   15  A    between atoms: C_39  and  C_40
REMARK                            x       y       z     vdW  Elec       q    Type
REMARK                         _______ _______ _______ _____ _____    ______ ____
ROOT
ATOM      1  C   UNL     1       6.408  -2.340  24.222  0.00  0.00    +0.234 C 
ATOM      2  N   UNL     1       6.302  -3.395  25.127  0.00  0.00    -0.282 N 
ATOM      3  H   UNL     1       6.809  -3.187  25.989  0.00  0.00    +0.155 HD
ATOM      4  O   UNL     1       5.490  -1.954  23.500  0.00  0.00    -0.274 OA
ENDROOT
BRANCH   2   5
ATOM      5  C   UNL     1       5.033  -4.021  25.272  0.00  0.00    +0.062 A 
ATOM      6  C   UNL     1       4.145  -3.591  26.288  0.00  0.00    +0.049 A 
ATOM      7  I   UNL     1       4.667  -1.772  27.339  0.00  0.00    -0.041 I 
ATOM      8  C   UNL     1       2.918  -4.258  26.493  0.00  0.00    +0.065 A 
ATOM      9  C   UNL     1       2.608  -5.378  25.668  0.00  0.00    +0.042 A 
ATOM     10  I   UNL     1       0.925  -6.652  26.178  0.00  0.00    -0.042 I 
ATOM     11  C   UNL     1       3.459  -5.764  24.596  0.00  0.00    +0.088 A 
ATOM     12  C   UNL     1       4.664  -5.065  24.397  0.00  0.00    +0.051 A 
ATOM     13  I   UNL     1       6.001  -5.565  22.810  0.00  0.00    -0.041 I 
BRANCH   8  14
ATOM     14  C   UNL     1       1.894  -3.743  27.458  0.00  0.00    +0.246 C 
ATOM     15  N   UNL     1       2.013  -4.120  28.779  0.00  0.00    -0.309 N 
ATOM     16  H   UNL     1       2.875  -4.549  29.095  0.00  0.00    +0.149 HD
ATOM     17  O   UNL     1       1.004  -2.998  27.066  0.00  0.00    -0.270 OA
BRANCH  15  18
ATOM     18  C   UNL     1       1.116  -3.603  29.810  0.00  0.00    +0.132 C 
BRANCH  18  19
ATOM     19  C   UNL     1       1.722  -2.375  30.481  0.00  0.00    +0.174 C 
BRANCH  19  20
ATOM     20  O   UNL     1       1.540  -1.232  29.646  0.00  0.00    -0.393 OA
ATOM     21  H   UNL     1       1.140  -1.565  28.824  0.00  0.00    +0.209 HD
ENDBRANCH  19  20
ENDBRANCH  18  19
ENDBRANCH  15  18
ENDBRANCH   8  14
BRANCH  11  22
ATOM     22  C   UNL     1       3.030  -6.829  23.644  0.00  0.00    +0.339 C 
ATOM     23  O   UNL     1       2.360  -6.599  22.654  0.00  0.00    -0.245 OA
BRANCH  22  24
ATOM     24  O   UNL     1       3.421  -8.078  23.975  0.00  0.00    -0.477 OA
ATOM     25  H   UNL     1       3.243  -8.348  24.896  0.00  0.00    +0.295 HD
ENDBRANCH  22  24
ENDBRANCH  11  22
ENDBRANCH   2   5
BRANCH   1  26
ATOM     26  C   UNL     1       7.747  -1.619  24.310  0.00  0.00    +0.200 C 
BRANCH  26  28
ATOM     27  C   UNL     1       8.445   0.585  25.230  0.00  0.00    +0.247 C 
ATOM     28  N   UNL     1       7.522  -0.192  24.556  0.00  0.00    -0.303 N 
ATOM     29  H   UNL     1       6.804   0.248  23.993  0.00  0.00    +0.150 HD
ATOM     30  O   UNL     1       9.389   0.041  25.786  0.00  0.00    -0.270 OA
BRANCH  27  37
ATOM     31  C   UNL     1       9.027   4.345  24.585  0.00  0.00    +0.065 A 
ATOM     32  C   UNL     1       8.293   4.916  25.661  0.00  0.00    +0.049 A 
ATOM     33  I   UNL     1       8.833   6.954  26.251  0.00  0.00    -0.041 I 
ATOM     34  C   UNL     1       7.383   4.138  26.434  0.00  0.00    +0.064 A 
ATOM     35  C   UNL     1       7.506   2.718  26.311  0.00  0.00    +0.049 A 
ATOM     36  I   UNL     1       6.715   1.567  28.008  0.00  0.00    -0.041 I 
ATOM     37  C   UNL     1       8.280   2.093  25.268  0.00  0.00    +0.065 A 
ATOM     38  C   UNL     1       8.968   2.940  24.359  0.00  0.00    +0.040 A 
ATOM     39  I   UNL     1       9.994   2.150  22.595  0.00  0.00    -0.042 I 
BRANCH  31  43
ATOM     40  C   UNL     1      12.260   5.662  23.062  0.00  0.00    +0.128 C 
ATOM     41  N   UNL     1      11.301   5.014  23.933  0.00  0.00    -0.314 N 
ATOM     42  H   UNL     1      11.636   4.231  24.480  0.00  0.00    +0.149 HD
ATOM     43  C   UNL     1       9.942   5.192  23.755  0.00  0.00    +0.246 C 
ATOM     44  O   UNL     1       9.469   5.974  22.939  0.00  0.00    -0.270 OA
ENDBRANCH  31  43
BRANCH  34  45
ATOM     45  N   UNL     1       6.394   4.736  27.317  0.00  0.00    -0.273 N 
ATOM     46  C   UNL     1       5.060   5.049  27.013  0.00  0.00    +0.216 C 
ATOM     47  O   UNL     1       4.327   5.609  27.848  0.00  0.00    -0.276 OA
ATOM     48  C   UNL     1       4.457   4.774  25.661  0.00  0.00    +0.109 C 
ATOM     49  C   UNL     1       6.755   5.046  28.694  0.00  0.00    +0.138 C 
ENDBRANCH  34  45
ENDBRANCH  27  37
ENDBRANCH  26  28
ENDBRANCH   1  26
TORSDOF 12
ENDMDL
