MODEL 1
REMARK VINA RESULT:      -5.8      0.000      0.000
REMARK  Name = 
REMARK  16 active torsions:
REMARK  status: ('A' for Active; 'I' for Inactive)
REMARK    1  A    between atoms: CG1_1  and  CB_2
REMARK    2  A    between atoms: CB_2  and  CA_4
REMARK    3  A    between atoms: CA_4  and  N_6
REMARK    4  A    between atoms: CA_4  and  C_25
REMARK    5  A    between atoms: C_7  and  C_9
REMARK    6  A    between atoms: C_9  and  C_11
REMARK    7  A    between atoms: C_9  and  N_13
REMARK    8  A    between atoms: C_11  and  S_12
REMARK    9  A    between atoms: C_14  and  C_16
REMARK   10  A    between atoms: C_16  and  C_17
REMARK   11  A    between atoms: C_17  and  C_18
REMARK   12  A    between atoms: C_18  and  C_19
REMARK   13  A    between atoms: C_19  and  N_21
REMARK   14  A    between atoms: C_19  and  C_22
REMARK   15  A    between atoms: C_22  and  O_23
REMARK   16  A    between atoms: C_25  and  O_26
REMARK                            x       y       z     vdW  Elec       q    Type
REMARK                         _______ _______ _______ _____ _____    ______ ____
ROOT
ATOM      1  C   UNK A   1       9.128  -2.248  24.523  0.00  0.00    +0.168 C 
ENDROOT
BRANCH   1   4
ATOM      2  N   VAL A   2       7.421  -3.822  23.729  0.00  0.00    -0.298 N 
ATOM      3  H   VAL A   2       6.899  -2.982  23.498  0.00  0.00    +0.150 HD
ATOM      4  C   UNK A   1       8.685  -3.693  24.243  0.00  0.00    +0.235 C 
ATOM      5  O   UNK A   1       9.416  -4.656  24.455  0.00  0.00    -0.274 OA
BRANCH   2   6
ATOM      6  CA  VAL A   2       6.844  -5.095  23.346  0.00  0.00    +0.208 C 
BRANCH   6   8
ATOM      7  CG1 VAL A   2       5.580  -4.587  25.553  0.00  0.00    +0.041 C 
ATOM      8  CB  VAL A   2       5.721  -5.423  24.306  0.00  0.00    -0.049 C 
ATOM      9  CG2 VAL A   2       4.874  -6.444  24.073  0.00  0.00    +0.010 C 
ENDBRANCH   6   8
BRANCH   6  10
ATOM     10  C   VAL A   2       6.349  -5.018  21.887  0.00  0.00    +0.330 C 
ATOM     11  OXT VAL A   2       5.597  -4.146  21.462  0.00  0.00    -0.249 OA
BRANCH  10  12
ATOM     12  O   VAL A   2       6.791  -6.030  21.101  0.00  0.00    -0.479 OA
ATOM     13  H   VAL A   2       7.426  -5.748  20.414  0.00  0.00    +0.295 HD
ENDBRANCH  10  12
ENDBRANCH   6  10
ENDBRANCH   2   6
ENDBRANCH   1   4
BRANCH   1  14
ATOM     14  N   UNK A   1       8.819  -1.377  23.383  0.00  0.00    -0.303 N 
ATOM     15  H   UNK A   1       7.853  -1.100  23.226  0.00  0.00    +0.149 HD
ATOM     16  C   UNK A   1       9.703  -1.316  22.330  0.00  0.00    +0.214 C 
ATOM     17  O   UNK A   1      10.799  -1.872  22.377  0.00  0.00    -0.276 OA
BRANCH  16  18
ATOM     18  C   UNK A   1       9.254  -0.485  21.147  0.00  0.00    +0.096 C 
BRANCH  18  19
ATOM     19  C   UNK A   1       8.877   0.911  21.642  0.00  0.00    +0.011 C 
BRANCH  19  20
ATOM     20  C   UNK A   1      10.076   1.807  21.961  0.00  0.00    +0.030 C 
BRANCH  20  21
ATOM     21  C   UNK A   1       9.847   2.699  23.194  0.00  0.00    +0.161 C 
BRANCH  21  22
ATOM     22  N   UNK A   1      10.911   3.733  23.325  0.00  0.00    -0.318 NA
ATOM     23  H   UNK A   1      11.605   3.390  23.996  0.00  0.00    +0.119 HD
ATOM     24  H   UNK A   1      11.419   3.783  22.436  0.00  0.00    +0.119 HD
ENDBRANCH  21  22
BRANCH  21  25
ATOM     25  C   UNK A   1       9.820   1.854  24.479  0.00  0.00    +0.322 C 
ATOM     26  O   UNK A   1      10.619   0.972  24.753  0.00  0.00    -0.249 OA
BRANCH  25  27
ATOM     27  O   UNK A   1       8.804   2.231  25.300  0.00  0.00    -0.480 OA
ATOM     28  H   UNK A   1       8.007   2.352  24.728  0.00  0.00    +0.295 HD
ENDBRANCH  25  27
ENDBRANCH  21  25
ENDBRANCH  20  21
ENDBRANCH  19  20
ENDBRANCH  18  19
ENDBRANCH  16  18
ENDBRANCH   1  14
BRANCH   1  29
ATOM     29  C   UNK A   1       8.576  -1.721  25.863  0.00  0.00    +0.097 C 
BRANCH  29  30
ATOM     30  S   UNK A   1       6.977  -0.834  25.739  0.00  0.00    -0.176 S 
ATOM     31  H   UNK A   1       6.724  -0.811  27.057  0.00  0.00    +0.102 HD
ENDBRANCH  29  30
ENDBRANCH   1  29
TORSDOF 15
ENDMDL
MODEL 2
REMARK VINA RESULT:      -5.6      1.850      2.687
REMARK  Name = 
REMARK  16 active torsions:
REMARK  status: ('A' for Active; 'I' for Inactive)
REMARK    1  A    between atoms: CG1_1  and  CB_2
REMARK    2  A    between atoms: CB_2  and  CA_4
REMARK    3  A    between atoms: CA_4  and  N_6
REMARK    4  A    between atoms: CA_4  and  C_25
REMARK    5  A    between atoms: C_7  and  C_9
REMARK    6  A    between atoms: C_9  and  C_11
REMARK    7  A    between atoms: C_9  and  N_13
REMARK    8  A    between atoms: C_11  and  S_12
REMARK    9  A    between atoms: C_14  and  C_16
REMARK   10  A    between atoms: C_16  and  C_17
REMARK   11  A    between atoms: C_17  and  C_18
REMARK   12  A    between atoms: C_18  and  C_19
REMARK   13  A    between atoms: C_19  and  N_21
REMARK   14  A    between atoms: C_19  and  C_22
REMARK   15  A    between atoms: C_22  and  O_23
REMARK   16  A    between atoms: C_25  and  O_26
REMARK                            x       y       z     vdW  Elec       q    Type
REMARK                         _______ _______ _______ _____ _____    ______ ____
ROOT
ATOM      1  C   UNK A   1       9.349  -1.322  25.211  0.00  0.00    +0.168 C 
ENDROOT
BRANCH   1   4
ATOM      2  N   VAL A   2       7.888  -2.732  23.834  0.00  0.00    -0.298 N 
ATOM      3  H   VAL A   2       7.155  -2.405  24.455  0.00  0.00    +0.150 HD
ATOM      4  C   UNK A   1       9.158  -2.245  23.996  0.00  0.00    +0.235 C 
ATOM      5  O   UNK A   1      10.076  -2.515  23.227  0.00  0.00    -0.274 OA
BRANCH   2   6
ATOM      6  CA  VAL A   2       7.495  -3.571  22.719  0.00  0.00    +0.208 C 
BRANCH   6   8
ATOM      7  CG1 VAL A   2       6.982  -5.196  24.674  0.00  0.00    +0.041 C 
ATOM      8  CB  VAL A   2       7.323  -4.989  23.220  0.00  0.00    -0.049 C 
ATOM      9  CG2 VAL A   2       7.486  -6.047  22.403  0.00  0.00    +0.010 C 
ENDBRANCH   6   8
BRANCH   6  10
ATOM     10  C   VAL A   2       6.195  -3.022  22.093  0.00  0.00    +0.330 C 
ATOM     11  OXT VAL A   2       5.624  -3.535  21.137  0.00  0.00    -0.249 OA
BRANCH  10  12
ATOM     12  O   VAL A   2       5.743  -1.884  22.674  0.00  0.00    -0.479 OA
ATOM     13  H   VAL A   2       6.396  -1.157  22.680  0.00  0.00    +0.295 HD
ENDBRANCH  10  12
ENDBRANCH   6  10
ENDBRANCH   2   6
ENDBRANCH   1   4
BRANCH   1  14
ATOM     14  N   UNK A   1       9.160   0.084  24.833  0.00  0.00    -0.303 N 
ATOM     15  H   UNK A   1       8.255   0.376  24.473  0.00  0.00    +0.149 HD
ATOM     16  C   UNK A   1      10.265   0.853  24.549  0.00  0.00    +0.214 C 
ATOM     17  O   UNK A   1      11.407   0.430  24.726  0.00  0.00    -0.276 OA
BRANCH  16  18
ATOM     18  C   UNK A   1       9.976   2.256  24.057  0.00  0.00    +0.096 C 
BRANCH  18  19
ATOM     19  C   UNK A   1      10.112   2.281  22.535  0.00  0.00    +0.011 C 
BRANCH  19  20
ATOM     20  C   UNK A   1       9.054   1.456  21.798  0.00  0.00    +0.030 C 
BRANCH  20  21
ATOM     21  C   UNK A   1       7.711   2.192  21.657  0.00  0.00    +0.161 C 
BRANCH  21  22
ATOM     22  N   UNK A   1       7.849   3.643  21.969  0.00  0.00    -0.318 NA
ATOM     23  H   UNK A   1       7.332   3.832  22.832  0.00  0.00    +0.119 HD
ATOM     24  H   UNK A   1       8.828   3.826  22.212  0.00  0.00    +0.119 HD
ENDBRANCH  21  22
BRANCH  21  25
ATOM     25  C   UNK A   1       6.657   1.585  22.598  0.00  0.00    +0.322 C 
ATOM     26  O   UNK A   1       6.848   0.639  23.346  0.00  0.00    -0.249 OA
BRANCH  25  27
ATOM     27  O   UNK A   1       5.477   2.255  22.520  0.00  0.00    -0.480 OA
ATOM     28  H   UNK A   1       5.093   2.263  23.432  0.00  0.00    +0.295 HD
ENDBRANCH  25  27
ENDBRANCH  21  25
ENDBRANCH  20  21
ENDBRANCH  19  20
ENDBRANCH  18  19
ENDBRANCH  16  18
ENDBRANCH   1  14
BRANCH   1  29
ATOM     29  C   UNK A   1       8.482  -1.756  26.411  0.00  0.00    +0.097 C 
BRANCH  29  30
ATOM     30  S   UNK A   1       7.205  -0.541  26.914  0.00  0.00    -0.176 S 
ATOM     31  H   UNK A   1       7.900  -0.020  27.937  0.00  0.00    +0.102 HD
ENDBRANCH  29  30
ENDBRANCH   1  29
TORSDOF 15
ENDMDL
MODEL 3
REMARK VINA RESULT:      -5.6      1.957      2.288
REMARK  Name = 
REMARK  16 active torsions:
REMARK  status: ('A' for Active; 'I' for Inactive)
REMARK    1  A    between atoms: CG1_1  and  CB_2
REMARK    2  A    between atoms: CB_2  and  CA_4
REMARK    3  A    between atoms: CA_4  and  N_6
REMARK    4  A    between atoms: CA_4  and  C_25
REMARK    5  A    between atoms: C_7  and  C_9
REMARK    6  A    between atoms: C_9  and  C_11
REMARK    7  A    between atoms: C_9  and  N_13
REMARK    8  A    between atoms: C_11  and  S_12
REMARK    9  A    between atoms: C_14  and  C_16
REMARK   10  A    between atoms: C_16  and  C_17
REMARK   11  A    between atoms: C_17  and  C_18
REMARK   12  A    between atoms: C_18  and  C_19
REMARK   13  A    between atoms: C_19  and  N_21
REMARK   14  A    between atoms: C_19  and  C_22
REMARK   15  A    between atoms: C_22  and  O_23
REMARK   16  A    between atoms: C_25  and  O_26
REMARK                            x       y       z     vdW  Elec       q    Type
REMARK                         _______ _______ _______ _____ _____    ______ ____
ROOT
ATOM      1  C   UNK A   1       8.791  -2.821  24.528  0.00  0.00    +0.168 C 
ENDROOT
BRANCH   1   4
ATOM      2  N   VAL A   2       6.899  -4.185  23.768  0.00  0.00    -0.298 N 
ATOM      3  H   VAL A   2       6.408  -3.297  23.721  0.00  0.00    +0.150 HD
ATOM      4  C   UNK A   1       8.223  -4.190  24.122  0.00  0.00    +0.235 C 
ATOM      5  O   UNK A   1       8.909  -5.207  24.106  0.00  0.00    -0.274 OA
BRANCH   2   6
ATOM      6  CA  VAL A   2       6.195  -5.363  23.301  0.00  0.00    +0.208 C 
BRANCH   6   8
ATOM      7  CG1 VAL A   2       4.102  -4.289  24.392  0.00  0.00    +0.041 C 
ATOM      8  CB  VAL A   2       4.927  -5.520  24.111  0.00  0.00    -0.049 C 
ATOM      9  CG2 VAL A   2       4.543  -6.718  24.590  0.00  0.00    +0.010 C 
ENDBRANCH   6   8
BRANCH   6  10
ATOM     10  C   VAL A   2       5.900  -5.223  21.793  0.00  0.00    +0.330 C 
ATOM     11  OXT VAL A   2       5.775  -4.149  21.215  0.00  0.00    -0.249 OA
BRANCH  10  12
ATOM     12  O   VAL A   2       5.753  -6.407  21.149  0.00  0.00    -0.479 OA
ATOM     13  H   VAL A   2       6.091  -7.174  21.650  0.00  0.00    +0.295 HD
ENDBRANCH  10  12
ENDBRANCH   6  10
ENDBRANCH   2   6
ENDBRANCH   1   4
BRANCH   1  14
ATOM     14  N   UNK A   1       8.667  -1.856  23.428  0.00  0.00    -0.303 N 
ATOM     15  H   UNK A   1       7.736  -1.580  23.123  0.00  0.00    +0.149 HD
ATOM     16  C   UNK A   1       9.723  -1.690  22.562  0.00  0.00    +0.214 C 
ATOM     17  O   UNK A   1      10.809  -2.233  22.761  0.00  0.00    -0.276 OA
BRANCH  16  18
ATOM     18  C   UNK A   1       9.469  -0.764  21.392  0.00  0.00    +0.096 C 
BRANCH  18  19
ATOM     19  C   UNK A   1       9.527   0.681  21.888  0.00  0.00    +0.011 C 
BRANCH  19  20
ATOM     20  C   UNK A   1       8.290   1.513  21.539  0.00  0.00    +0.030 C 
BRANCH  20  21
ATOM     21  C   UNK A   1       7.298   1.631  22.709  0.00  0.00    +0.161 C 
BRANCH  21  22
ATOM     22  N   UNK A   1       6.511   0.377  22.886  0.00  0.00    -0.318 NA
ATOM     23  H   UNK A   1       6.462  -0.096  21.979  0.00  0.00    +0.119 HD
ATOM     24  H   UNK A   1       7.055  -0.260  23.477  0.00  0.00    +0.119 HD
ENDBRANCH  21  22
BRANCH  21  25
ATOM     25  C   UNK A   1       6.321   2.796  22.478  0.00  0.00    +0.322 C 
ATOM     26  O   UNK A   1       6.643   3.921  22.129  0.00  0.00    -0.249 OA
BRANCH  25  27
ATOM     27  O   UNK A   1       5.033   2.412  22.681  0.00  0.00    -0.480 OA
ATOM     28  H   UNK A   1       4.505   3.240  22.799  0.00  0.00    +0.295 HD
ENDBRANCH  25  27
ENDBRANCH  21  25
ENDBRANCH  20  21
ENDBRANCH  19  20
ENDBRANCH  18  19
ENDBRANCH  16  18
ENDBRANCH   1  14
BRANCH   1  29
ATOM     29  C   UNK A   1       8.194  -2.315  25.857  0.00  0.00    +0.097 C 
BRANCH  29  30
ATOM     30  S   UNK A   1       8.631  -0.588  26.287  0.00  0.00    -0.176 S 
ATOM     31  H   UNK A   1       7.493  -0.037  25.838  0.00  0.00    +0.102 HD
ENDBRANCH  29  30
ENDBRANCH   1  29
TORSDOF 15
ENDMDL
MODEL 4
REMARK VINA RESULT:      -5.5      2.040      7.245
REMARK  Name = 
REMARK  16 active torsions:
REMARK  status: ('A' for Active; 'I' for Inactive)
REMARK    1  A    between atoms: CG1_1  and  CB_2
REMARK    2  A    between atoms: CB_2  and  CA_4
REMARK    3  A    between atoms: CA_4  and  N_6
REMARK    4  A    between atoms: CA_4  and  C_25
REMARK    5  A    between atoms: C_7  and  C_9
REMARK    6  A    between atoms: C_9  and  C_11
REMARK    7  A    between atoms: C_9  and  N_13
REMARK    8  A    between atoms: C_11  and  S_12
REMARK    9  A    between atoms: C_14  and  C_16
REMARK   10  A    between atoms: C_16  and  C_17
REMARK   11  A    between atoms: C_17  and  C_18
REMARK   12  A    between atoms: C_18  and  C_19
REMARK   13  A    between atoms: C_19  and  N_21
REMARK   14  A    between atoms: C_19  and  C_22
REMARK   15  A    between atoms: C_22  and  O_23
REMARK   16  A    between atoms: C_25  and  O_26
REMARK                            x       y       z     vdW  Elec       q    Type
REMARK                         _______ _______ _______ _____ _____    ______ ____
ROOT
ATOM      1  C   UNK A   1       7.876  -2.921  24.495  0.00  0.00    +0.168 C 
ENDROOT
BRANCH   1   4
ATOM      2  N   VAL A   2       9.167  -0.970  23.754  0.00  0.00    -0.298 N 
ATOM      3  H   VAL A   2       8.314  -0.456  23.954  0.00  0.00    +0.150 HD
ATOM      4  C   UNK A   1       9.206  -2.314  24.019  0.00  0.00    +0.235 C 
ATOM      5  O   UNK A   1      10.227  -2.984  23.897  0.00  0.00    -0.274 OA
BRANCH   2   6
ATOM      6  CA  VAL A   2      10.329  -0.205  23.349  0.00  0.00    +0.208 C 
BRANCH   6   8
ATOM      7  CG1 VAL A   2       9.124   0.158  21.082  0.00  0.00    +0.041 C 
ATOM      8  CB  VAL A   2       9.927   0.725  22.225  0.00  0.00    -0.049 C 
ATOM      9  CG2 VAL A   2      10.284   2.023  22.226  0.00  0.00    +0.010 C 
ENDBRANCH   6   8
BRANCH   6  10
ATOM     10  C   VAL A   2      10.885   0.569  24.564  0.00  0.00    +0.330 C 
ATOM     11  OXT VAL A   2      12.062   0.887  24.693  0.00  0.00    -0.249 OA
BRANCH  10  12
ATOM     12  O   VAL A   2       9.958   0.845  25.512  0.00  0.00    -0.479 OA
ATOM     13  H   VAL A   2      10.110   1.690  25.979  0.00  0.00    +0.295 HD
ENDBRANCH  10  12
ENDBRANCH   6  10
ENDBRANCH   2   6
ENDBRANCH   1   4
BRANCH   1  14
ATOM     14  N   UNK A   1       7.669  -4.251  23.908  0.00  0.00    -0.303 N 
ATOM     15  H   UNK A   1       8.163  -5.044  24.309  0.00  0.00    +0.149 HD
ATOM     16  C   UNK A   1       7.203  -4.346  22.617  0.00  0.00    +0.214 C 
ATOM     17  O   UNK A   1       6.836  -3.353  21.990  0.00  0.00    -0.276 OA
BRANCH  16  18
ATOM     18  C   UNK A   1       7.127  -5.749  22.051  0.00  0.00    +0.096 C 
BRANCH  18  19
ATOM     19  C   UNK A   1       5.666  -6.077  21.746  0.00  0.00    +0.011 C 
BRANCH  19  20
ATOM     20  C   UNK A   1       4.711  -5.831  22.917  0.00  0.00    +0.030 C 
BRANCH  20  21
ATOM     21  C   UNK A   1       4.858  -6.874  24.039  0.00  0.00    +0.161 C 
BRANCH  21  22
ATOM     22  N   UNK A   1       3.647  -7.736  24.144  0.00  0.00    -0.318 NA
ATOM     23  H   UNK A   1       3.900  -8.677  23.828  0.00  0.00    +0.119 HD
ATOM     24  H   UNK A   1       3.423  -7.852  25.137  0.00  0.00    +0.119 HD
ENDBRANCH  21  22
BRANCH  21  25
ATOM     25  C   UNK A   1       5.091  -6.185  25.394  0.00  0.00    +0.322 C 
ATOM     26  O   UNK A   1       5.417  -6.756  26.422  0.00  0.00    -0.249 OA
BRANCH  25  27
ATOM     27  O   UNK A   1       4.918  -4.840  25.303  0.00  0.00    -0.480 OA
ATOM     28  H   UNK A   1       5.083  -4.595  24.359  0.00  0.00    +0.295 HD
ENDBRANCH  25  27
ENDBRANCH  21  25
ENDBRANCH  20  21
ENDBRANCH  19  20
ENDBRANCH  18  19
ENDBRANCH  16  18
ENDBRANCH   1  14
BRANCH   1  29
ATOM     29  C   UNK A   1       7.746  -2.902  26.031  0.00  0.00    +0.097 C 
BRANCH  29  30
ATOM     30  S   UNK A   1       6.804  -1.481  26.704  0.00  0.00    -0.176 S 
ATOM     31  H   UNK A   1       6.494  -2.057  27.875  0.00  0.00    +0.102 HD
ENDBRANCH  29  30
ENDBRANCH   1  29
TORSDOF 15
ENDMDL
MODEL 5
REMARK VINA RESULT:      -5.5      2.549      3.654
REMARK  Name = 
REMARK  16 active torsions:
REMARK  status: ('A' for Active; 'I' for Inactive)
REMARK    1  A    between atoms: CG1_1  and  CB_2
REMARK    2  A    between atoms: CB_2  and  CA_4
REMARK    3  A    between atoms: CA_4  and  N_6
REMARK    4  A    between atoms: CA_4  and  C_25
REMARK    5  A    between atoms: C_7  and  C_9
REMARK    6  A    between atoms: C_9  and  C_11
REMARK    7  A    between atoms: C_9  and  N_13
REMARK    8  A    between atoms: C_11  and  S_12
REMARK    9  A    between atoms: C_14  and  C_16
REMARK   10  A    between atoms: C_16  and  C_17
REMARK   11  A    between atoms: C_17  and  C_18
REMARK   12  A    between atoms: C_18  and  C_19
REMARK   13  A    between atoms: C_19  and  N_21
REMARK   14  A    between atoms: C_19  and  C_22
REMARK   15  A    between atoms: C_22  and  O_23
REMARK   16  A    between atoms: C_25  and  O_26
REMARK                            x       y       z     vdW  Elec       q    Type
REMARK                         _______ _______ _______ _____ _____    ______ ____
ROOT
ATOM      1  C   UNK A   1       6.953  -3.541  22.774  0.00  0.00    +0.168 C 
ENDROOT
BRANCH   1   4
ATOM      2  N   VAL A   2       6.595  -4.633  24.941  0.00  0.00    -0.298 N 
ATOM      3  H   VAL A   2       7.112  -5.402  24.525  0.00  0.00    +0.150 HD
ATOM      4  C   UNK A   1       6.425  -3.483  24.217  0.00  0.00    +0.235 C 
ATOM      5  O   UNK A   1       5.899  -2.478  24.684  0.00  0.00    -0.274 OA
BRANCH   2   6
ATOM      6  CA  VAL A   2       6.217  -4.760  26.335  0.00  0.00    +0.208 C 
BRANCH   6   8
ATOM      7  CG1 VAL A   2       4.671  -6.743  25.700  0.00  0.00    +0.041 C 
ATOM      8  CB  VAL A   2       4.859  -5.424  26.406  0.00  0.00    -0.049 C 
ATOM      9  CG2 VAL A   2       3.832  -4.855  27.065  0.00  0.00    +0.010 C 
ENDBRANCH   6   8
BRANCH   6  10
ATOM     10  C   VAL A   2       7.292  -5.568  27.091  0.00  0.00    +0.330 C 
ATOM     11  OXT VAL A   2       7.139  -6.028  28.217  0.00  0.00    -0.249 OA
BRANCH  10  12
ATOM     12  O   VAL A   2       8.458  -5.703  26.412  0.00  0.00    -0.479 OA
ATOM     13  H   VAL A   2       8.830  -4.857  26.095  0.00  0.00    +0.295 HD
ENDBRANCH  10  12
ENDBRANCH   6  10
ENDBRANCH   2   6
ENDBRANCH   1   4
BRANCH   1  14
ATOM     14  N   UNK A   1       8.026  -2.559  22.571  0.00  0.00    -0.303 N 
ATOM     15  H   UNK A   1       8.073  -2.062  21.685  0.00  0.00    +0.149 HD
ATOM     16  C   UNK A   1       9.161  -2.641  23.344  0.00  0.00    +0.214 C 
ATOM     17  O   UNK A   1       9.245  -3.432  24.282  0.00  0.00    -0.276 OA
BRANCH  16  18
ATOM     18  C   UNK A   1      10.263  -1.663  22.993  0.00  0.00    +0.096 C 
BRANCH  18  19
ATOM     19  C   UNK A   1       9.851  -0.889  21.741  0.00  0.00    +0.011 C 
BRANCH  19  20
ATOM     20  C   UNK A   1       9.829   0.631  21.924  0.00  0.00    +0.030 C 
BRANCH  20  21
ATOM     21  C   UNK A   1       8.410   1.222  21.860  0.00  0.00    +0.161 C 
BRANCH  21  22
ATOM     22  N   UNK A   1       8.443   2.704  21.705  0.00  0.00    -0.318 NA
ATOM     23  H   UNK A   1       8.381   2.918  20.706  0.00  0.00    +0.119 HD
ATOM     24  H   UNK A   1       7.578   3.085  22.102  0.00  0.00    +0.119 HD
ENDBRANCH  21  22
BRANCH  21  25
ATOM     25  C   UNK A   1       7.620   0.877  23.133  0.00  0.00    +0.322 C 
ATOM     26  O   UNK A   1       7.878   1.293  24.251  0.00  0.00    -0.249 OA
BRANCH  25  27
ATOM     27  O   UNK A   1       6.564   0.066  22.858  0.00  0.00    -0.480 OA
ATOM     28  H   UNK A   1       6.545  -0.626  23.565  0.00  0.00    +0.295 HD
ENDBRANCH  25  27
ENDBRANCH  21  25
ENDBRANCH  20  21
ENDBRANCH  19  20
ENDBRANCH  18  19
ENDBRANCH  16  18
ENDBRANCH   1  14
BRANCH   1  29
ATOM     29  C   UNK A   1       7.345  -4.972  22.356  0.00  0.00    +0.097 C 
BRANCH  29  30
ATOM     30  S   UNK A   1       6.102  -5.836  21.322  0.00  0.00    -0.176 S 
ATOM     31  H   UNK A   1       6.985  -6.446  20.517  0.00  0.00    +0.102 HD
ENDBRANCH  29  30
ENDBRANCH   1  29
TORSDOF 15
ENDMDL
MODEL 6
REMARK VINA RESULT:      -5.5      2.867      6.664
REMARK  Name = 
REMARK  16 active torsions:
REMARK  status: ('A' for Active; 'I' for Inactive)
REMARK    1  A    between atoms: CG1_1  and  CB_2
REMARK    2  A    between atoms: CB_2  and  CA_4
REMARK    3  A    between atoms: CA_4  and  N_6
REMARK    4  A    between atoms: CA_4  and  C_25
REMARK    5  A    between atoms: C_7  and  C_9
REMARK    6  A    between atoms: C_9  and  C_11
REMARK    7  A    between atoms: C_9  and  N_13
REMARK    8  A    between atoms: C_11  and  S_12
REMARK    9  A    between atoms: C_14  and  C_16
REMARK   10  A    between atoms: C_16  and  C_17
REMARK   11  A    between atoms: C_17  and  C_18
REMARK   12  A    between atoms: C_18  and  C_19
REMARK   13  A    between atoms: C_19  and  N_21
REMARK   14  A    between atoms: C_19  and  C_22
REMARK   15  A    between atoms: C_22  and  O_23
REMARK   16  A    between atoms: C_25  and  O_26
REMARK                            x       y       z     vdW  Elec       q    Type
REMARK                         _______ _______ _______ _____ _____    ______ ____
ROOT
ATOM      1  C   UNK A   1       7.586  -2.991  22.732  0.00  0.00    +0.168 C 
ENDROOT
BRANCH   1   4
ATOM      2  N   VAL A   2       8.329  -0.663  22.949  0.00  0.00    -0.298 N 
ATOM      3  H   VAL A   2       9.156  -0.987  22.456  0.00  0.00    +0.150 HD
ATOM      4  C   UNK A   1       7.304  -1.544  23.170  0.00  0.00    +0.235 C 
ATOM      5  O   UNK A   1       6.235  -1.206  23.669  0.00  0.00    -0.274 OA
BRANCH   2   6
ATOM      6  CA  VAL A   2       8.237   0.754  23.240  0.00  0.00    +0.208 C 
BRANCH   6   8
ATOM      7  CG1 VAL A   2      10.190   0.123  24.825  0.00  0.00    +0.041 C 
ATOM      8  CB  VAL A   2       9.472   1.169  24.011  0.00  0.00    -0.049 C 
ATOM      9  CG2 VAL A   2       9.917   2.439  23.993  0.00  0.00    +0.010 C 
ENDBRANCH   6   8
BRANCH   6  10
ATOM     10  C   VAL A   2       8.090   1.543  21.922  0.00  0.00    +0.330 C 
ATOM     11  OXT VAL A   2       7.256   2.423  21.739  0.00  0.00    -0.249 OA
BRANCH  10  12
ATOM     12  O   VAL A   2       8.951   1.156  20.950  0.00  0.00    -0.479 OA
ATOM     13  H   VAL A   2       9.699   0.618  21.276  0.00  0.00    +0.295 HD
ENDBRANCH  10  12
ENDBRANCH   6  10
ENDBRANCH   2   6
ENDBRANCH   1   4
BRANCH   1  14
ATOM     14  N   UNK A   1       7.886  -3.839  23.892  0.00  0.00    -0.303 N 
ATOM     15  H   UNK A   1       7.116  -4.154  24.479  0.00  0.00    +0.149 HD
ATOM     16  C   UNK A   1       9.157  -3.826  24.419  0.00  0.00    +0.214 C 
ATOM     17  O   UNK A   1      10.076  -3.223  23.867  0.00  0.00    -0.276 OA
BRANCH  16  18
ATOM     18  C   UNK A   1       9.349  -4.639  25.682  0.00  0.00    +0.096 C 
BRANCH  18  19
ATOM     19  C   UNK A   1       8.281  -4.231  26.696  0.00  0.00    +0.011 C 
BRANCH  19  20
ATOM     20  C   UNK A   1       7.391  -5.385  27.166  0.00  0.00    +0.030 C 
BRANCH  20  21
ATOM     21  C   UNK A   1       5.962  -5.306  26.602  0.00  0.00    +0.161 C 
BRANCH  21  22
ATOM     22  N   UNK A   1       5.911  -5.750  25.180  0.00  0.00    -0.318 NA
ATOM     23  H   UNK A   1       5.971  -4.918  24.587  0.00  0.00    +0.119 HD
ATOM     24  H   UNK A   1       6.770  -6.271  24.978  0.00  0.00    +0.119 HD
ENDBRANCH  21  22
BRANCH  21  25
ATOM     25  C   UNK A   1       5.420  -3.869  26.689  0.00  0.00    +0.322 C 
ATOM     26  O   UNK A   1       5.185  -3.272  27.728  0.00  0.00    -0.249 OA
BRANCH  25  27
ATOM     27  O   UNK A   1       5.262  -3.323  25.455  0.00  0.00    -0.480 OA
ATOM     28  H   UNK A   1       4.398  -3.653  25.106  0.00  0.00    +0.295 HD
ENDBRANCH  25  27
ENDBRANCH  21  25
ENDBRANCH  20  21
ENDBRANCH  19  20
ENDBRANCH  18  19
ENDBRANCH  16  18
ENDBRANCH   1  14
BRANCH   1  29
ATOM     29  C   UNK A   1       6.467  -3.555  21.833  0.00  0.00    +0.097 C 
BRANCH  29  30
ATOM     30  S   UNK A   1       6.566  -5.359  21.525  0.00  0.00    -0.176 S 
ATOM     31  H   UNK A   1       7.857  -5.369  21.157  0.00  0.00    +0.102 HD
ENDBRANCH  29  30
ENDBRANCH   1  29
TORSDOF 15
ENDMDL
MODEL 7
REMARK VINA RESULT:      -5.4      2.652      6.555
REMARK  Name = 
REMARK  16 active torsions:
REMARK  status: ('A' for Active; 'I' for Inactive)
REMARK    1  A    between atoms: CG1_1  and  CB_2
REMARK    2  A    between atoms: CB_2  and  CA_4
REMARK    3  A    between atoms: CA_4  and  N_6
REMARK    4  A    between atoms: CA_4  and  C_25
REMARK    5  A    between atoms: C_7  and  C_9
REMARK    6  A    between atoms: C_9  and  C_11
REMARK    7  A    between atoms: C_9  and  N_13
REMARK    8  A    between atoms: C_11  and  S_12
REMARK    9  A    between atoms: C_14  and  C_16
REMARK   10  A    between atoms: C_16  and  C_17
REMARK   11  A    between atoms: C_17  and  C_18
REMARK   12  A    between atoms: C_18  and  C_19
REMARK   13  A    between atoms: C_19  and  N_21
REMARK   14  A    between atoms: C_19  and  C_22
REMARK   15  A    between atoms: C_22  and  O_23
REMARK   16  A    between atoms: C_25  and  O_26
REMARK                            x       y       z     vdW  Elec       q    Type
REMARK                         _______ _______ _______ _____ _____    ______ ____
ROOT
ATOM      1  C   UNK A   1       5.800  -0.912  24.908  0.00  0.00    +0.168 C 
ENDROOT
BRANCH   1   4
ATOM      2  N   VAL A   2       7.969  -0.300  23.939  0.00  0.00    -0.298 N 
ATOM      3  H   VAL A   2       8.161   0.079  24.861  0.00  0.00    +0.150 HD
ATOM      4  C   UNK A   1       6.779  -0.945  23.723  0.00  0.00    +0.235 C 
ATOM      5  O   UNK A   1       6.516  -1.514  22.669  0.00  0.00    -0.274 OA
BRANCH   2   6
ATOM      6  CA  VAL A   2       9.044  -0.268  22.966  0.00  0.00    +0.208 C 
BRANCH   6   8
ATOM      7  CG1 VAL A   2      10.066   1.951  22.096  0.00  0.00    +0.041 C 
ATOM      8  CB  VAL A   2       9.886   0.963  23.221  0.00  0.00    -0.049 C 
ATOM      9  CG2 VAL A   2      10.481   1.175  24.410  0.00  0.00    +0.010 C 
ENDBRANCH   6   8
BRANCH   6  10
ATOM     10  C   VAL A   2       9.874  -1.564  23.072  0.00  0.00    +0.330 C 
ATOM     11  OXT VAL A   2       9.924  -2.267  24.075  0.00  0.00    -0.249 OA
BRANCH  10  12
ATOM     12  O   VAL A   2      10.587  -1.853  21.956  0.00  0.00    -0.479 OA
ATOM     13  H   VAL A   2      10.835  -1.068  21.431  0.00  0.00    +0.295 HD
ENDBRANCH  10  12
ENDBRANCH   6  10
ENDBRANCH   2   6
ENDBRANCH   1   4
BRANCH   1  14
ATOM     14  N   UNK A   1       5.866  -2.163  25.674  0.00  0.00    -0.303 N 
ATOM     15  H   UNK A   1       6.765  -2.463  26.043  0.00  0.00    +0.149 HD
ATOM     16  C   UNK A   1       4.872  -3.100  25.510  0.00  0.00    +0.214 C 
ATOM     17  O   UNK A   1       3.869  -2.864  24.838  0.00  0.00    -0.276 OA
BRANCH  16  18
ATOM     18  C   UNK A   1       5.077  -4.406  26.249  0.00  0.00    +0.096 C 
BRANCH  18  19
ATOM     19  C   UNK A   1       6.164  -4.208  27.305  0.00  0.00    +0.011 C 
BRANCH  19  20
ATOM     20  C   UNK A   1       7.297  -5.235  27.237  0.00  0.00    +0.030 C 
BRANCH  20  21
ATOM     21  C   UNK A   1       8.577  -4.674  26.595  0.00  0.00    +0.161 C 
BRANCH  21  22
ATOM     22  N   UNK A   1       8.536  -3.187  26.505  0.00  0.00    -0.318 NA
ATOM     23  H   UNK A   1       8.852  -2.807  27.401  0.00  0.00    +0.119 HD
ATOM     24  H   UNK A   1       9.252  -2.888  25.834  0.00  0.00    +0.119 HD
ENDBRANCH  21  22
BRANCH  21  25
ATOM     25  C   UNK A   1       8.772  -5.248  25.181  0.00  0.00    +0.322 C 
ATOM     26  O   UNK A   1       8.022  -5.055  24.238  0.00  0.00    -0.249 OA
BRANCH  25  27
ATOM     27  O   UNK A   1       9.914  -5.981  25.096  0.00  0.00    -0.480 OA
ATOM     28  H   UNK A   1       9.990  -6.280  24.156  0.00  0.00    +0.295 HD
ENDBRANCH  25  27
ENDBRANCH  21  25
ENDBRANCH  20  21
ENDBRANCH  19  20
ENDBRANCH  18  19
ENDBRANCH  16  18
ENDBRANCH   1  14
BRANCH   1  29
ATOM     29  C   UNK A   1       5.981   0.349  25.776  0.00  0.00    +0.097 C 
BRANCH  29  30
ATOM     30  S   UNK A   1       5.179   1.858  25.114  0.00  0.00    -0.176 S 
ATOM     31  H   UNK A   1       5.691   2.702  26.022  0.00  0.00    +0.102 HD
ENDBRANCH  29  30
ENDBRANCH   1  29
TORSDOF 15
ENDMDL
MODEL 8
REMARK VINA RESULT:      -5.2      2.263      6.700
REMARK  Name = 
REMARK  16 active torsions:
REMARK  status: ('A' for Active; 'I' for Inactive)
REMARK    1  A    between atoms: CG1_1  and  CB_2
REMARK    2  A    between atoms: CB_2  and  CA_4
REMARK    3  A    between atoms: CA_4  and  N_6
REMARK    4  A    between atoms: CA_4  and  C_25
REMARK    5  A    between atoms: C_7  and  C_9
REMARK    6  A    between atoms: C_9  and  C_11
REMARK    7  A    between atoms: C_9  and  N_13
REMARK    8  A    between atoms: C_11  and  S_12
REMARK    9  A    between atoms: C_14  and  C_16
REMARK   10  A    between atoms: C_16  and  C_17
REMARK   11  A    between atoms: C_17  and  C_18
REMARK   12  A    between atoms: C_18  and  C_19
REMARK   13  A    between atoms: C_19  and  N_21
REMARK   14  A    between atoms: C_19  and  C_22
REMARK   15  A    between atoms: C_22  and  O_23
REMARK   16  A    between atoms: C_25  and  O_26
REMARK                            x       y       z     vdW  Elec       q    Type
REMARK                         _______ _______ _______ _____ _____    ______ ____
ROOT
ATOM      1  C   UNK A   1       7.072  -1.567  25.773  0.00  0.00    +0.168 C 
ENDROOT
BRANCH   1   4
ATOM      2  N   VAL A   2       8.458  -0.361  24.148  0.00  0.00    -0.298 N 
ATOM      3  H   VAL A   2       8.962  -1.240  24.077  0.00  0.00    +0.150 HD
ATOM      4  C   UNK A   1       7.354  -0.295  24.957  0.00  0.00    +0.235 C 
ATOM      5  O   UNK A   1       6.637   0.699  25.021  0.00  0.00    -0.274 OA
BRANCH   2   6
ATOM      6  CA  VAL A   2       8.858   0.713  23.260  0.00  0.00    +0.208 C 
BRANCH   6   8
ATOM      7  CG1 VAL A   2      10.986   0.534  24.732  0.00  0.00    +0.041 C 
ATOM      8  CB  VAL A   2      10.115   1.351  23.810  0.00  0.00    -0.049 C 
ATOM      9  CG2 VAL A   2      10.449   2.619  23.508  0.00  0.00    +0.010 C 
ENDBRANCH   6   8
BRANCH   6  10
ATOM     10  C   VAL A   2       9.074   0.152  21.838  0.00  0.00    +0.330 C 
ATOM     11  OXT VAL A   2       9.435  -0.995  21.601  0.00  0.00    -0.249 OA
BRANCH  10  12
ATOM     12  O   VAL A   2       8.862   1.057  20.851  0.00  0.00    -0.479 OA
ATOM     13  H   VAL A   2       8.009   0.942  20.387  0.00  0.00    +0.295 HD
ENDBRANCH  10  12
ENDBRANCH   6  10
ENDBRANCH   2   6
ENDBRANCH   1   4
BRANCH   1  14
ATOM     14  N   UNK A   1       6.310  -2.539  24.979  0.00  0.00    -0.303 N 
ATOM     15  H   UNK A   1       6.700  -2.860  24.096  0.00  0.00    +0.149 HD
ATOM     16  C   UNK A   1       4.955  -2.655  25.185  0.00  0.00    +0.214 C 
ATOM     17  O   UNK A   1       4.390  -2.060  26.102  0.00  0.00    -0.276 OA
BRANCH  16  18
ATOM     18  C   UNK A   1       4.229  -3.596  24.246  0.00  0.00    +0.096 C 
BRANCH  18  19
ATOM     19  C   UNK A   1       4.808  -5.000  24.414  0.00  0.00    +0.011 C 
BRANCH  19  20
ATOM     20  C   UNK A   1       5.179  -5.685  23.096  0.00  0.00    +0.030 C 
BRANCH  20  21
ATOM     21  C   UNK A   1       5.993  -4.777  22.158  0.00  0.00    +0.161 C 
BRANCH  21  22
ATOM     22  N   UNK A   1       6.036  -5.324  20.772  0.00  0.00    -0.318 NA
ATOM     23  H   UNK A   1       5.473  -4.714  20.173  0.00  0.00    +0.119 HD
ATOM     24  H   UNK A   1       6.992  -5.219  20.417  0.00  0.00    +0.119 HD
ENDBRANCH  21  22
BRANCH  21  25
ATOM     25  C   UNK A   1       7.435  -4.618  22.670  0.00  0.00    +0.322 C 
ATOM     26  O   UNK A   1       8.143  -5.532  23.060  0.00  0.00    -0.249 OA
BRANCH  25  27
ATOM     27  O   UNK A   1       7.844  -3.324  22.606  0.00  0.00    -0.480 OA
ATOM     28  H   UNK A   1       7.148  -2.783  23.056  0.00  0.00    +0.295 HD
ENDBRANCH  25  27
ENDBRANCH  21  25
ENDBRANCH  20  21
ENDBRANCH  19  20
ENDBRANCH  18  19
ENDBRANCH  16  18
ENDBRANCH   1  14
BRANCH   1  29
ATOM     29  C   UNK A   1       8.355  -2.155  26.395  0.00  0.00    +0.097 C 
BRANCH  29  30
ATOM     30  S   UNK A   1       8.449  -3.985  26.373  0.00  0.00    -0.176 S 
ATOM     31  H   UNK A   1       7.127  -4.195  26.275  0.00  0.00    +0.102 HD
ENDBRANCH  29  30
ENDBRANCH   1  29
TORSDOF 15
ENDMDL
MODEL 9
REMARK VINA RESULT:      -5.2      2.564      7.706
REMARK  Name = 
REMARK  16 active torsions:
REMARK  status: ('A' for Active; 'I' for Inactive)
REMARK    1  A    between atoms: CG1_1  and  CB_2
REMARK    2  A    between atoms: CB_2  and  CA_4
REMARK    3  A    between atoms: CA_4  and  N_6
REMARK    4  A    between atoms: CA_4  and  C_25
REMARK    5  A    between atoms: C_7  and  C_9
REMARK    6  A    between atoms: C_9  and  C_11
REMARK    7  A    between atoms: C_9  and  N_13
REMARK    8  A    between atoms: C_11  and  S_12
REMARK    9  A    between atoms: C_14  and  C_16
REMARK   10  A    between atoms: C_16  and  C_17
REMARK   11  A    between atoms: C_17  and  C_18
REMARK   12  A    between atoms: C_18  and  C_19
REMARK   13  A    between atoms: C_19  and  N_21
REMARK   14  A    between atoms: C_19  and  C_22
REMARK   15  A    between atoms: C_22  and  O_23
REMARK   16  A    between atoms: C_25  and  O_26
REMARK                            x       y       z     vdW  Elec       q    Type
REMARK                         _______ _______ _______ _____ _____    ______ ____
ROOT
ATOM      1  C   UNK A   1       7.559  -4.218  24.107  0.00  0.00    +0.168 C 
ENDROOT
BRANCH   1   4
ATOM      2  N   VAL A   2       8.442  -1.943  23.847  0.00  0.00    -0.298 N 
ATOM      3  H   VAL A   2       7.463  -1.675  23.815  0.00  0.00    +0.150 HD
ATOM      4  C   UNK A   1       8.761  -3.259  24.058  0.00  0.00    +0.235 C 
ATOM      5  O   UNK A   1       9.915  -3.646  24.208  0.00  0.00    -0.274 OA
BRANCH   2   6
ATOM      6  CA  VAL A   2       9.427  -0.880  23.825  0.00  0.00    +0.208 C 
BRANCH   6   8
ATOM      7  CG1 VAL A   2       7.541   0.573  22.795  0.00  0.00    +0.041 C 
ATOM      8  CB  VAL A   2       8.991   0.159  22.815  0.00  0.00    -0.049 C 
ATOM      9  CG2 VAL A   2       9.862   0.695  21.939  0.00  0.00    +0.010 C 
ENDBRANCH   6   8
BRANCH   6  10
ATOM     10  C   VAL A   2       9.570  -0.281  25.240  0.00  0.00    +0.330 C 
ATOM     11  OXT VAL A   2       8.818  -0.539  26.174  0.00  0.00    -0.249 OA
BRANCH  10  12
ATOM     12  O   VAL A   2      10.594   0.599  25.365  0.00  0.00    -0.479 OA
ATOM     13  H   VAL A   2      10.321   1.479  25.689  0.00  0.00    +0.295 HD
ENDBRANCH  10  12
ENDBRANCH   6  10
ENDBRANCH   2   6
ENDBRANCH   1   4
BRANCH   1  14
ATOM     14  N   UNK A   1       6.635  -3.842  25.183  0.00  0.00    -0.303 N 
ATOM     15  H   UNK A   1       6.576  -2.864  25.458  0.00  0.00    +0.149 HD
ATOM     16  C   UNK A   1       6.218  -4.805  26.073  0.00  0.00    +0.214 C 
ATOM     17  O   UNK A   1       6.499  -5.992  25.914  0.00  0.00    -0.276 OA
BRANCH  16  18
ATOM     18  C   UNK A   1       5.358  -4.309  27.217  0.00  0.00    +0.096 C 
BRANCH  18  19
ATOM     19  C   UNK A   1       4.050  -5.098  27.226  0.00  0.00    +0.011 C 
BRANCH  19  20
ATOM     20  C   UNK A   1       3.240  -4.983  25.932  0.00  0.00    +0.030 C 
BRANCH  20  21
ATOM     21  C   UNK A   1       3.030  -6.338  25.234  0.00  0.00    +0.161 C 
BRANCH  21  22
ATOM     22  N   UNK A   1       3.577  -7.461  26.046  0.00  0.00    -0.318 NA
ATOM     23  H   UNK A   1       4.364  -7.868  25.533  0.00  0.00    +0.119 HD
ATOM     24  H   UNK A   1       4.001  -7.066  26.892  0.00  0.00    +0.119 HD
ENDBRANCH  21  22
BRANCH  21  25
ATOM     25  C   UNK A   1       3.710  -6.350  23.854  0.00  0.00    +0.322 C 
ATOM     26  O   UNK A   1       3.483  -5.556  22.955  0.00  0.00    -0.249 OA
BRANCH  25  27
ATOM     27  O   UNK A   1       4.629  -7.347  23.763  0.00  0.00    -0.480 OA
ATOM     28  H   UNK A   1       4.378  -7.895  22.979  0.00  0.00    +0.295 HD
ENDBRANCH  25  27
ENDBRANCH  21  25
ENDBRANCH  20  21
ENDBRANCH  19  20
ENDBRANCH  18  19
ENDBRANCH  16  18
ENDBRANCH   1  14
BRANCH   1  29
ATOM     29  C   UNK A   1       6.875  -4.361  22.732  0.00  0.00    +0.097 C 
BRANCH  29  30
ATOM     30  S   UNK A   1       7.172  -5.962  21.891  0.00  0.00    -0.176 S 
ATOM     31  H   UNK A   1       6.987  -5.503  20.643  0.00  0.00    +0.102 HD
ENDBRANCH  29  30
ENDBRANCH   1  29
TORSDOF 15
ENDMDL
