MODEL 1
REMARK VINA RESULT:      -6.7      0.000      0.000
REMARK  Name = 
REMARK  7 active torsions:
REMARK  status: ('A' for Active; 'I' for Inactive)
REMARK    1  A    between atoms: C_1  and  O_2
REMARK    2  A    between atoms: O_2  and  C_3
REMARK    3  A    between atoms: C_5  and  O_6
REMARK    4  A    between atoms: O_6  and  C_7
REMARK    5  A    between atoms: C_8  and  C_9
REMARK    6  A    between atoms: C_20  and  O_21
REMARK    7  A    between atoms: O_21  and  C_22
REMARK                            x       y       z     vdW  Elec       q    Type
REMARK                         _______ _______ _______ _____ _____    ______ ____
ROOT
ATOM      1  C   UNL     1       5.853  -4.842  22.574  0.00  0.00    +0.127 A 
ATOM      2  C   UNL     1       5.249  -3.735  23.150  0.00  0.00    +0.092 A 
ATOM      3  C   UNL     1       5.937  -2.955  24.093  0.00  0.00    +0.134 A 
ATOM      4  C   UNL     1       7.272  -3.291  24.475  0.00  0.00    +0.059 A 
ATOM      5  C   UNL     1       7.870  -4.428  23.904  0.00  0.00    +0.134 A 
ATOM      6  C   UNL     1       7.151  -5.173  22.950  0.00  0.00    +0.092 A 
ENDROOT
BRANCH   4   7
ATOM      7  C   UNL     1       7.934  -2.407  25.454  0.00  0.00    +0.029 C 
ATOM      8  C   UNL     1       8.692  -1.338  25.164  0.00  0.00    +0.047 C 
ATOM      9  C   UNL     1       9.119  -0.754  23.894  0.00  0.00    +0.008 A 
ATOM     10  C   UNL     1       9.474   0.568  24.189  0.00  0.00    +0.042 A 
ATOM     11  C   UNL     1       9.832   1.475  23.211  0.00  0.00    +0.024 A 
ATOM     12  C   UNL     1       9.890   1.008  21.898  0.00  0.00    +0.002 A 
ATOM     13  C   UNL     1       9.642  -0.347  21.604  0.00  0.00    +0.001 A 
ATOM     14  N   UNL     1       9.434   0.791  25.564  0.00  0.00    -0.281 N 
ATOM     15  H   UNL     1       9.704   1.643  26.032  0.00  0.00    +0.155 HD
ATOM     16  C   UNL     1       9.256  -1.242  22.610  0.00  0.00    +0.010 A 
ATOM     17  C   UNL     1       9.030  -0.349  26.246  0.00  0.00    +0.249 C 
ATOM     18  O   UNL     1       8.955  -0.501  27.450  0.00  0.00    -0.270 OA
ENDBRANCH   4   7
BRANCH   1  20
ATOM     19  C   UNL     1       6.102  -6.012  20.517  0.00  0.00    +0.277 C 
ATOM     20  O   UNL     1       5.290  -5.661  21.631  0.00  0.00    -0.495 OA
ENDBRANCH   1  20
BRANCH   3  21
ATOM     21  O   UNL     1       5.366  -1.880  24.735  0.00  0.00    -0.494 OA
ATOM     22  C   UNL     1       4.449  -2.156  25.790  0.00  0.00    +0.277 C 
ENDBRANCH   3  21
BRANCH   5  23
ATOM     23  O   UNL     1       9.110  -4.972  24.113  0.00  0.00    -0.494 OA
ATOM     24  C   UNL     1       9.464  -5.492  25.380  0.00  0.00    +0.277 C 
ENDBRANCH   5  23
TORSDOF 4
ENDMDL
MODEL 2
REMARK VINA RESULT:      -6.5      0.340      2.523
REMARK  Name = 
REMARK  7 active torsions:
REMARK  status: ('A' for Active; 'I' for Inactive)
REMARK    1  A    between atoms: C_1  and  O_2
REMARK    2  A    between atoms: O_2  and  C_3
REMARK    3  A    between atoms: C_5  and  O_6
REMARK    4  A    between atoms: O_6  and  C_7
REMARK    5  A    between atoms: C_8  and  C_9
REMARK    6  A    between atoms: C_20  and  O_21
REMARK    7  A    between atoms: O_21  and  C_22
REMARK                            x       y       z     vdW  Elec       q    Type
REMARK                         _______ _______ _______ _____ _____    ______ ____
ROOT
ATOM      1  C   UNL     1       6.290  -5.191  22.671  0.00  0.00    +0.127 A 
ATOM      2  C   UNL     1       7.611  -5.290  23.081  0.00  0.00    +0.092 A 
ATOM      3  C   UNL     1       8.149  -4.366  23.991  0.00  0.00    +0.134 A 
ATOM      4  C   UNL     1       7.341  -3.306  24.509  0.00  0.00    +0.059 A 
ATOM      5  C   UNL     1       6.010  -3.198  24.072  0.00  0.00    +0.134 A 
ATOM      6  C   UNL     1       5.506  -4.156  23.172  0.00  0.00    +0.092 A 
ENDROOT
BRANCH   4   7
ATOM      7  C   UNL     1       7.975  -2.392  25.478  0.00  0.00    +0.029 C 
ATOM      8  C   UNL     1       8.691  -1.296  25.177  0.00  0.00    +0.047 C 
ATOM      9  C   UNL     1       9.088  -0.705  23.901  0.00  0.00    +0.008 A 
ATOM     10  C   UNL     1       9.395   0.632  24.186  0.00  0.00    +0.042 A 
ATOM     11  C   UNL     1       9.713   1.545  23.201  0.00  0.00    +0.024 A 
ATOM     12  C   UNL     1       9.780   1.072  21.890  0.00  0.00    +0.002 A 
ATOM     13  C   UNL     1       9.581  -0.293  21.605  0.00  0.00    +0.001 A 
ATOM     14  N   UNL     1       9.355   0.861  25.560  0.00  0.00    -0.281 N 
ATOM     15  H   UNL     1       9.596   1.725  26.021  0.00  0.00    +0.155 HD
ATOM     16  C   UNL     1       9.235  -1.195  22.619  0.00  0.00    +0.010 A 
ATOM     17  C   UNL     1       8.998  -0.289  26.251  0.00  0.00    +0.249 C 
ATOM     18  O   UNL     1       8.937  -0.436  27.457  0.00  0.00    -0.270 OA
ENDBRANCH   4   7
BRANCH   1  20
ATOM     19  C   UNL     1       6.066  -6.007  20.448  0.00  0.00    +0.277 C 
ATOM     20  O   UNL     1       5.653  -6.044  21.808  0.00  0.00    -0.495 OA
ENDBRANCH   1  20
BRANCH   3  21
ATOM     21  O   UNL     1       9.466  -4.385  24.387  0.00  0.00    -0.494 OA
ATOM     22  C   UNL     1       9.815  -5.249  25.465  0.00  0.00    +0.277 C 
ENDBRANCH   3  21
BRANCH   5  23
ATOM     23  O   UNL     1       5.048  -2.277  24.392  0.00  0.00    -0.494 OA
ATOM     24  C   UNL     1       4.255  -2.438  25.552  0.00  0.00    +0.277 C 
ENDBRANCH   5  23
TORSDOF 4
ENDMDL
MODEL 3
REMARK VINA RESULT:      -6.5      2.867      5.555
REMARK  Name = 
REMARK  7 active torsions:
REMARK  status: ('A' for Active; 'I' for Inactive)
REMARK    1  A    between atoms: C_1  and  O_2
REMARK    2  A    between atoms: O_2  and  C_3
REMARK    3  A    between atoms: C_5  and  O_6
REMARK    4  A    between atoms: O_6  and  C_7
REMARK    5  A    between atoms: C_8  and  C_9
REMARK    6  A    between atoms: C_20  and  O_21
REMARK    7  A    between atoms: O_21  and  C_22
REMARK                            x       y       z     vdW  Elec       q    Type
REMARK                         _______ _______ _______ _____ _____    ______ ____
ROOT
ATOM      1  C   UNL     1       9.506  -0.930  23.862  0.00  0.00    +0.127 A 
ATOM      2  C   UNL     1       8.613  -0.460  24.813  0.00  0.00    +0.092 A 
ATOM      3  C   UNL     1       8.004  -1.342  25.720  0.00  0.00    +0.134 A 
ATOM      4  C   UNL     1       8.297  -2.740  25.677  0.00  0.00    +0.059 A 
ATOM      5  C   UNL     1       9.186  -3.213  24.696  0.00  0.00    +0.134 A 
ATOM      6  C   UNL     1       9.786  -2.292  23.817  0.00  0.00    +0.092 A 
ENDROOT
BRANCH   4   7
ATOM      7  C   UNL     1       7.634  -3.596  26.681  0.00  0.00    +0.029 C 
ATOM      8  C   UNL     1       6.632  -4.457  26.444  0.00  0.00    +0.047 C 
ATOM      9  C   UNL     1       5.889  -4.787  25.229  0.00  0.00    +0.008 A 
ATOM     10  C   UNL     1       5.319  -6.044  25.468  0.00  0.00    +0.042 A 
ATOM     11  C   UNL     1       4.623  -6.739  24.498  0.00  0.00    +0.024 A 
ATOM     12  C   UNL     1       4.450  -6.110  23.265  0.00  0.00    +0.002 A 
ATOM     13  C   UNL     1       4.925  -4.803  23.049  0.00  0.00    +0.001 A 
ATOM     14  N   UNL     1       5.536  -6.438  26.788  0.00  0.00    -0.281 N 
ATOM     15  H   UNL     1       5.174  -7.273  27.221  0.00  0.00    +0.155 HD
ATOM     16  C   UNL     1       5.649  -4.128  24.040  0.00  0.00    +0.010 A 
ATOM     17  C   UNL     1       6.276  -5.489  27.479  0.00  0.00    +0.249 C 
ATOM     18  O   UNL     1       6.578  -5.504  28.658  0.00  0.00    -0.270 OA
ENDBRANCH   4   7
BRANCH   1  20
ATOM     19  C   UNL     1       9.604  -0.078  21.642  0.00  0.00    +0.277 C 
ATOM     20  O   UNL     1      10.174  -0.164  22.943  0.00  0.00    -0.495 OA
ENDBRANCH   1  20
BRANCH   3  21
ATOM     21  O   UNL     1       7.070  -0.937  26.646  0.00  0.00    -0.494 OA
ATOM     22  C   UNL     1       7.427   0.137  27.512  0.00  0.00    +0.277 C 
ENDBRANCH   3  21
BRANCH   5  23
ATOM     23  O   UNL     1       9.609  -4.488  24.431  0.00  0.00    -0.494 OA
ATOM     24  C   UNL     1      10.154  -5.295  25.458  0.00  0.00    +0.277 C 
ENDBRANCH   5  23
TORSDOF 4
ENDMDL
MODEL 4
REMARK VINA RESULT:      -6.4      2.697      5.860
REMARK  Name = 
REMARK  7 active torsions:
REMARK  status: ('A' for Active; 'I' for Inactive)
REMARK    1  A    between atoms: C_1  and  O_2
REMARK    2  A    between atoms: O_2  and  C_3
REMARK    3  A    between atoms: C_5  and  O_6
REMARK    4  A    between atoms: O_6  and  C_7
REMARK    5  A    between atoms: C_8  and  C_9
REMARK    6  A    between atoms: C_20  and  O_21
REMARK    7  A    between atoms: O_21  and  C_22
REMARK                            x       y       z     vdW  Elec       q    Type
REMARK                         _______ _______ _______ _____ _____    ______ ____
ROOT
ATOM      1  C   UNL     1       7.438   1.752  22.577  0.00  0.00    +0.127 A 
ATOM      2  C   UNL     1       8.632   1.048  22.618  0.00  0.00    +0.092 A 
ATOM      3  C   UNL     1       8.779  -0.062  23.465  0.00  0.00    +0.134 A 
ATOM      4  C   UNL     1       7.698  -0.483  24.300  0.00  0.00    +0.059 A 
ATOM      5  C   UNL     1       6.499   0.249  24.271  0.00  0.00    +0.134 A 
ATOM      6  C   UNL     1       6.388   1.346  23.395  0.00  0.00    +0.092 A 
ENDROOT
BRANCH   4   7
ATOM      7  C   UNL     1       7.926  -1.673  25.143  0.00  0.00    +0.029 C 
ATOM      8  C   UNL     1       7.690  -2.946  24.789  0.00  0.00    +0.047 C 
ATOM      9  C   UNL     1       7.138  -3.540  23.573  0.00  0.00    +0.008 A 
ATOM     10  C   UNL     1       7.560  -4.875  23.582  0.00  0.00    +0.042 A 
ATOM     11  C   UNL     1       7.320  -5.736  22.529  0.00  0.00    +0.024 A 
ATOM     12  C   UNL     1       6.575  -5.241  21.459  0.00  0.00    +0.002 A 
ATOM     13  C   UNL     1       6.053  -3.933  21.487  0.00  0.00    +0.001 A 
ATOM     14  N   UNL     1       8.202  -5.178  24.782  0.00  0.00    -0.281 N 
ATOM     15  H   UNL     1       8.543  -6.087  25.056  0.00  0.00    +0.155 HD
ATOM     16  C   UNL     1       6.331  -3.072  22.555  0.00  0.00    +0.010 A 
ATOM     17  C   UNL     1       8.264  -4.067  25.612  0.00  0.00    +0.249 C 
ATOM     18  O   UNL     1       8.702  -4.017  26.746  0.00  0.00    -0.270 OA
ENDBRANCH   4   7
BRANCH   1  20
ATOM     19  C   UNL     1       7.186   4.112  22.401  0.00  0.00    +0.277 C 
ATOM     20  O   UNL     1       7.174   2.833  21.778  0.00  0.00    -0.495 OA
ENDBRANCH   1  20
BRANCH   3  21
ATOM     21  O   UNL     1       9.958  -0.762  23.584  0.00  0.00    -0.494 OA
ATOM     22  C   UNL     1      10.362  -1.561  22.476  0.00  0.00    +0.277 C 
ENDBRANCH   3  21
BRANCH   5  23
ATOM     23  O   UNL     1       5.340   0.072  24.978  0.00  0.00    -0.494 OA
ATOM     24  C   UNL     1       4.999   0.949  26.035  0.00  0.00    +0.277 C 
ENDBRANCH   5  23
TORSDOF 4
ENDMDL
MODEL 5
REMARK VINA RESULT:      -6.4      2.600      6.404
REMARK  Name = 
REMARK  7 active torsions:
REMARK  status: ('A' for Active; 'I' for Inactive)
REMARK    1  A    between atoms: C_1  and  O_2
REMARK    2  A    between atoms: O_2  and  C_3
REMARK    3  A    between atoms: C_5  and  O_6
REMARK    4  A    between atoms: O_6  and  C_7
REMARK    5  A    between atoms: C_8  and  C_9
REMARK    6  A    between atoms: C_20  and  O_21
REMARK    7  A    between atoms: O_21  and  C_22
REMARK                            x       y       z     vdW  Elec       q    Type
REMARK                         _______ _______ _______ _____ _____    ______ ____
ROOT
ATOM      1  C   UNL     1       8.314   1.819  24.280  0.00  0.00    +0.127 A 
ATOM      2  C   UNL     1       8.974   1.058  23.328  0.00  0.00    +0.092 A 
ATOM      3  C   UNL     1       8.406  -0.130  22.843  0.00  0.00    +0.134 A 
ATOM      4  C   UNL     1       7.136  -0.574  23.324  0.00  0.00    +0.059 A 
ATOM      5  C   UNL     1       6.482   0.190  24.306  0.00  0.00    +0.134 A 
ATOM      6  C   UNL     1       7.080   1.384  24.753  0.00  0.00    +0.092 A 
ENDROOT
BRANCH   4   7
ATOM      7  C   UNL     1       6.597  -1.820  22.746  0.00  0.00    +0.029 C 
ATOM      8  C   UNL     1       6.678  -3.043  23.294  0.00  0.00    +0.047 C 
ATOM      9  C   UNL     1       7.306  -3.528  24.522  0.00  0.00    +0.008 A 
ATOM     10  C   UNL     1       6.680  -4.748  24.807  0.00  0.00    +0.042 A 
ATOM     11  C   UNL     1       6.936  -5.461  25.962  0.00  0.00    +0.024 A 
ATOM     12  C   UNL     1       7.904  -4.948  26.825  0.00  0.00    +0.002 A 
ATOM     13  C   UNL     1       8.617  -3.779  26.497  0.00  0.00    +0.001 A 
ATOM     14  N   UNL     1       5.823  -5.114  23.770  0.00  0.00    -0.281 N 
ATOM     15  H   UNL     1       5.305  -5.977  23.709  0.00  0.00    +0.155 HD
ATOM     16  C   UNL     1       8.322  -3.061  25.331  0.00  0.00    +0.010 A 
ATOM     17  C   UNL     1       5.814  -4.156  22.765  0.00  0.00    +0.249 C 
ATOM     18  O   UNL     1       5.224  -4.206  21.703  0.00  0.00    -0.270 OA
ENDBRANCH   4   7
BRANCH   1  20
ATOM     19  C   UNL     1       9.131   4.019  23.887  0.00  0.00    +0.277 C 
ATOM     20  O   UNL     1       8.759   3.003  24.809  0.00  0.00    -0.495 OA
ENDBRANCH   1  20
BRANCH   3  21
ATOM     21  O   UNL     1       9.043  -0.951  21.940  0.00  0.00    -0.494 OA
ATOM     22  C   UNL     1      10.238  -1.596  22.368  0.00  0.00    +0.277 C 
ENDBRANCH   3  21
BRANCH   5  23
ATOM     23  O   UNL     1       5.287  -0.023  24.940  0.00  0.00    -0.494 OA
ATOM     24  C   UNL     1       5.226  -0.807  26.117  0.00  0.00    +0.277 C 
ENDBRANCH   5  23
TORSDOF 4
ENDMDL
MODEL 6
REMARK VINA RESULT:      -6.3      2.707      5.768
REMARK  Name = 
REMARK  7 active torsions:
REMARK  status: ('A' for Active; 'I' for Inactive)
REMARK    1  A    between atoms: C_1  and  O_2
REMARK    2  A    between atoms: O_2  and  C_3
REMARK    3  A    between atoms: C_5  and  O_6
REMARK    4  A    between atoms: O_6  and  C_7
REMARK    5  A    between atoms: C_8  and  C_9
REMARK    6  A    between atoms: C_20  and  O_21
REMARK    7  A    between atoms: O_21  and  C_22
REMARK                            x       y       z     vdW  Elec       q    Type
REMARK                         _______ _______ _______ _____ _____    ______ ____
ROOT
ATOM      1  C   UNL     1       7.220   0.582  22.842  0.00  0.00    +0.127 A 
ATOM      2  C   UNL     1       8.365   0.705  23.615  0.00  0.00    +0.092 A 
ATOM      3  C   UNL     1       9.001  -0.433  24.137  0.00  0.00    +0.134 A 
ATOM      4  C   UNL     1       8.478  -1.737  23.878  0.00  0.00    +0.059 A 
ATOM      5  C   UNL     1       7.304  -1.853  23.112  0.00  0.00    +0.134 A 
ATOM      6  C   UNL     1       6.708  -0.688  22.595  0.00  0.00    +0.092 A 
ENDROOT
BRANCH   4   7
ATOM      7  C   UNL     1       9.219  -2.882  24.441  0.00  0.00    +0.029 C 
ATOM      8  C   UNL     1       8.806  -3.671  25.446  0.00  0.00    +0.047 C 
ATOM      9  C   UNL     1       7.607  -3.648  26.282  0.00  0.00    +0.008 A 
ATOM     10  C   UNL     1       7.493  -4.939  26.811  0.00  0.00    +0.042 A 
ATOM     11  C   UNL     1       6.412  -5.335  27.574  0.00  0.00    +0.024 A 
ATOM     12  C   UNL     1       5.445  -4.371  27.858  0.00  0.00    +0.002 A 
ATOM     13  C   UNL     1       5.603  -3.041  27.422  0.00  0.00    +0.001 A 
ATOM     14  N   UNL     1       8.610  -5.705  26.479  0.00  0.00    -0.281 N 
ATOM     15  H   UNL     1       8.794  -6.646  26.791  0.00  0.00    +0.155 HD
ATOM     16  C   UNL     1       6.697  -2.670  26.630  0.00  0.00    +0.010 A 
ATOM     17  C   UNL     1       9.501  -4.981  25.699  0.00  0.00    +0.249 C 
ATOM     18  O   UNL     1      10.593  -5.339  25.301  0.00  0.00    -0.270 OA
ENDBRANCH   4   7
BRANCH   1  20
ATOM     19  C   UNL     1       5.762   2.439  23.134  0.00  0.00    +0.277 C 
ATOM     20  O   UNL     1       6.529   1.615  22.265  0.00  0.00    -0.495 OA
ENDBRANCH   1  20
BRANCH   3  21
ATOM     21  O   UNL     1      10.106  -0.364  24.954  0.00  0.00    -0.494 OA
ATOM     22  C   UNL     1      11.028   0.697  24.725  0.00  0.00    +0.277 C 
ENDBRANCH   3  21
BRANCH   5  23
ATOM     23  O   UNL     1       6.597  -2.967  22.745  0.00  0.00    -0.494 OA
ATOM     24  C   UNL     1       5.285  -3.180  23.232  0.00  0.00    +0.277 C 
ENDBRANCH   5  23
TORSDOF 4
ENDMDL
MODEL 7
REMARK VINA RESULT:      -6.2      2.628      5.685
REMARK  Name = 
REMARK  7 active torsions:
REMARK  status: ('A' for Active; 'I' for Inactive)
REMARK    1  A    between atoms: C_1  and  O_2
REMARK    2  A    between atoms: O_2  and  C_3
REMARK    3  A    between atoms: C_5  and  O_6
REMARK    4  A    between atoms: O_6  and  C_7
REMARK    5  A    between atoms: C_8  and  C_9
REMARK    6  A    between atoms: C_20  and  O_21
REMARK    7  A    between atoms: O_21  and  C_22
REMARK                            x       y       z     vdW  Elec       q    Type
REMARK                         _______ _______ _______ _____ _____    ______ ____
ROOT
ATOM      1  C   UNL     1       7.143   0.686  22.998  0.00  0.00    +0.127 A 
ATOM      2  C   UNL     1       6.818  -0.605  22.610  0.00  0.00    +0.092 A 
ATOM      3  C   UNL     1       7.536  -1.704  23.109  0.00  0.00    +0.134 A 
ATOM      4  C   UNL     1       8.614  -1.507  24.026  0.00  0.00    +0.059 A 
ATOM      5  C   UNL     1       8.953  -0.194  24.398  0.00  0.00    +0.134 A 
ATOM      6  C   UNL     1       8.196   0.877  23.887  0.00  0.00    +0.092 A 
ENDROOT
BRANCH   4   7
ATOM      7  C   UNL     1       9.302  -2.715  24.522  0.00  0.00    +0.029 C 
ATOM      8  C   UNL     1       8.842  -3.552  25.466  0.00  0.00    +0.047 C 
ATOM      9  C   UNL     1       7.631  -3.538  26.284  0.00  0.00    +0.008 A 
ATOM     10  C   UNL     1       7.460  -4.857  26.723  0.00  0.00    +0.042 A 
ATOM     11  C   UNL     1       6.352  -5.261  27.441  0.00  0.00    +0.024 A 
ATOM     12  C   UNL     1       5.417  -4.281  27.776  0.00  0.00    +0.002 A 
ATOM     13  C   UNL     1       5.633  -2.932  27.433  0.00  0.00    +0.001 A 
ATOM     14  N   UNL     1       8.552  -5.642  26.357  0.00  0.00    -0.281 N 
ATOM     15  H   UNL     1       8.695  -6.608  26.607  0.00  0.00    +0.155 HD
ATOM     16  C   UNL     1       6.753  -2.551  26.683  0.00  0.00    +0.010 A 
ATOM     17  C   UNL     1       9.483  -4.902  25.640  0.00  0.00    +0.249 C 
ATOM     18  O   UNL     1      10.568  -5.275  25.235  0.00  0.00    -0.270 OA
ENDBRANCH   4   7
BRANCH   1  20
ATOM     19  C   UNL     1       7.299   2.826  21.970  0.00  0.00    +0.277 C 
ATOM     20  O   UNL     1       6.502   1.828  22.595  0.00  0.00    -0.495 OA
ENDBRANCH   1  20
BRANCH   3  21
ATOM     21  O   UNL     1       7.292  -2.999  22.715  0.00  0.00    -0.494 OA
ATOM     22  C   UNL     1       5.968  -3.499  22.885  0.00  0.00    +0.277 C 
ENDBRANCH   3  21
BRANCH   5  23
ATOM     23  O   UNL     1       9.942   0.260  25.229  0.00  0.00    -0.494 OA
ATOM     24  C   UNL     1      11.166   0.733  24.700  0.00  0.00    +0.277 C 
ENDBRANCH   5  23
TORSDOF 4
ENDMDL
MODEL 8
REMARK VINA RESULT:      -6.2      2.709      5.350
REMARK  Name = 
REMARK  7 active torsions:
REMARK  status: ('A' for Active; 'I' for Inactive)
REMARK    1  A    between atoms: C_1  and  O_2
REMARK    2  A    between atoms: O_2  and  C_3
REMARK    3  A    between atoms: C_5  and  O_6
REMARK    4  A    between atoms: O_6  and  C_7
REMARK    5  A    between atoms: C_8  and  C_9
REMARK    6  A    between atoms: C_20  and  O_21
REMARK    7  A    between atoms: O_21  and  C_22
REMARK                            x       y       z     vdW  Elec       q    Type
REMARK                         _______ _______ _______ _____ _____    ______ ____
ROOT
ATOM      1  C   UNL     1       7.078   1.830  22.728  0.00  0.00    +0.127 A 
ATOM      2  C   UNL     1       6.090   1.321  23.556  0.00  0.00    +0.092 A 
ATOM      3  C   UNL     1       6.334   0.185  24.346  0.00  0.00    +0.134 A 
ATOM      4  C   UNL     1       7.607  -0.464  24.307  0.00  0.00    +0.059 A 
ATOM      5  C   UNL     1       8.596   0.045  23.448  0.00  0.00    +0.134 A 
ATOM      6  C   UNL     1       8.316   1.194  22.686  0.00  0.00    +0.092 A 
ENDROOT
BRANCH   4   7
ATOM      7  C   UNL     1       7.790  -1.636  25.185  0.00  0.00    +0.029 C 
ATOM      8  C   UNL     1       7.570  -2.916  24.846  0.00  0.00    +0.047 C 
ATOM      9  C   UNL     1       7.080  -3.535  23.616  0.00  0.00    +0.008 A 
ATOM     10  C   UNL     1       7.500  -4.870  23.674  0.00  0.00    +0.042 A 
ATOM     11  C   UNL     1       7.312  -5.752  22.629  0.00  0.00    +0.024 A 
ATOM     12  C   UNL     1       6.622  -5.279  21.512  0.00  0.00    +0.002 A 
ATOM     13  C   UNL     1       6.101  -3.971  21.486  0.00  0.00    +0.001 A 
ATOM     14  N   UNL     1       8.080  -5.148  24.911  0.00  0.00    -0.281 N 
ATOM     15  H   UNL     1       8.405  -6.050  25.221  0.00  0.00    +0.155 HD
ATOM     16  C   UNL     1       6.326  -3.088  22.549  0.00  0.00    +0.010 A 
ATOM     17  C   UNL     1       8.101  -4.019  25.720  0.00  0.00    +0.249 C 
ATOM     18  O   UNL     1       8.480  -3.946  26.873  0.00  0.00    -0.270 OA
ENDBRANCH   4   7
BRANCH   1  20
ATOM     19  C   UNL     1       7.479   4.159  22.451  0.00  0.00    +0.277 C 
ATOM     20  O   UNL     1       6.963   2.939  21.932  0.00  0.00    -0.495 OA
ENDBRANCH   1  20
BRANCH   3  21
ATOM     21  O   UNL     1       5.372  -0.393  25.143  0.00  0.00    -0.494 OA
ATOM     22  C   UNL     1       4.871   0.378  26.231  0.00  0.00    +0.277 C 
ENDBRANCH   3  21
BRANCH   5  23
ATOM     23  O   UNL     1       9.870  -0.398  23.210  0.00  0.00    -0.494 OA
ATOM     24  C   UNL     1      10.102  -1.494  22.345  0.00  0.00    +0.277 C 
ENDBRANCH   5  23
TORSDOF 4
ENDMDL
MODEL 9
REMARK VINA RESULT:      -6.1      2.381      3.629
REMARK  Name = 
REMARK  7 active torsions:
REMARK  status: ('A' for Active; 'I' for Inactive)
REMARK    1  A    between atoms: C_1  and  O_2
REMARK    2  A    between atoms: O_2  and  C_3
REMARK    3  A    between atoms: C_5  and  O_6
REMARK    4  A    between atoms: O_6  and  C_7
REMARK    5  A    between atoms: C_8  and  C_9
REMARK    6  A    between atoms: C_20  and  O_21
REMARK    7  A    between atoms: O_21  and  C_22
REMARK                            x       y       z     vdW  Elec       q    Type
REMARK                         _______ _______ _______ _____ _____    ______ ____
ROOT
ATOM      1  C   UNL     1       5.314  -6.027  25.151  0.00  0.00    +0.127 A 
ATOM      2  C   UNL     1       5.276  -5.786  23.787  0.00  0.00    +0.092 A 
ATOM      3  C   UNL     1       6.214  -4.933  23.184  0.00  0.00    +0.134 A 
ATOM      4  C   UNL     1       7.225  -4.298  23.971  0.00  0.00    +0.059 A 
ATOM      5  C   UNL     1       7.243  -4.529  25.358  0.00  0.00    +0.134 A 
ATOM      6  C   UNL     1       6.294  -5.404  25.918  0.00  0.00    +0.092 A 
ENDROOT
BRANCH   4   7
ATOM      7  C   UNL     1       8.187  -3.436  23.259  0.00  0.00    +0.029 C 
ATOM      8  C   UNL     1       8.238  -2.095  23.317  0.00  0.00    +0.047 C 
ATOM      9  C   UNL     1       7.408  -1.112  24.010  0.00  0.00    +0.008 A 
ATOM     10  C   UNL     1       8.191   0.047  24.094  0.00  0.00    +0.042 A 
ATOM     11  C   UNL     1       7.779   1.170  24.784  0.00  0.00    +0.024 A 
ATOM     12  C   UNL     1       6.508   1.137  25.356  0.00  0.00    +0.002 A 
ATOM     13  C   UNL     1       5.670   0.018  25.186  0.00  0.00    +0.001 A 
ATOM     14  N   UNL     1       9.376  -0.109  23.377  0.00  0.00    -0.281 N 
ATOM     15  H   UNL     1      10.076   0.602  23.233  0.00  0.00    +0.155 HD
ATOM     16  C   UNL     1       6.119  -1.119  24.503  0.00  0.00    +0.010 A 
ATOM     17  C   UNL     1       9.455  -1.373  22.808  0.00  0.00    +0.249 C 
ATOM     18  O   UNL     1      10.327  -1.798  22.074  0.00  0.00    -0.270 OA
ENDBRANCH   4   7
BRANCH   1  20
ATOM     19  C   UNL     1       4.625  -6.900  27.255  0.00  0.00    +0.277 C 
ATOM     20  O   UNL     1       4.467  -6.853  25.842  0.00  0.00    -0.495 OA
ENDBRANCH   1  20
BRANCH   3  21
ATOM     21  O   UNL     1       6.188  -4.617  21.845  0.00  0.00    -0.494 OA
ATOM     22  C   UNL     1       6.239  -5.694  20.915  0.00  0.00    +0.277 C 
ENDBRANCH   3  21
BRANCH   5  23
ATOM     23  O   UNL     1       8.078  -4.032  26.323  0.00  0.00    -0.494 OA
ATOM     24  C   UNL     1       9.345  -4.620  26.551  0.00  0.00    +0.277 C 
ENDBRANCH   5  23
TORSDOF 4
ENDMDL
