MODEL 1
REMARK VINA RESULT:      -6.0      0.000      0.000
REMARK  Name = 
REMARK  6 active torsions:
REMARK  status: ('A' for Active; 'I' for Inactive)
REMARK    1  A    between atoms: C_1  and  O_2
REMARK    2  A    between atoms: O_2  and  C_3
REMARK    3  A    between atoms: C_10  and  C_11
REMARK    4  A    between atoms: C_11  and  C_12
REMARK    5  A    between atoms: C_12  and  N_13
REMARK    6  A    between atoms: C_14  and  C_15
REMARK                            x       y       z     vdW  Elec       q    Type
REMARK                         _______ _______ _______ _____ _____    ______ ____
ROOT
ATOM      1  C   UNL     1       7.020  -5.378  26.474  0.00  0.00    +0.121 A 
ATOM      2  C   UNL     1       5.864  -5.960  25.973  0.00  0.00    +0.046 A 
ATOM      3  C   UNL     1       5.378  -5.567  24.725  0.00  0.00    +0.012 A 
ATOM      4  C   UNL     1       6.041  -4.590  23.964  0.00  0.00    -0.017 A 
ATOM      5  C   UNL     1       5.500  -4.169  22.742  0.00  0.00    +0.008 A 
ATOM      6  C   UNL     1       6.138  -3.198  21.980  0.00  0.00    +0.001 A 
ATOM      7  C   UNL     1       7.349  -2.656  22.408  0.00  0.00    +0.004 A 
ATOM      8  C   UNL     1       7.935  -3.057  23.622  0.00  0.00    -0.038 A 
ATOM      9  C   UNL     1       7.262  -4.030  24.426  0.00  0.00    -0.011 A 
ATOM     10  C   UNL     1       7.730  -4.470  25.685  0.00  0.00    +0.054 A 
ENDROOT
BRANCH   1  12
ATOM     11  C   UNL     1       6.317  -6.069  28.606  0.00  0.00    +0.277 C 
ATOM     12  O   UNL     1       7.405  -5.764  27.731  0.00  0.00    -0.495 OA
ENDBRANCH   1  12
BRANCH   8  13
ATOM     13  C   UNL     1       9.312  -2.529  24.012  0.00  0.00    +0.054 C 
BRANCH  13  14
ATOM     14  C   UNL     1      10.173  -1.918  22.899  0.00  0.00    +0.109 C 
BRANCH  14  15
ATOM     15  N   UNL     1      10.252  -0.464  22.976  0.00  0.00    -0.315 N 
ATOM     16  H   UNL     1      10.799  -0.062  23.726  0.00  0.00    +0.149 HD
ATOM     17  C   UNL     1       9.817   0.356  21.960  0.00  0.00    +0.210 C 
ATOM     18  O   UNL     1       9.259  -0.048  20.944  0.00  0.00    -0.276 OA
ATOM     19  C   UNL     1      10.062   1.823  22.198  0.00  0.00    +0.109 C 
ENDBRANCH  14  15
ENDBRANCH  13  14
ENDBRANCH   8  13
TORSDOF 4
ENDMDL
MODEL 2
REMARK VINA RESULT:      -5.9      3.504      8.824
REMARK  Name = 
REMARK  6 active torsions:
REMARK  status: ('A' for Active; 'I' for Inactive)
REMARK    1  A    between atoms: C_1  and  O_2
REMARK    2  A    between atoms: O_2  and  C_3
REMARK    3  A    between atoms: C_10  and  C_11
REMARK    4  A    between atoms: C_11  and  C_12
REMARK    5  A    between atoms: C_12  and  N_13
REMARK    6  A    between atoms: C_14  and  C_15
REMARK                            x       y       z     vdW  Elec       q    Type
REMARK                         _______ _______ _______ _____ _____    ______ ____
ROOT
ATOM      1  C   UNL     1      12.098   4.870  23.436  0.00  0.00    +0.121 A 
ATOM      2  C   UNL     1      11.449   5.974  23.970  0.00  0.00    +0.046 A 
ATOM      3  C   UNL     1      10.098   5.883  24.311  0.00  0.00    +0.012 A 
ATOM      4  C   UNL     1       9.383   4.688  24.123  0.00  0.00    -0.017 A 
ATOM      5  C   UNL     1       8.013   4.639  24.416  0.00  0.00    +0.008 A 
ATOM      6  C   UNL     1       7.289   3.468  24.229  0.00  0.00    +0.001 A 
ATOM      7  C   UNL     1       7.927   2.314  23.781  0.00  0.00    +0.004 A 
ATOM      8  C   UNL     1       9.302   2.313  23.484  0.00  0.00    -0.038 A 
ATOM      9  C   UNL     1      10.043   3.526  23.641  0.00  0.00    -0.011 A 
ATOM     10  C   UNL     1      11.415   3.657  23.328  0.00  0.00    +0.054 A 
ENDROOT
BRANCH   1  12
ATOM     11  C   UNL     1      13.573   5.840  21.886  0.00  0.00    +0.277 C 
ATOM     12  O   UNL     1      13.404   5.049  23.064  0.00  0.00    -0.495 OA
ENDBRANCH   1  12
BRANCH   8  13
ATOM     13  C   UNL     1       9.996   1.010  23.101  0.00  0.00    +0.054 C 
BRANCH  13  14
ATOM     14  C   UNL     1      10.564   0.152  24.239  0.00  0.00    +0.109 C 
BRANCH  14  15
ATOM     15  N   UNL     1       9.779  -1.050  24.490  0.00  0.00    -0.315 N 
ATOM     16  H   UNL     1       9.042  -0.995  25.180  0.00  0.00    +0.149 HD
ATOM     17  C   UNL     1       9.846  -2.161  23.679  0.00  0.00    +0.210 C 
ATOM     18  O   UNL     1      10.617  -2.272  22.731  0.00  0.00    -0.276 OA
ATOM     19  C   UNL     1       8.896  -3.265  24.059  0.00  0.00    +0.109 C 
ENDBRANCH  14  15
ENDBRANCH  13  14
ENDBRANCH   8  13
TORSDOF 4
ENDMDL
MODEL 3
REMARK VINA RESULT:      -5.8      2.446      5.901
REMARK  Name = 
REMARK  6 active torsions:
REMARK  status: ('A' for Active; 'I' for Inactive)
REMARK    1  A    between atoms: C_1  and  O_2
REMARK    2  A    between atoms: O_2  and  C_3
REMARK    3  A    between atoms: C_10  and  C_11
REMARK    4  A    between atoms: C_11  and  C_12
REMARK    5  A    between atoms: C_12  and  N_13
REMARK    6  A    between atoms: C_14  and  C_15
REMARK                            x       y       z     vdW  Elec       q    Type
REMARK                         _______ _______ _______ _____ _____    ______ ____
ROOT
ATOM      1  C   UNL     1       9.597  -0.837  24.282  0.00  0.00    +0.121 A 
ATOM      2  C   UNL     1       8.745  -0.244  23.360  0.00  0.00    +0.046 A 
ATOM      3  C   UNL     1       7.829  -1.033  22.661  0.00  0.00    +0.012 A 
ATOM      4  C   UNL     1       7.754  -2.419  22.875  0.00  0.00    -0.017 A 
ATOM      5  C   UNL     1       6.870  -3.198  22.117  0.00  0.00    +0.008 A 
ATOM      6  C   UNL     1       6.788  -4.571  22.310  0.00  0.00    +0.001 A 
ATOM      7  C   UNL     1       7.564  -5.188  23.290  0.00  0.00    +0.004 A 
ATOM      8  C   UNL     1       8.458  -4.445  24.082  0.00  0.00    -0.038 A 
ATOM      9  C   UNL     1       8.570  -3.036  23.861  0.00  0.00    -0.011 A 
ATOM     10  C   UNL     1       9.468  -2.199  24.561  0.00  0.00    +0.054 A 
ENDROOT
BRANCH   1  12
ATOM     11  C   UNL     1      10.695   1.239  24.223  0.00  0.00    +0.277 C 
ATOM     12  O   UNL     1      10.512  -0.015  24.884  0.00  0.00    -0.495 OA
ENDBRANCH   1  12
BRANCH   8  13
ATOM     13  C   UNL     1       9.212  -5.126  25.219  0.00  0.00    +0.054 C 
BRANCH  13  14
ATOM     14  C   UNL     1       8.659  -4.947  26.639  0.00  0.00    +0.109 C 
BRANCH  14  15
ATOM     15  N   UNL     1       7.570  -5.866  26.945  0.00  0.00    -0.315 N 
ATOM     16  H   UNL     1       7.805  -6.740  27.395  0.00  0.00    +0.149 HD
ATOM     17  C   UNL     1       6.246  -5.499  26.859  0.00  0.00    +0.210 C 
ATOM     18  O   UNL     1       5.862  -4.408  26.450  0.00  0.00    -0.276 OA
ATOM     19  C   UNL     1       5.277  -6.565  27.297  0.00  0.00    +0.109 C 
ENDBRANCH  14  15
ENDBRANCH  13  14
ENDBRANCH   8  13
TORSDOF 4
ENDMDL
MODEL 4
REMARK VINA RESULT:      -5.8      2.621      4.107
REMARK  Name = 
REMARK  6 active torsions:
REMARK  status: ('A' for Active; 'I' for Inactive)
REMARK    1  A    between atoms: C_1  and  O_2
REMARK    2  A    between atoms: O_2  and  C_3
REMARK    3  A    between atoms: C_10  and  C_11
REMARK    4  A    between atoms: C_11  and  C_12
REMARK    5  A    between atoms: C_12  and  N_13
REMARK    6  A    between atoms: C_14  and  C_15
REMARK                            x       y       z     vdW  Elec       q    Type
REMARK                         _______ _______ _______ _____ _____    ______ ____
ROOT
ATOM      1  C   UNL     1       7.474  -3.910  22.687  0.00  0.00    +0.121 A 
ATOM      2  C   UNL     1       7.060  -4.250  23.967  0.00  0.00    +0.046 A 
ATOM      3  C   UNL     1       7.413  -3.436  25.045  0.00  0.00    +0.012 A 
ATOM      4  C   UNL     1       8.183  -2.276  24.856  0.00  0.00    -0.017 A 
ATOM      5  C   UNL     1       8.576  -1.509  25.961  0.00  0.00    +0.008 A 
ATOM      6  C   UNL     1       9.343  -0.363  25.792  0.00  0.00    +0.001 A 
ATOM      7  C   UNL     1       9.701   0.059  24.513  0.00  0.00    +0.004 A 
ATOM      8  C   UNL     1       9.320  -0.674  23.374  0.00  0.00    -0.038 A 
ATOM      9  C   UNL     1       8.561  -1.873  23.547  0.00  0.00    -0.011 A 
ATOM     10  C   UNL     1       8.165  -2.714  22.482  0.00  0.00    +0.054 A 
ENDROOT
BRANCH   1  12
ATOM     11  C   UNL     1       6.649  -6.043  22.150  0.00  0.00    +0.277 C 
ATOM     12  O   UNL     1       7.147  -4.787  21.686  0.00  0.00    -0.495 OA
ENDBRANCH   1  12
BRANCH   8  13
ATOM     13  C   UNL     1       9.631  -0.131  21.984  0.00  0.00    +0.054 C 
BRANCH  13  14
ATOM     14  C   UNL     1       9.967   1.361  21.868  0.00  0.00    +0.109 C 
BRANCH  14  15
ATOM     15  N   UNL     1       8.794   2.190  21.620  0.00  0.00    -0.315 N 
ATOM     16  H   UNL     1       8.245   1.993  20.794  0.00  0.00    +0.149 HD
ATOM     17  C   UNL     1       8.286   3.055  22.562  0.00  0.00    +0.210 C 
ATOM     18  O   UNL     1       8.808   3.265  23.653  0.00  0.00    -0.276 OA
ATOM     19  C   UNL     1       7.022   3.758  22.143  0.00  0.00    +0.109 C 
ENDBRANCH  14  15
ENDBRANCH  13  14
ENDBRANCH   8  13
TORSDOF 4
ENDMDL
MODEL 5
REMARK VINA RESULT:      -5.8      3.214      5.586
REMARK  Name = 
REMARK  6 active torsions:
REMARK  status: ('A' for Active; 'I' for Inactive)
REMARK    1  A    between atoms: C_1  and  O_2
REMARK    2  A    between atoms: O_2  and  C_3
REMARK    3  A    between atoms: C_10  and  C_11
REMARK    4  A    between atoms: C_11  and  C_12
REMARK    5  A    between atoms: C_12  and  N_13
REMARK    6  A    between atoms: C_14  and  C_15
REMARK                            x       y       z     vdW  Elec       q    Type
REMARK                         _______ _______ _______ _____ _____    ______ ____
ROOT
ATOM      1  C   UNL     1       8.124  -2.437  22.753  0.00  0.00    +0.121 A 
ATOM      2  C   UNL     1       8.915  -2.834  23.822  0.00  0.00    +0.046 A 
ATOM      3  C   UNL     1       9.758  -1.908  24.439  0.00  0.00    +0.012 A 
ATOM      4  C   UNL     1       9.819  -0.576  23.996  0.00  0.00    -0.017 A 
ATOM      5  C   UNL     1      10.717   0.320  24.591  0.00  0.00    +0.008 A 
ATOM      6  C   UNL     1      10.795   1.638  24.160  0.00  0.00    +0.001 A 
ATOM      7  C   UNL     1       9.952   2.096  23.149  0.00  0.00    +0.004 A 
ATOM      8  C   UNL     1       9.027   1.236  22.530  0.00  0.00    -0.038 A 
ATOM      9  C   UNL     1       8.969  -0.131  22.947  0.00  0.00    -0.011 A 
ATOM     10  C   UNL     1       8.117  -1.096  22.364  0.00  0.00    +0.054 A 
ENDROOT
BRANCH   1  12
ATOM     11  C   UNL     1       7.382  -4.664  22.844  0.00  0.00    +0.277 C 
ATOM     12  O   UNL     1       7.370  -3.412  22.156  0.00  0.00    -0.495 OA
ENDBRANCH   1  12
BRANCH   8  13
ATOM     13  C   UNL     1       8.043   1.789  21.506  0.00  0.00    +0.054 C 
BRANCH  13  14
ATOM     14  C   UNL     1       6.965   2.756  22.014  0.00  0.00    +0.109 C 
BRANCH  14  15
ATOM     15  N   UNL     1       7.290   4.154  21.759  0.00  0.00    -0.315 N 
ATOM     16  H   UNL     1       7.271   4.474  20.800  0.00  0.00    +0.149 HD
ATOM     17  C   UNL     1       7.391   5.086  22.767  0.00  0.00    +0.210 C 
ATOM     18  O   UNL     1       7.296   4.818  23.961  0.00  0.00    -0.276 OA
ATOM     19  C   UNL     1       7.652   6.490  22.291  0.00  0.00    +0.109 C 
ENDBRANCH  14  15
ENDBRANCH  13  14
ENDBRANCH   8  13
TORSDOF 4
ENDMDL
MODEL 6
REMARK VINA RESULT:      -5.8      3.316      6.656
REMARK  Name = 
REMARK  6 active torsions:
REMARK  status: ('A' for Active; 'I' for Inactive)
REMARK    1  A    between atoms: C_1  and  O_2
REMARK    2  A    between atoms: O_2  and  C_3
REMARK    3  A    between atoms: C_10  and  C_11
REMARK    4  A    between atoms: C_11  and  C_12
REMARK    5  A    between atoms: C_12  and  N_13
REMARK    6  A    between atoms: C_14  and  C_15
REMARK                            x       y       z     vdW  Elec       q    Type
REMARK                         _______ _______ _______ _____ _____    ______ ____
ROOT
ATOM      1  C   UNL     1       7.339   1.629  22.161  0.00  0.00    +0.121 A 
ATOM      2  C   UNL     1       8.568   1.729  21.522  0.00  0.00    +0.046 A 
ATOM      3  C   UNL     1       9.524   0.729  21.705  0.00  0.00    +0.012 A 
ATOM      4  C   UNL     1       9.265  -0.381  22.525  0.00  0.00    -0.017 A 
ATOM      5  C   UNL     1      10.263  -1.341  22.741  0.00  0.00    +0.008 A 
ATOM      6  C   UNL     1      10.025  -2.441  23.556  0.00  0.00    +0.001 A 
ATOM      7  C   UNL     1       8.774  -2.622  24.142  0.00  0.00    +0.004 A 
ATOM      8  C   UNL     1       7.739  -1.690  23.945  0.00  0.00    -0.038 A 
ATOM      9  C   UNL     1       7.991  -0.538  23.135  0.00  0.00    -0.011 A 
ATOM     10  C   UNL     1       7.045   0.487  22.908  0.00  0.00    +0.054 A 
ENDROOT
BRANCH   1  12
ATOM     11  C   UNL     1       7.058   3.960  22.216  0.00  0.00    +0.277 C 
ATOM     12  O   UNL     1       6.474   2.676  21.989  0.00  0.00    -0.495 OA
ENDBRANCH   1  12
BRANCH   8  13
ATOM     13  C   UNL     1       6.349  -1.969  24.507  0.00  0.00    +0.054 C 
BRANCH  13  14
ATOM     14  C   UNL     1       5.412  -2.848  23.668  0.00  0.00    +0.109 C 
BRANCH  14  15
ATOM     15  N   UNL     1       6.044  -4.082  23.218  0.00  0.00    -0.315 N 
ATOM     16  H   UNL     1       6.296  -4.765  23.920  0.00  0.00    +0.149 HD
ATOM     17  C   UNL     1       6.097  -4.447  21.891  0.00  0.00    +0.210 C 
ATOM     18  O   UNL     1       5.694  -3.743  20.971  0.00  0.00    -0.276 OA
ATOM     19  C   UNL     1       6.717  -5.796  21.642  0.00  0.00    +0.109 C 
ENDBRANCH  14  15
ENDBRANCH  13  14
ENDBRANCH   8  13
TORSDOF 4
ENDMDL
MODEL 7
REMARK VINA RESULT:      -5.6      1.851      3.062
REMARK  Name = 
REMARK  6 active torsions:
REMARK  status: ('A' for Active; 'I' for Inactive)
REMARK    1  A    between atoms: C_1  and  O_2
REMARK    2  A    between atoms: O_2  and  C_3
REMARK    3  A    between atoms: C_10  and  C_11
REMARK    4  A    between atoms: C_11  and  C_12
REMARK    5  A    between atoms: C_12  and  N_13
REMARK    6  A    between atoms: C_14  and  C_15
REMARK                            x       y       z     vdW  Elec       q    Type
REMARK                         _______ _______ _______ _____ _____    ______ ____
ROOT
ATOM      1  C   UNL     1       4.715  -4.747  23.687  0.00  0.00    +0.121 A 
ATOM      2  C   UNL     1       4.801  -5.625  24.759  0.00  0.00    +0.046 A 
ATOM      3  C   UNL     1       6.004  -5.747  25.455  0.00  0.00    +0.012 A 
ATOM      4  C   UNL     1       7.133  -4.995  25.090  0.00  0.00    -0.017 A 
ATOM      5  C   UNL     1       8.346  -5.181  25.766  0.00  0.00    +0.008 A 
ATOM      6  C   UNL     1       9.475  -4.451  25.413  0.00  0.00    +0.001 A 
ATOM      7  C   UNL     1       9.402  -3.495  24.401  0.00  0.00    +0.004 A 
ATOM      8  C   UNL     1       8.202  -3.267  23.702  0.00  0.00    -0.038 A 
ATOM      9  C   UNL     1       7.049  -4.042  24.040  0.00  0.00    -0.011 A 
ATOM     10  C   UNL     1       5.807  -3.935  23.374  0.00  0.00    +0.054 A 
ENDROOT
BRANCH   1  12
ATOM     11  C   UNL     1       2.774  -5.937  23.107  0.00  0.00    +0.277 C 
ATOM     12  O   UNL     1       3.524  -4.725  23.009  0.00  0.00    -0.495 OA
ENDBRANCH   1  12
BRANCH   8  13
ATOM     13  C   UNL     1       8.123  -2.142  22.677  0.00  0.00    +0.054 C 
BRANCH  13  14
ATOM     14  C   UNL     1       9.434  -1.693  22.019  0.00  0.00    +0.109 C 
BRANCH  14  15
ATOM     15  N   UNL     1       9.902  -0.402  22.507  0.00  0.00    -0.315 N 
ATOM     16  H   UNL     1      10.617  -0.401  23.223  0.00  0.00    +0.149 HD
ATOM     17  C   UNL     1       9.587   0.784  21.885  0.00  0.00    +0.210 C 
ATOM     18  O   UNL     1       8.831   0.873  20.922  0.00  0.00    -0.276 OA
ATOM     19  C   UNL     1      10.236   1.998  22.495  0.00  0.00    +0.109 C 
ENDBRANCH  14  15
ENDBRANCH  13  14
ENDBRANCH   8  13
TORSDOF 4
ENDMDL
MODEL 8
REMARK VINA RESULT:      -5.6      2.698      5.844
REMARK  Name = 
REMARK  6 active torsions:
REMARK  status: ('A' for Active; 'I' for Inactive)
REMARK    1  A    between atoms: C_1  and  O_2
REMARK    2  A    between atoms: O_2  and  C_3
REMARK    3  A    between atoms: C_10  and  C_11
REMARK    4  A    between atoms: C_11  and  C_12
REMARK    5  A    between atoms: C_12  and  N_13
REMARK    6  A    between atoms: C_14  and  C_15
REMARK                            x       y       z     vdW  Elec       q    Type
REMARK                         _______ _______ _______ _____ _____    ______ ____
ROOT
ATOM      1  C   UNL     1       8.483  -1.027  22.987  0.00  0.00    +0.121 A 
ATOM      2  C   UNL     1       9.797  -1.474  23.035  0.00  0.00    +0.046 A 
ATOM      3  C   UNL     1      10.102  -2.643  23.734  0.00  0.00    +0.012 A 
ATOM      4  C   UNL     1       9.101  -3.378  24.390  0.00  0.00    -0.017 A 
ATOM      5  C   UNL     1       9.442  -4.515  25.136  0.00  0.00    +0.008 A 
ATOM      6  C   UNL     1       8.466  -5.249  25.797  0.00  0.00    +0.001 A 
ATOM      7  C   UNL     1       7.125  -4.883  25.695  0.00  0.00    +0.004 A 
ATOM      8  C   UNL     1       6.735  -3.755  24.950  0.00  0.00    -0.038 A 
ATOM      9  C   UNL     1       7.742  -2.977  24.297  0.00  0.00    -0.011 A 
ATOM     10  C   UNL     1       7.473  -1.799  23.563  0.00  0.00    +0.054 A 
ENDROOT
BRANCH   1  12
ATOM     11  C   UNL     1       9.337   0.565  21.485  0.00  0.00    +0.277 C 
ATOM     12  O   UNL     1       8.265   0.160  22.339  0.00  0.00    -0.495 OA
ENDBRANCH   1  12
BRANCH   8  13
ATOM     13  C   UNL     1       5.254  -3.442  24.766  0.00  0.00    +0.054 C 
BRANCH  13  14
ATOM     14  C   UNL     1       4.471  -4.297  23.761  0.00  0.00    +0.109 C 
BRANCH  14  15
ATOM     15  N   UNL     1       5.324  -5.203  23.002  0.00  0.00    -0.315 N 
ATOM     16  H   UNL     1       5.395  -6.160  23.321  0.00  0.00    +0.149 HD
ATOM     17  C   UNL     1       5.838  -4.877  21.767  0.00  0.00    +0.210 C 
ATOM     18  O   UNL     1       5.693  -3.782  21.232  0.00  0.00    -0.276 OA
ATOM     19  C   UNL     1       6.624  -5.980  21.110  0.00  0.00    +0.109 C 
ENDBRANCH  14  15
ENDBRANCH  13  14
ENDBRANCH   8  13
TORSDOF 4
ENDMDL
MODEL 9
REMARK VINA RESULT:      -5.6      3.114      4.769
REMARK  Name = 
REMARK  6 active torsions:
REMARK  status: ('A' for Active; 'I' for Inactive)
REMARK    1  A    between atoms: C_1  and  O_2
REMARK    2  A    between atoms: O_2  and  C_3
REMARK    3  A    between atoms: C_10  and  C_11
REMARK    4  A    between atoms: C_11  and  C_12
REMARK    5  A    between atoms: C_12  and  N_13
REMARK    6  A    between atoms: C_14  and  C_15
REMARK                            x       y       z     vdW  Elec       q    Type
REMARK                         _______ _______ _______ _____ _____    ______ ____
ROOT
ATOM      1  C   UNL     1       6.558  -5.225  26.565  0.00  0.00    +0.121 A 
ATOM      2  C   UNL     1       6.506  -3.991  27.197  0.00  0.00    +0.046 A 
ATOM      3  C   UNL     1       6.803  -2.833  26.477  0.00  0.00    +0.012 A 
ATOM      4  C   UNL     1       7.155  -2.895  25.118  0.00  0.00    -0.017 A 
ATOM      5  C   UNL     1       7.508  -1.725  24.432  0.00  0.00    +0.008 A 
ATOM      6  C   UNL     1       7.866  -1.769  23.090  0.00  0.00    +0.001 A 
ATOM      7  C   UNL     1       7.842  -2.979  22.399  0.00  0.00    +0.004 A 
ATOM      8  C   UNL     1       7.484  -4.177  23.043  0.00  0.00    -0.038 A 
ATOM      9  C   UNL     1       7.150  -4.140  24.433  0.00  0.00    -0.011 A 
ATOM     10  C   UNL     1       6.823  -5.285  25.195  0.00  0.00    +0.054 A 
ENDROOT
BRANCH   1  12
ATOM     11  C   UNL     1       4.975  -6.806  27.279  0.00  0.00    +0.277 C 
ATOM     12  O   UNL     1       6.318  -6.324  27.347  0.00  0.00    -0.495 OA
ENDBRANCH   1  12
BRANCH   8  13
ATOM     13  C   UNL     1       7.361  -5.465  22.237  0.00  0.00    +0.054 C 
BRANCH  13  14
ATOM     14  C   UNL     1       6.052  -5.695  21.470  0.00  0.00    +0.109 C 
BRANCH  14  15
ATOM     15  N   UNL     1       5.044  -6.389  22.261  0.00  0.00    -0.315 N 
ATOM     16  H   UNL     1       5.184  -7.374  22.441  0.00  0.00    +0.149 HD
ATOM     17  C   UNL     1       4.056  -5.724  22.951  0.00  0.00    +0.210 C 
ATOM     18  O   UNL     1       3.886  -4.509  22.903  0.00  0.00    -0.276 OA
ATOM     19  C   UNL     1       3.165  -6.615  23.774  0.00  0.00    +0.109 C 
ENDBRANCH  14  15
ENDBRANCH  13  14
ENDBRANCH   8  13
TORSDOF 4
ENDMDL
