MODEL 1
REMARK VINA RESULT:      -7.4      0.000      0.000
REMARK  Name = 
REMARK  5 active torsions:
REMARK  status: ('A' for Active; 'I' for Inactive)
REMARK    1  A    between atoms: N_1  and  S_2
REMARK    2  A    between atoms: S_2  and  C_5
REMARK    3  A    between atoms: C_8  and  C_11
REMARK    4  A    between atoms: N_13  and  C_14
REMARK    5  A    between atoms: C_14  and  C_15
REMARK                            x       y       z     vdW  Elec       q    Type
REMARK                         _______ _______ _______ _____ _____    ______ ____
ROOT
ATOM      1  C   UNL     1       9.353  -3.892  24.373  0.00  0.00    +0.244 C 
ATOM      2  N   UNL     1       9.912  -2.825  23.695  0.00  0.00    -0.307 N 
ATOM      3  H   UNL     1      10.870  -2.631  23.963  0.00  0.00    +0.149 HD
ATOM      4  O   UNL     1      10.053  -4.592  25.099  0.00  0.00    -0.270 OA
ENDROOT
BRANCH   1   8
ATOM      5  C   UNL     1       5.309  -5.232  24.052  0.00  0.00    +0.105 A 
ATOM      6  C   UNL     1       5.661  -4.292  25.029  0.00  0.00    +0.029 A 
ATOM      7  C   UNL     1       6.974  -3.813  25.087  0.00  0.00    +0.015 A 
ATOM      8  C   UNL     1       7.920  -4.253  24.154  0.00  0.00    +0.037 A 
ATOM      9  C   UNL     1       7.504  -5.062  23.088  0.00  0.00    +0.015 A 
ATOM     10  C   UNL     1       6.221  -5.602  23.065  0.00  0.00    +0.029 A 
BRANCH   5  11
ATOM     11  S   UNL     1       3.692  -5.945  24.052  0.00  0.00    +0.056 S 
ATOM     12  O   UNL     1       3.049  -5.641  25.313  0.00  0.00    -0.153 OA
ATOM     13  O   UNL     1       3.062  -5.699  22.779  0.00  0.00    -0.153 OA
BRANCH  11  14
ATOM     14  N   UNL     1       4.041  -7.582  24.088  0.00  0.00    -0.204 NA
ATOM     15  H   UNL     1       4.552  -7.817  24.940  0.00  0.00    +0.144 HD
ATOM     16  H   UNL     1       3.183  -8.117  23.964  0.00  0.00    +0.144 HD
ENDBRANCH  11  14
ENDBRANCH   5  11
ENDBRANCH   1   8
BRANCH   2  17
ATOM     17  C   UNL     1       9.215  -1.858  22.877  0.00  0.00    +0.142 C 
BRANCH  17  18
ATOM     18  C   UNL     1       9.564  -0.422  23.103  0.00  0.00    +0.005 A 
ATOM     19  C   UNL     1      10.023   0.026  24.349  0.00  0.00    +0.011 A 
ATOM     20  C   UNL     1      10.512   1.328  24.477  0.00  0.00    +0.039 A 
ATOM     21  C   UNL     1      10.542   2.171  23.371  0.00  0.00    +0.126 A 
ATOM     22  F   UNL     1      11.042   3.408  23.497  0.00  0.00    -0.205 F 
ATOM     23  C   UNL     1      10.087   1.747  22.130  0.00  0.00    +0.077 A 
ATOM     24  C   UNL     1       9.606   0.452  22.010  0.00  0.00    +0.131 A 
ATOM     25  F   UNL     1       9.222   0.025  20.797  0.00  0.00    -0.205 F 
ENDBRANCH  17  18
ENDBRANCH   2  17
TORSDOF 5
ENDMDL
MODEL 2
REMARK VINA RESULT:      -7.3      1.080      1.518
REMARK  Name = 
REMARK  5 active torsions:
REMARK  status: ('A' for Active; 'I' for Inactive)
REMARK    1  A    between atoms: N_1  and  S_2
REMARK    2  A    between atoms: S_2  and  C_5
REMARK    3  A    between atoms: C_8  and  C_11
REMARK    4  A    between atoms: N_13  and  C_14
REMARK    5  A    between atoms: C_14  and  C_15
REMARK                            x       y       z     vdW  Elec       q    Type
REMARK                         _______ _______ _______ _____ _____    ______ ____
ROOT
ATOM      1  C   UNL     1       9.343  -4.407  24.886  0.00  0.00    +0.244 C 
ATOM      2  N   UNL     1       9.542  -3.052  24.701  0.00  0.00    -0.307 N 
ATOM      3  H   UNL     1      10.487  -2.749  24.903  0.00  0.00    +0.149 HD
ATOM      4  O   UNL     1      10.300  -5.141  25.119  0.00  0.00    -0.270 OA
ENDROOT
BRANCH   1   8
ATOM      5  C   UNL     1       5.310  -5.694  24.308  0.00  0.00    +0.105 A 
ATOM      6  C   UNL     1       6.165  -5.547  23.207  0.00  0.00    +0.029 A 
ATOM      7  C   UNL     1       7.500  -5.184  23.411  0.00  0.00    +0.015 A 
ATOM      8  C   UNL     1       7.983  -4.998  24.712  0.00  0.00    +0.037 A 
ATOM      9  C   UNL     1       7.157  -5.313  25.799  0.00  0.00    +0.015 A 
ATOM     10  C   UNL     1       5.808  -5.601  25.606  0.00  0.00    +0.029 A 
BRANCH   5  11
ATOM     11  S   UNL     1       3.592  -6.018  24.057  0.00  0.00    +0.056 S 
ATOM     12  O   UNL     1       2.869  -5.648  25.255  0.00  0.00    -0.153 OA
ATOM     13  O   UNL     1       3.207  -5.563  22.744  0.00  0.00    -0.153 OA
BRANCH  11  14
ATOM     14  N   UNL     1       3.567  -7.691  23.994  0.00  0.00    -0.204 NA
ATOM     15  H   UNL     1       2.615  -8.026  23.840  0.00  0.00    +0.144 HD
ATOM     16  H   UNL     1       4.233  -8.017  23.295  0.00  0.00    +0.144 HD
ENDBRANCH  11  14
ENDBRANCH   5  11
ENDBRANCH   1   8
BRANCH   2  17
ATOM     17  C   UNL     1       8.521  -2.047  24.507  0.00  0.00    +0.142 C 
BRANCH  17  18
ATOM     18  C   UNL     1       8.932  -0.818  23.763  0.00  0.00    +0.005 A 
ATOM     19  C   UNL     1       9.409   0.315  24.436  0.00  0.00    +0.011 A 
ATOM     20  C   UNL     1       9.955   1.374  23.708  0.00  0.00    +0.039 A 
ATOM     21  C   UNL     1      10.023   1.300  22.320  0.00  0.00    +0.126 A 
ATOM     22  F   UNL     1      10.576   2.308  21.632  0.00  0.00    -0.205 F 
ATOM     23  C   UNL     1       9.550   0.190  21.634  0.00  0.00    +0.077 A 
ATOM     24  C   UNL     1       9.013  -0.859  22.366  0.00  0.00    +0.131 A 
ATOM     25  F   UNL     1       8.612  -1.956  21.705  0.00  0.00    -0.205 F 
ENDBRANCH  17  18
ENDBRANCH   2  17
TORSDOF 5
ENDMDL
MODEL 3
REMARK VINA RESULT:      -7.0      2.984      3.652
REMARK  Name = 
REMARK  5 active torsions:
REMARK  status: ('A' for Active; 'I' for Inactive)
REMARK    1  A    between atoms: N_1  and  S_2
REMARK    2  A    between atoms: S_2  and  C_5
REMARK    3  A    between atoms: C_8  and  C_11
REMARK    4  A    between atoms: N_13  and  C_14
REMARK    5  A    between atoms: C_14  and  C_15
REMARK                            x       y       z     vdW  Elec       q    Type
REMARK                         _______ _______ _______ _____ _____    ______ ____
ROOT
ATOM      1  C   UNL     1       7.295  -5.016  22.884  0.00  0.00    +0.244 C 
ATOM      2  N   UNL     1       7.268  -3.801  22.227  0.00  0.00    -0.307 N 
ATOM      3  H   UNL     1       7.615  -3.846  21.276  0.00  0.00    +0.149 HD
ATOM      4  O   UNL     1       7.573  -6.041  22.267  0.00  0.00    -0.270 OA
ENDROOT
BRANCH   1   8
ATOM      5  C   UNL     1       6.290  -5.678  26.983  0.00  0.00    +0.105 A 
ATOM      6  C   UNL     1       7.594  -5.306  26.632  0.00  0.00    +0.029 A 
ATOM      7  C   UNL     1       7.899  -5.032  25.295  0.00  0.00    +0.015 A 
ATOM      8  C   UNL     1       6.896  -5.103  24.320  0.00  0.00    +0.037 A 
ATOM      9  C   UNL     1       5.569  -5.312  24.719  0.00  0.00    +0.015 A 
ATOM     10  C   UNL     1       5.269  -5.659  26.035  0.00  0.00    +0.029 A 
BRANCH   5  11
ATOM     11  S   UNL     1       5.924  -6.156  28.644  0.00  0.00    +0.056 S 
ATOM     12  O   UNL     1       7.063  -6.866  29.186  0.00  0.00    -0.153 OA
ATOM     13  O   UNL     1       5.295  -5.055  29.331  0.00  0.00    -0.153 OA
BRANCH  11  14
ATOM     14  N   UNL     1       4.726  -7.303  28.412  0.00  0.00    -0.204 NA
ATOM     15  H   UNL     1       4.859  -8.089  29.050  0.00  0.00    +0.144 HD
ATOM     16  H   UNL     1       3.811  -6.863  28.492  0.00  0.00    +0.144 HD
ENDBRANCH  11  14
ENDBRANCH   5  11
ENDBRANCH   1   8
BRANCH   2  17
ATOM     17  C   UNL     1       7.047  -2.501  22.820  0.00  0.00    +0.142 C 
BRANCH  17  18
ATOM     18  C   UNL     1       8.249  -1.814  23.383  0.00  0.00    +0.005 A 
ATOM     19  C   UNL     1       9.303  -1.402  22.557  0.00  0.00    +0.011 A 
ATOM     20  C   UNL     1      10.323  -0.604  23.083  0.00  0.00    +0.039 A 
ATOM     21  C   UNL     1      10.286  -0.224  24.420  0.00  0.00    +0.126 A 
ATOM     22  F   UNL     1      11.251   0.567  24.908  0.00  0.00    -0.205 F 
ATOM     23  C   UNL     1       9.253  -0.626  25.256  0.00  0.00    +0.077 A 
ATOM     24  C   UNL     1       8.243  -1.415  24.725  0.00  0.00    +0.131 A 
ATOM     25  F   UNL     1       7.216  -1.753  25.519  0.00  0.00    -0.205 F 
ENDBRANCH  17  18
ENDBRANCH   2  17
TORSDOF 5
ENDMDL
MODEL 4
REMARK VINA RESULT:      -7.0      3.930      6.539
REMARK  Name = 
REMARK  5 active torsions:
REMARK  status: ('A' for Active; 'I' for Inactive)
REMARK    1  A    between atoms: N_1  and  S_2
REMARK    2  A    between atoms: S_2  and  C_5
REMARK    3  A    between atoms: C_8  and  C_11
REMARK    4  A    between atoms: N_13  and  C_14
REMARK    5  A    between atoms: C_14  and  C_15
REMARK                            x       y       z     vdW  Elec       q    Type
REMARK                         _______ _______ _______ _____ _____    ______ ____
ROOT
ATOM      1  C   UNL     1       7.337  -4.687  26.740  0.00  0.00    +0.244 C 
ATOM      2  N   UNL     1       5.979  -4.839  26.534  0.00  0.00    -0.307 N 
ATOM      3  H   UNL     1       5.569  -5.590  27.076  0.00  0.00    +0.149 HD
ATOM      4  O   UNL     1       7.899  -5.326  27.625  0.00  0.00    -0.270 OA
ENDROOT
BRANCH   1   8
ATOM      5  C   UNL     1       9.181  -1.742  24.254  0.00  0.00    +0.105 A 
ATOM      6  C   UNL     1       8.449  -1.349  25.382  0.00  0.00    +0.029 A 
ATOM      7  C   UNL     1       7.900  -2.322  26.224  0.00  0.00    +0.015 A 
ATOM      8  C   UNL     1       8.108  -3.680  25.953  0.00  0.00    +0.037 A 
ATOM      9  C   UNL     1       8.981  -4.044  24.919  0.00  0.00    +0.015 A 
ATOM     10  C   UNL     1       9.470  -3.087  24.032  0.00  0.00    +0.029 A 
BRANCH   5  11
ATOM     11  S   UNL     1       9.764  -0.528  23.110  0.00  0.00    +0.056 S 
ATOM     12  O   UNL     1       8.628   0.202  22.588  0.00  0.00    -0.153 OA
ATOM     13  O   UNL     1      10.924   0.129  23.661  0.00  0.00    -0.153 OA
BRANCH  11  14
ATOM     14  N   UNL     1      10.324  -1.483  21.855  0.00  0.00    -0.204 NA
ATOM     15  H   UNL     1      10.682  -0.899  21.098  0.00  0.00    +0.144 HD
ATOM     16  H   UNL     1      11.005  -2.152  22.212  0.00  0.00    +0.144 HD
ENDBRANCH  11  14
ENDBRANCH   5  11
ENDBRANCH   1   8
BRANCH   2  17
ATOM     17  C   UNL     1       5.189  -4.232  25.486  0.00  0.00    +0.142 C 
BRANCH  17  18
ATOM     18  C   UNL     1       5.580  -4.564  24.082  0.00  0.00    +0.005 A 
ATOM     19  C   UNL     1       5.607  -5.891  23.630  0.00  0.00    +0.011 A 
ATOM     20  C   UNL     1       5.797  -6.154  22.272  0.00  0.00    +0.039 A 
ATOM     21  C   UNL     1       5.957  -5.102  21.376  0.00  0.00    +0.126 A 
ATOM     22  F   UNL     1       6.107  -5.364  20.071  0.00  0.00    -0.205 F 
ATOM     23  C   UNL     1       5.938  -3.782  21.805  0.00  0.00    +0.077 A 
ATOM     24  C   UNL     1       5.746  -3.529  23.155  0.00  0.00    +0.131 A 
ATOM     25  F   UNL     1       5.669  -2.251  23.558  0.00  0.00    -0.205 F 
ENDBRANCH  17  18
ENDBRANCH   2  17
TORSDOF 5
ENDMDL
MODEL 5
REMARK VINA RESULT:      -7.0      3.908      6.972
REMARK  Name = 
REMARK  5 active torsions:
REMARK  status: ('A' for Active; 'I' for Inactive)
REMARK    1  A    between atoms: N_1  and  S_2
REMARK    2  A    between atoms: S_2  and  C_5
REMARK    3  A    between atoms: C_8  and  C_11
REMARK    4  A    between atoms: N_13  and  C_14
REMARK    5  A    between atoms: C_14  and  C_15
REMARK                            x       y       z     vdW  Elec       q    Type
REMARK                         _______ _______ _______ _____ _____    ______ ____
ROOT
ATOM      1  C   UNL     1       4.961  -2.279  25.763  0.00  0.00    +0.244 C 
ATOM      2  N   UNL     1       4.807  -3.626  26.027  0.00  0.00    -0.307 N 
ATOM      3  H   UNL     1       3.969  -3.843  26.554  0.00  0.00    +0.149 HD
ATOM      4  O   UNL     1       4.056  -1.494  26.030  0.00  0.00    -0.270 OA
ENDROOT
BRANCH   1   8
ATOM      5  C   UNL     1       8.546  -1.278  23.665  0.00  0.00    +0.105 A 
ATOM      6  C   UNL     1       7.331  -1.375  22.973  0.00  0.00    +0.029 A 
ATOM      7  C   UNL     1       6.153  -1.643  23.677  0.00  0.00    +0.015 A 
ATOM      8  C   UNL     1       6.188  -1.785  25.070  0.00  0.00    +0.037 A 
ATOM      9  C   UNL     1       7.381  -1.519  25.754  0.00  0.00    +0.015 A 
ATOM     10  C   UNL     1       8.572  -1.326  25.058  0.00  0.00    +0.029 A 
BRANCH   5  11
ATOM     11  S   UNL     1      10.058  -1.075  22.774  0.00  0.00    +0.056 S 
ATOM     12  O   UNL     1      10.677   0.167  23.185  0.00  0.00    -0.153 OA
ATOM     13  O   UNL     1      10.771  -2.328  22.751  0.00  0.00    -0.153 OA
BRANCH  11  14
ATOM     14  N   UNL     1       9.503  -0.828  21.213  0.00  0.00    -0.204 NA
ATOM     15  H   UNL     1       8.903  -0.004  21.177  0.00  0.00    +0.144 HD
ATOM     16  H   UNL     1      10.294  -0.786  20.572  0.00  0.00    +0.144 HD
ENDBRANCH  11  14
ENDBRANCH   5  11
ENDBRANCH   1   8
BRANCH   2  17
ATOM     17  C   UNL     1       5.802  -4.662  25.856  0.00  0.00    +0.142 C 
BRANCH  17  18
ATOM     18  C   UNL     1       6.002  -5.167  24.464  0.00  0.00    +0.005 A 
ATOM     19  C   UNL     1       4.915  -5.543  23.664  0.00  0.00    +0.011 A 
ATOM     20  C   UNL     1       5.118  -5.836  22.313  0.00  0.00    +0.039 A 
ATOM     21  C   UNL     1       6.396  -5.753  21.770  0.00  0.00    +0.126 A 
ATOM     22  F   UNL     1       6.577  -6.005  20.467  0.00  0.00    -0.205 F 
ATOM     23  C   UNL     1       7.487  -5.388  22.547  0.00  0.00    +0.077 A 
ATOM     24  C   UNL     1       7.275  -5.095  23.886  0.00  0.00    +0.131 A 
ATOM     25  F   UNL     1       8.321  -4.685  24.621  0.00  0.00    -0.205 F 
ENDBRANCH  17  18
ENDBRANCH   2  17
TORSDOF 5
ENDMDL
MODEL 6
REMARK VINA RESULT:      -6.9      2.689      3.239
REMARK  Name = 
REMARK  5 active torsions:
REMARK  status: ('A' for Active; 'I' for Inactive)
REMARK    1  A    between atoms: N_1  and  S_2
REMARK    2  A    between atoms: S_2  and  C_5
REMARK    3  A    between atoms: C_8  and  C_11
REMARK    4  A    between atoms: N_13  and  C_14
REMARK    5  A    between atoms: C_14  and  C_15
REMARK                            x       y       z     vdW  Elec       q    Type
REMARK                         _______ _______ _______ _____ _____    ______ ____
ROOT
ATOM      1  C   UNL     1       9.015  -0.811  25.908  0.00  0.00    +0.244 C 
ATOM      2  N   UNL     1       9.946   0.165  25.609  0.00  0.00    -0.307 N 
ATOM      3  H   UNL     1      10.281   0.668  26.422  0.00  0.00    +0.149 HD
ATOM      4  O   UNL     1       8.781  -1.098  27.079  0.00  0.00    -0.270 OA
ENDROOT
BRANCH   1   8
ATOM      5  C   UNL     1       6.897  -3.215  23.081  0.00  0.00    +0.105 A 
ATOM      6  C   UNL     1       6.361  -1.991  23.503  0.00  0.00    +0.029 A 
ATOM      7  C   UNL     1       7.089  -1.183  24.382  0.00  0.00    +0.015 A 
ATOM      8  C   UNL     1       8.359  -1.585  24.812  0.00  0.00    +0.037 A 
ATOM      9  C   UNL     1       8.942  -2.727  24.246  0.00  0.00    +0.015 A 
ATOM     10  C   UNL     1       8.197  -3.575  23.431  0.00  0.00    +0.029 A 
BRANCH   5  11
ATOM     11  S   UNL     1       5.933  -4.305  22.080  0.00  0.00    +0.056 S 
ATOM     12  O   UNL     1       5.663  -3.659  20.814  0.00  0.00    -0.153 OA
ATOM     13  O   UNL     1       6.471  -5.640  22.173  0.00  0.00    -0.153 OA
BRANCH  11  14
ATOM     14  N   UNL     1       4.479  -4.333  22.910  0.00  0.00    -0.204 NA
ATOM     15  H   UNL     1       4.098  -5.280  22.925  0.00  0.00    +0.144 HD
ATOM     16  H   UNL     1       4.606  -3.929  23.837  0.00  0.00    +0.144 HD
ENDBRANCH  11  14
ENDBRANCH   5  11
ENDBRANCH   1   8
BRANCH   2  17
ATOM     17  C   UNL     1      10.271   0.679  24.297  0.00  0.00    +0.142 C 
BRANCH  17  18
ATOM     18  C   UNL     1       9.317   1.673  23.718  0.00  0.00    +0.005 A 
ATOM     19  C   UNL     1       9.146   2.938  24.296  0.00  0.00    +0.011 A 
ATOM     20  C   UNL     1       8.390   3.906  23.631  0.00  0.00    +0.039 A 
ATOM     21  C   UNL     1       7.812   3.610  22.400  0.00  0.00    +0.126 A 
ATOM     22  F   UNL     1       7.114   4.555  21.755  0.00  0.00    -0.205 F 
ATOM     23  C   UNL     1       7.965   2.361  21.814  0.00  0.00    +0.077 A 
ATOM     24  C   UNL     1       8.720   1.407  22.480  0.00  0.00    +0.131 A 
ATOM     25  F   UNL     1       8.916   0.221  21.883  0.00  0.00    -0.205 F 
ENDBRANCH  17  18
ENDBRANCH   2  17
TORSDOF 5
ENDMDL
MODEL 7
REMARK VINA RESULT:      -6.7      4.067      6.901
REMARK  Name = 
REMARK  5 active torsions:
REMARK  status: ('A' for Active; 'I' for Inactive)
REMARK    1  A    between atoms: N_1  and  S_2
REMARK    2  A    between atoms: S_2  and  C_5
REMARK    3  A    between atoms: C_8  and  C_11
REMARK    4  A    between atoms: N_13  and  C_14
REMARK    5  A    between atoms: C_14  and  C_15
REMARK                            x       y       z     vdW  Elec       q    Type
REMARK                         _______ _______ _______ _____ _____    ______ ____
ROOT
ATOM      1  C   UNL     1       6.358  -3.676  21.841  0.00  0.00    +0.244 C 
ATOM      2  N   UNL     1       6.713  -4.967  22.185  0.00  0.00    -0.307 N 
ATOM      3  H   UNL     1       6.155  -5.677  21.726  0.00  0.00    +0.149 HD
ATOM      4  O   UNL     1       5.545  -3.483  20.941  0.00  0.00    -0.270 OA
ENDROOT
BRANCH   1   8
ATOM      5  C   UNL     1       8.470  -0.636  23.973  0.00  0.00    +0.105 A 
ATOM      6  C   UNL     1       9.078  -1.285  22.890  0.00  0.00    +0.029 A 
ATOM      7  C   UNL     1       8.357  -2.235  22.160  0.00  0.00    +0.015 A 
ATOM      8  C   UNL     1       7.027  -2.513  22.495  0.00  0.00    +0.037 A 
ATOM      9  C   UNL     1       6.391  -1.734  23.471  0.00  0.00    +0.015 A 
ATOM     10  C   UNL     1       7.120  -0.839  24.252  0.00  0.00    +0.029 A 
BRANCH   5  11
ATOM     11  S   UNL     1       9.410   0.466  24.985  0.00  0.00    +0.056 S 
ATOM     12  O   UNL     1      10.810   0.328  24.647  0.00  0.00    -0.153 OA
ATOM     13  O   UNL     1       8.746   1.745  25.043  0.00  0.00    -0.153 OA
BRANCH  11  14
ATOM     14  N   UNL     1       9.224  -0.222  26.501  0.00  0.00    -0.204 NA
ATOM     15  H   UNL     1       9.219  -1.240  26.429  0.00  0.00    +0.144 HD
ATOM     16  H   UNL     1       9.939   0.140  27.130  0.00  0.00    +0.144 HD
ENDBRANCH  11  14
ENDBRANCH   5  11
ENDBRANCH   1   8
BRANCH   2  17
ATOM     17  C   UNL     1       7.581  -5.365  23.270  0.00  0.00    +0.142 C 
BRANCH  17  18
ATOM     18  C   UNL     1       7.077  -5.108  24.653  0.00  0.00    +0.005 A 
ATOM     19  C   UNL     1       5.909  -5.721  25.127  0.00  0.00    +0.011 A 
ATOM     20  C   UNL     1       5.565  -5.606  26.476  0.00  0.00    +0.039 A 
ATOM     21  C   UNL     1       6.382  -4.885  27.341  0.00  0.00    +0.126 A 
ATOM     22  F   UNL     1       6.061  -4.806  28.639  0.00  0.00    -0.205 F 
ATOM     23  C   UNL     1       7.539  -4.265  26.890  0.00  0.00    +0.077 A 
ATOM     24  C   UNL     1       7.875  -4.388  25.550  0.00  0.00    +0.131 A 
ATOM     25  F   UNL     1       9.025  -3.839  25.129  0.00  0.00    -0.205 F 
ENDBRANCH  17  18
ENDBRANCH   2  17
TORSDOF 5
ENDMDL
MODEL 8
REMARK VINA RESULT:      -6.6      2.483      2.899
REMARK  Name = 
REMARK  5 active torsions:
REMARK  status: ('A' for Active; 'I' for Inactive)
REMARK    1  A    between atoms: N_1  and  S_2
REMARK    2  A    between atoms: S_2  and  C_5
REMARK    3  A    between atoms: C_8  and  C_11
REMARK    4  A    between atoms: N_13  and  C_14
REMARK    5  A    between atoms: C_14  and  C_15
REMARK                            x       y       z     vdW  Elec       q    Type
REMARK                         _______ _______ _______ _____ _____    ______ ____
ROOT
ATOM      1  C   UNL     1       9.875  -1.461  22.924  0.00  0.00    +0.244 C 
ATOM      2  N   UNL     1       9.865  -0.158  23.381  0.00  0.00    -0.307 N 
ATOM      3  H   UNL     1      10.755   0.316  23.275  0.00  0.00    +0.149 HD
ATOM      4  O   UNL     1      10.850  -1.890  22.314  0.00  0.00    -0.270 OA
ENDROOT
BRANCH   1   8
ATOM      5  C   UNL     1       6.644  -4.244  23.194  0.00  0.00    +0.105 A 
ATOM      6  C   UNL     1       7.642  -4.229  24.178  0.00  0.00    +0.029 A 
ATOM      7  C   UNL     1       8.662  -3.274  24.115  0.00  0.00    +0.015 A 
ATOM      8  C   UNL     1       8.667  -2.324  23.087  0.00  0.00    +0.037 A 
ATOM      9  C   UNL     1       7.572  -2.254  22.215  0.00  0.00    +0.015 A 
ATOM     10  C   UNL     1       6.592  -3.244  22.225  0.00  0.00    +0.029 A 
BRANCH   5  11
ATOM     11  S   UNL     1       5.429  -5.526  23.187  0.00  0.00    +0.056 S 
ATOM     12  O   UNL     1       5.423  -6.170  24.483  0.00  0.00    -0.153 OA
ATOM     13  O   UNL     1       4.227  -5.040  22.554  0.00  0.00    -0.153 OA
BRANCH  11  14
ATOM     14  N   UNL     1       6.101  -6.628  22.120  0.00  0.00    -0.204 NA
ATOM     15  H   UNL     1       5.369  -7.084  21.574  0.00  0.00    +0.144 HD
ATOM     16  H   UNL     1       6.807  -6.165  21.550  0.00  0.00    +0.144 HD
ENDBRANCH  11  14
ENDBRANCH   5  11
ENDBRANCH   1   8
BRANCH   2  17
ATOM     17  C   UNL     1       8.841   0.470  24.186  0.00  0.00    +0.142 C 
BRANCH  17  18
ATOM     18  C   UNL     1       8.338   1.794  23.707  0.00  0.00    +0.005 A 
ATOM     19  C   UNL     1       8.986   2.986  24.055  0.00  0.00    +0.011 A 
ATOM     20  C   UNL     1       8.604   4.184  23.447  0.00  0.00    +0.039 A 
ATOM     21  C   UNL     1       7.584   4.187  22.500  0.00  0.00    +0.126 A 
ATOM     22  F   UNL     1       7.245   5.336  21.899  0.00  0.00    -0.205 F 
ATOM     23  C   UNL     1       6.926   3.017  22.147  0.00  0.00    +0.077 A 
ATOM     24  C   UNL     1       7.315   1.832  22.753  0.00  0.00    +0.131 A 
ATOM     25  F   UNL     1       6.718   0.694  22.366  0.00  0.00    -0.205 F 
ENDBRANCH  17  18
ENDBRANCH   2  17
TORSDOF 5
ENDMDL
MODEL 9
REMARK VINA RESULT:      -6.6      4.426      6.584
REMARK  Name = 
REMARK  5 active torsions:
REMARK  status: ('A' for Active; 'I' for Inactive)
REMARK    1  A    between atoms: N_1  and  S_2
REMARK    2  A    between atoms: S_2  and  C_5
REMARK    3  A    between atoms: C_8  and  C_11
REMARK    4  A    between atoms: N_13  and  C_14
REMARK    5  A    between atoms: C_14  and  C_15
REMARK                            x       y       z     vdW  Elec       q    Type
REMARK                         _______ _______ _______ _____ _____    ______ ____
ROOT
ATOM      1  C   UNL     1       9.287  -3.183  24.036  0.00  0.00    +0.244 C 
ATOM      2  N   UNL     1       8.005  -3.605  23.739  0.00  0.00    -0.307 N 
ATOM      3  H   UNL     1       7.891  -4.612  23.774  0.00  0.00    +0.149 HD
ATOM      4  O   UNL     1      10.118  -3.988  24.449  0.00  0.00    -0.270 OA
ENDROOT
BRANCH   1   8
ATOM      5  C   UNL     1       9.873   1.040  23.771  0.00  0.00    +0.105 A 
ATOM      6  C   UNL     1       9.676   0.436  25.020  0.00  0.00    +0.029 A 
ATOM      7  C   UNL     1       9.546  -0.954  25.103  0.00  0.00    +0.015 A 
ATOM      8  C   UNL     1       9.641  -1.736  23.946  0.00  0.00    +0.037 A 
ATOM      9  C   UNL     1      10.004  -1.126  22.737  0.00  0.00    +0.015 A 
ATOM     10  C   UNL     1      10.061   0.262  22.631  0.00  0.00    +0.029 A 
BRANCH   5  11
ATOM     11  S   UNL     1       9.903   2.801  23.636  0.00  0.00    +0.056 S 
ATOM     12  O   UNL     1       9.092   3.364  24.694  0.00  0.00    -0.153 OA
ATOM     13  O   UNL     1      11.253   3.237  23.376  0.00  0.00    -0.153 OA
BRANCH  11  14
ATOM     14  N   UNL     1       9.054   3.049  22.214  0.00  0.00    -0.204 NA
ATOM     15  H   UNL     1       8.600   2.184  21.917  0.00  0.00    +0.144 HD
ATOM     16  H   UNL     1       8.410   3.829  22.332  0.00  0.00    +0.144 HD
ENDBRANCH  11  14
ENDBRANCH   5  11
ENDBRANCH   1   8
BRANCH   2  17
ATOM     17  C   UNL     1       6.943  -2.810  23.165  0.00  0.00    +0.142 C 
BRANCH  17  18
ATOM     18  C   UNL     1       6.237  -1.875  24.094  0.00  0.00    +0.005 A 
ATOM     19  C   UNL     1       5.701  -2.324  25.308  0.00  0.00    +0.011 A 
ATOM     20  C   UNL     1       5.213  -1.398  26.233  0.00  0.00    +0.039 A 
ATOM     21  C   UNL     1       5.260  -0.038  25.944  0.00  0.00    +0.126 A 
ATOM     22  F   UNL     1       4.817   0.844  26.850  0.00  0.00    -0.205 F 
ATOM     23  C   UNL     1       5.781   0.426  24.745  0.00  0.00    +0.077 A 
ATOM     24  C   UNL     1       6.268  -0.500  23.834  0.00  0.00    +0.131 A 
ATOM     25  F   UNL     1       6.825  -0.046  22.701  0.00  0.00    -0.205 F 
ENDBRANCH  17  18
ENDBRANCH   2  17
TORSDOF 5
ENDMDL
