MODEL 1
REMARK VINA RESULT:      -7.8      0.000      0.000
REMARK  Name = 
REMARK  6 active torsions:
REMARK  status: ('A' for Active; 'I' for Inactive)
REMARK    1  A    between atoms: C_1  and  C_2
REMARK    2  A    between atoms: C_5  and  N_6
REMARK    3  A    between atoms: C_7  and  C_9
REMARK    4  A    between atoms: C_13  and  C_15
REMARK    5  A    between atoms: C_20  and  N_21
REMARK    6  A    between atoms: C_27  and  C_28
REMARK                            x       y       z     vdW  Elec       q    Type
REMARK                         _______ _______ _______ _____ _____    ______ ____
ROOT
ATOM      1  C   UNL     1       8.105  -4.948  23.604  0.00  0.00    +0.045 C 
ATOM      2  C   UNL     1       8.236  -3.504  23.999  0.00  0.00    -0.029 A 
ATOM      3  C   UNL     1       7.129  -2.657  24.198  0.00  0.00    +0.037 A 
ATOM      4  C   UNL     1       7.376  -1.265  24.246  0.00  0.00    +0.046 A 
ATOM      5  C   UNL     1       8.663  -0.726  24.299  0.00  0.00    +0.035 A 
ATOM      6  C   UNL     1       9.734  -1.610  24.334  0.00  0.00    +0.024 A 
ATOM      7  C   UNL     1       9.527  -2.977  24.148  0.00  0.00    +0.007 A 
ENDROOT
BRANCH   3   8
ATOM      8  N   UNL     1       5.816  -3.169  24.377  0.00  0.00    -0.299 N 
ATOM      9  H   UNL     1       5.579  -3.995  23.837  0.00  0.00    +0.154 HD
ATOM     10  C   UNL     1       5.031  -3.067  25.556  0.00  0.00    +0.132 A 
ATOM     11  C   UNL     1       3.693  -3.512  25.614  0.00  0.00    +0.040 A 
ATOM     12  C   UNL     1       2.931  -3.027  26.708  0.00  0.00    +0.015 A 
ATOM     13  C   UNL     1       3.488  -2.250  27.715  0.00  0.00    +0.020 A 
ATOM     14  C   UNL     1       4.832  -2.000  27.641  0.00  0.00    +0.113 A 
ATOM     15  N   UNL     1       5.583  -2.397  26.605  0.00  0.00    -0.240 NA
BRANCH  11  16
ATOM     16  C   UNL     1       3.040  -4.430  24.641  0.00  0.00    +0.077 A 
ATOM     17  N   UNL     1       3.834  -5.266  23.936  0.00  0.00    -0.235 NA
ATOM     18  C   UNL     1       3.233  -6.009  22.988  0.00  0.00    +0.221 A 
ATOM     19  N   UNL     1       1.924  -6.024  22.693  0.00  0.00    -0.244 NA
ATOM     20  C   UNL     1       1.157  -5.221  23.439  0.00  0.00    +0.114 A 
ATOM     21  C   UNL     1       1.662  -4.419  24.437  0.00  0.00    +0.048 A 
ENDBRANCH  11  16
ENDBRANCH   3   8
BRANCH   5  22
ATOM     22  N   UNL     1       8.813   0.682  24.339  0.00  0.00    -0.281 N 
ATOM     23  H   UNL     1       8.293   1.165  25.060  0.00  0.00    +0.155 HD
ATOM     24  C   UNL     1       9.570   1.421  23.442  0.00  0.00    +0.248 C 
ATOM     25  O   UNL     1      10.157   0.964  22.461  0.00  0.00    -0.270 OA
BRANCH  24  26
ATOM     26  C   UNL     1       9.692   2.884  23.659  0.00  0.00    +0.038 A 
ATOM     27  C   UNL     1      10.955   3.442  23.400  0.00  0.00    +0.025 A 
ATOM     28  C   UNL     1      11.178   4.824  23.478  0.00  0.00    +0.056 A 
ATOM     29  C   UNL     1      10.107   5.651  23.837  0.00  0.00    +0.012 A 
ATOM     30  C   UNL     1       8.845   5.104  24.104  0.00  0.00    +0.001 A 
ATOM     31  C   UNL     1       8.635   3.721  24.011  0.00  0.00    +0.013 A 
BRANCH  28  32
ATOM     32  C   UNL     1      12.544   5.368  23.147  0.00  0.00    +0.417 C 
ATOM     33  F   UNL     1      12.679   5.669  21.826  0.00  0.00    -0.166 F 
ATOM     34  F   UNL     1      13.539   4.484  23.433  0.00  0.00    -0.166 F 
ATOM     35  F   UNL     1      12.854   6.510  23.822  0.00  0.00    -0.166 F 
ENDBRANCH  28  32
ENDBRANCH  24  26
ENDBRANCH   5  22
TORSDOF 5
ENDMDL
MODEL 2
REMARK VINA RESULT:      -7.8      1.561      2.703
REMARK  Name = 
REMARK  6 active torsions:
REMARK  status: ('A' for Active; 'I' for Inactive)
REMARK    1  A    between atoms: C_1  and  C_2
REMARK    2  A    between atoms: C_5  and  N_6
REMARK    3  A    between atoms: C_7  and  C_9
REMARK    4  A    between atoms: C_13  and  C_15
REMARK    5  A    between atoms: C_20  and  N_21
REMARK    6  A    between atoms: C_27  and  C_28
REMARK                            x       y       z     vdW  Elec       q    Type
REMARK                         _______ _______ _______ _____ _____    ______ ____
ROOT
ATOM      1  C   UNL     1       8.209  -4.484  26.435  0.00  0.00    +0.045 C 
ATOM      2  C   UNL     1       8.091  -3.006  26.189  0.00  0.00    -0.029 A 
ATOM      3  C   UNL     1       7.185  -2.450  25.267  0.00  0.00    +0.037 A 
ATOM      4  C   UNL     1       7.386  -1.101  24.889  0.00  0.00    +0.046 A 
ATOM      5  C   UNL     1       8.305  -0.266  25.528  0.00  0.00    +0.035 A 
ATOM      6  C   UNL     1       9.023  -0.790  26.594  0.00  0.00    +0.024 A 
ATOM      7  C   UNL     1       8.947  -2.150  26.898  0.00  0.00    +0.007 A 
ENDROOT
BRANCH   3   8
ATOM      8  N   UNL     1       6.088  -3.192  24.752  0.00  0.00    -0.299 N 
ATOM      9  H   UNL     1       5.164  -2.813  24.935  0.00  0.00    +0.154 HD
ATOM     10  C   UNL     1       6.101  -4.008  23.590  0.00  0.00    +0.132 A 
ATOM     11  C   UNL     1       4.993  -4.795  23.207  0.00  0.00    +0.040 A 
ATOM     12  C   UNL     1       5.264  -5.816  22.260  0.00  0.00    +0.015 A 
ATOM     13  C   UNL     1       6.510  -5.970  21.667  0.00  0.00    +0.020 A 
ATOM     14  C   UNL     1       7.476  -5.058  21.998  0.00  0.00    +0.113 A 
ATOM     15  N   UNL     1       7.282  -4.105  22.920  0.00  0.00    -0.240 NA
BRANCH  11  16
ATOM     16  C   UNL     1       3.601  -4.636  23.707  0.00  0.00    +0.077 A 
ATOM     17  N   UNL     1       3.375  -3.691  24.646  0.00  0.00    -0.235 NA
ATOM     18  C   UNL     1       2.130  -3.639  25.158  0.00  0.00    +0.221 A 
ATOM     19  N   UNL     1       1.088  -4.410  24.811  0.00  0.00    -0.244 NA
ATOM     20  C   UNL     1       1.331  -5.304  23.846  0.00  0.00    +0.114 A 
ATOM     21  C   UNL     1       2.563  -5.444  23.248  0.00  0.00    +0.048 A 
ENDBRANCH  11  16
ENDBRANCH   3   8
BRANCH   5  22
ATOM     22  N   UNL     1       8.443   1.069  25.076  0.00  0.00    -0.281 N 
ATOM     23  H   UNL     1       7.622   1.655  25.162  0.00  0.00    +0.155 HD
ATOM     24  C   UNL     1       9.588   1.593  24.495  0.00  0.00    +0.248 C 
ATOM     25  O   UNL     1      10.609   0.955  24.236  0.00  0.00    -0.270 OA
BRANCH  24  26
ATOM     26  C   UNL     1       9.606   3.034  24.141  0.00  0.00    +0.038 A 
ATOM     27  C   UNL     1      10.871   3.591  23.892  0.00  0.00    +0.025 A 
ATOM     28  C   UNL     1      11.018   4.917  23.460  0.00  0.00    +0.056 A 
ATOM     29  C   UNL     1       9.865   5.693  23.293  0.00  0.00    +0.012 A 
ATOM     30  C   UNL     1       8.599   5.149  23.547  0.00  0.00    +0.001 A 
ATOM     31  C   UNL     1       8.467   3.818  23.967  0.00  0.00    +0.013 A 
BRANCH  28  32
ATOM     32  C   UNL     1      12.398   5.446  23.165  0.00  0.00    +0.417 C 
ATOM     33  F   UNL     1      12.583   5.711  21.843  0.00  0.00    -0.166 F 
ATOM     34  F   UNL     1      13.377   4.566  23.511  0.00  0.00    -0.166 F 
ATOM     35  F   UNL     1      12.689   6.604  23.821  0.00  0.00    -0.166 F 
ENDBRANCH  28  32
ENDBRANCH  24  26
ENDBRANCH   5  22
TORSDOF 5
ENDMDL
MODEL 3
REMARK VINA RESULT:      -7.7      1.513      2.993
REMARK  Name = 
REMARK  6 active torsions:
REMARK  status: ('A' for Active; 'I' for Inactive)
REMARK    1  A    between atoms: C_1  and  C_2
REMARK    2  A    between atoms: C_5  and  N_6
REMARK    3  A    between atoms: C_7  and  C_9
REMARK    4  A    between atoms: C_13  and  C_15
REMARK    5  A    between atoms: C_20  and  N_21
REMARK    6  A    between atoms: C_27  and  C_28
REMARK                            x       y       z     vdW  Elec       q    Type
REMARK                         _______ _______ _______ _____ _____    ______ ____
ROOT
ATOM      1  C   UNL     1       8.351  -4.964  24.044  0.00  0.00    +0.045 C 
ATOM      2  C   UNL     1       8.604  -3.523  24.390  0.00  0.00    -0.029 A 
ATOM      3  C   UNL     1       7.696  -2.737  25.123  0.00  0.00    +0.037 A 
ATOM      4  C   UNL     1       7.888  -1.335  25.106  0.00  0.00    +0.046 A 
ATOM      5  C   UNL     1       9.028  -0.735  24.567  0.00  0.00    +0.035 A 
ATOM      6  C   UNL     1      10.016  -1.565  24.055  0.00  0.00    +0.024 A 
ATOM      7  C   UNL     1       9.793  -2.937  23.933  0.00  0.00    +0.007 A 
ENDROOT
BRANCH   3   8
ATOM      8  N   UNL     1       6.642  -3.317  25.880  0.00  0.00    -0.299 N 
ATOM      9  H   UNL     1       6.589  -3.043  26.856  0.00  0.00    +0.154 HD
ATOM     10  C   UNL     1       5.380  -3.729  25.379  0.00  0.00    +0.132 A 
ATOM     11  C   UNL     1       4.428  -4.392  26.183  0.00  0.00    +0.040 A 
ATOM     12  C   UNL     1       3.389  -5.058  25.482  0.00  0.00    +0.015 A 
ATOM     13  C   UNL     1       3.254  -4.979  24.102  0.00  0.00    +0.020 A 
ATOM     14  C   UNL     1       4.144  -4.185  23.432  0.00  0.00    +0.113 A 
ATOM     15  N   UNL     1       5.168  -3.574  24.043  0.00  0.00    -0.240 NA
BRANCH  11  16
ATOM     16  C   UNL     1       4.431  -4.442  27.670  0.00  0.00    +0.077 A 
ATOM     17  N   UNL     1       5.413  -5.148  28.273  0.00  0.00    -0.235 NA
ATOM     18  C   UNL     1       5.333  -5.266  29.612  0.00  0.00    +0.221 A 
ATOM     19  N   UNL     1       4.395  -4.731  30.409  0.00  0.00    -0.244 NA
ATOM     20  C   UNL     1       3.463  -3.998  29.788  0.00  0.00    +0.114 A 
ATOM     21  C   UNL     1       3.447  -3.807  28.425  0.00  0.00    +0.048 A 
ENDBRANCH  11  16
ENDBRANCH   3   8
BRANCH   5  22
ATOM     22  N   UNL     1       9.130   0.678  24.589  0.00  0.00    -0.281 N 
ATOM     23  H   UNL     1       8.841   1.132  25.446  0.00  0.00    +0.155 HD
ATOM     24  C   UNL     1       9.547   1.457  23.520  0.00  0.00    +0.248 C 
ATOM     25  O   UNL     1       9.820   1.034  22.397  0.00  0.00    -0.270 OA
BRANCH  24  26
ATOM     26  C   UNL     1       9.675   2.922  23.720  0.00  0.00    +0.038 A 
ATOM     27  C   UNL     1      10.935   3.474  23.437  0.00  0.00    +0.025 A 
ATOM     28  C   UNL     1      11.162   4.856  23.497  0.00  0.00    +0.056 A 
ATOM     29  C   UNL     1      10.099   5.689  23.866  0.00  0.00    +0.012 A 
ATOM     30  C   UNL     1       8.840   5.147  24.157  0.00  0.00    +0.001 A 
ATOM     31  C   UNL     1       8.625   3.764  24.082  0.00  0.00    +0.013 A 
BRANCH  28  32
ATOM     32  C   UNL     1      12.524   5.394  23.139  0.00  0.00    +0.417 C 
ATOM     33  F   UNL     1      13.525   4.524  23.445  0.00  0.00    -0.166 F 
ATOM     34  F   UNL     1      12.817   6.548  23.800  0.00  0.00    -0.166 F 
ATOM     35  F   UNL     1      12.668   5.677  21.815  0.00  0.00    -0.166 F 
ENDBRANCH  28  32
ENDBRANCH  24  26
ENDBRANCH   5  22
TORSDOF 5
ENDMDL
MODEL 4
REMARK VINA RESULT:      -7.5      5.108      6.538
REMARK  Name = 
REMARK  6 active torsions:
REMARK  status: ('A' for Active; 'I' for Inactive)
REMARK    1  A    between atoms: C_1  and  C_2
REMARK    2  A    between atoms: C_5  and  N_6
REMARK    3  A    between atoms: C_7  and  C_9
REMARK    4  A    between atoms: C_13  and  C_15
REMARK    5  A    between atoms: C_20  and  N_21
REMARK    6  A    between atoms: C_27  and  C_28
REMARK                            x       y       z     vdW  Elec       q    Type
REMARK                         _______ _______ _______ _____ _____    ______ ____
ROOT
ATOM      1  C   UNL     1      10.233  -1.783  22.608  0.00  0.00    +0.045 C 
ATOM      2  C   UNL     1       9.131  -0.775  22.777  0.00  0.00    -0.029 A 
ATOM      3  C   UNL     1       7.819  -1.125  23.146  0.00  0.00    +0.037 A 
ATOM      4  C   UNL     1       6.808  -0.153  22.959  0.00  0.00    +0.046 A 
ATOM      5  C   UNL     1       7.088   1.172  22.616  0.00  0.00    +0.035 A 
ATOM      6  C   UNL     1       8.421   1.539  22.484  0.00  0.00    +0.024 A 
ATOM      7  C   UNL     1       9.427   0.572  22.526  0.00  0.00    +0.007 A 
ENDROOT
BRANCH   3   8
ATOM      8  N   UNL     1       7.512  -2.390  23.716  0.00  0.00    -0.299 N 
ATOM      9  H   UNL     1       7.349  -2.403  24.719  0.00  0.00    +0.154 HD
ATOM     10  C   UNL     1       6.855  -3.466  23.063  0.00  0.00    +0.132 A 
ATOM     11  C   UNL     1       6.682  -4.728  23.671  0.00  0.00    +0.040 A 
ATOM     12  C   UNL     1       6.348  -5.792  22.795  0.00  0.00    +0.015 A 
ATOM     13  C   UNL     1       6.103  -5.592  21.442  0.00  0.00    +0.020 A 
ATOM     14  C   UNL     1       6.151  -4.304  20.982  0.00  0.00    +0.113 A 
ATOM     15  N   UNL     1       6.506  -3.273  21.761  0.00  0.00    -0.240 NA
BRANCH  11  16
ATOM     16  C   UNL     1       6.818  -5.017  25.125  0.00  0.00    +0.077 A 
ATOM     17  N   UNL     1       8.055  -4.952  25.665  0.00  0.00    -0.235 NA
ATOM     18  C   UNL     1       8.167  -5.320  26.956  0.00  0.00    +0.221 A 
ATOM     19  N   UNL     1       7.172  -5.717  27.764  0.00  0.00    -0.244 NA
ATOM     20  C   UNL     1       5.952  -5.725  27.214  0.00  0.00    +0.114 A 
ATOM     21  C   UNL     1       5.719  -5.366  25.906  0.00  0.00    +0.048 A 
ENDBRANCH  11  16
ENDBRANCH   3   8
BRANCH   5  22
ATOM     22  N   UNL     1       6.010   2.075  22.443  0.00  0.00    -0.281 N 
ATOM     23  H   UNL     1       5.786   2.322  21.487  0.00  0.00    +0.155 HD
ATOM     24  C   UNL     1       5.296   2.660  23.477  0.00  0.00    +0.248 C 
ATOM     25  O   UNL     1       5.542   2.525  24.676  0.00  0.00    -0.270 OA
BRANCH  24  26
ATOM     26  C   UNL     1       4.141   3.527  23.137  0.00  0.00    +0.038 A 
ATOM     27  C   UNL     1       3.501   3.252  21.917  0.00  0.00    +0.025 A 
ATOM     28  C   UNL     1       2.344   3.938  21.523  0.00  0.00    +0.056 A 
ATOM     29  C   UNL     1       1.837   4.929  22.372  0.00  0.00    +0.012 A 
ATOM     30  C   UNL     1       2.472   5.217  23.587  0.00  0.00    +0.001 A 
ATOM     31  C   UNL     1       3.623   4.514  23.973  0.00  0.00    +0.013 A 
BRANCH  28  32
ATOM     32  C   UNL     1       1.676   3.568  20.223  0.00  0.00    +0.417 C 
ATOM     33  F   UNL     1       0.444   4.130  20.093  0.00  0.00    -0.166 F 
ATOM     34  F   UNL     1       1.490   2.225  20.098  0.00  0.00    -0.166 F 
ATOM     35  F   UNL     1       2.378   3.951  19.121  0.00  0.00    -0.166 F 
ENDBRANCH  28  32
ENDBRANCH  24  26
ENDBRANCH   5  22
TORSDOF 5
ENDMDL
MODEL 5
REMARK VINA RESULT:      -7.5      5.257      9.705
REMARK  Name = 
REMARK  6 active torsions:
REMARK  status: ('A' for Active; 'I' for Inactive)
REMARK    1  A    between atoms: C_1  and  C_2
REMARK    2  A    between atoms: C_5  and  N_6
REMARK    3  A    between atoms: C_7  and  C_9
REMARK    4  A    between atoms: C_13  and  C_15
REMARK    5  A    between atoms: C_20  and  N_21
REMARK    6  A    between atoms: C_27  and  C_28
REMARK                            x       y       z     vdW  Elec       q    Type
REMARK                         _______ _______ _______ _____ _____    ______ ____
ROOT
ATOM      1  C   UNL     1      10.752   3.150  23.366  0.00  0.00    +0.045 C 
ATOM      2  C   UNL     1       9.793   2.026  23.089  0.00  0.00    -0.029 A 
ATOM      3  C   UNL     1       8.616   1.820  23.832  0.00  0.00    +0.037 A 
ATOM      4  C   UNL     1       7.973   0.566  23.697  0.00  0.00    +0.046 A 
ATOM      5  C   UNL     1       8.342  -0.373  22.732  0.00  0.00    +0.035 A 
ATOM      6  C   UNL     1       9.368  -0.034  21.859  0.00  0.00    +0.024 A 
ATOM      7  C   UNL     1      10.109   1.131  22.057  0.00  0.00    +0.007 A 
ENDROOT
BRANCH   3   8
ATOM      8  N   UNL     1       8.066   2.832  24.665  0.00  0.00    -0.299 N 
ATOM      9  H   UNL     1       8.514   2.963  25.566  0.00  0.00    +0.154 HD
ATOM     10  C   UNL     1       7.410   4.011  24.226  0.00  0.00    +0.132 A 
ATOM     11  C   UNL     1       6.799   4.915  25.123  0.00  0.00    +0.040 A 
ATOM     12  C   UNL     1       5.886   5.832  24.543  0.00  0.00    +0.015 A 
ATOM     13  C   UNL     1       5.680   5.911  23.172  0.00  0.00    +0.020 A 
ATOM     14  C   UNL     1       6.435   5.090  22.379  0.00  0.00    +0.113 A 
ATOM     15  N   UNL     1       7.276   4.176  22.881  0.00  0.00    -0.240 NA
BRANCH  11  16
ATOM     16  C   UNL     1       7.039   4.976  26.590  0.00  0.00    +0.077 A 
ATOM     17  N   UNL     1       6.857   3.843  27.304  0.00  0.00    -0.235 NA
ATOM     18  C   UNL     1       6.976   3.950  28.641  0.00  0.00    +0.221 A 
ATOM     19  N   UNL     1       7.284   5.059  29.332  0.00  0.00    -0.244 NA
ATOM     20  C   UNL     1       7.504   6.154  28.594  0.00  0.00    +0.114 A 
ATOM     21  C   UNL     1       7.413   6.161  27.220  0.00  0.00    +0.048 A 
ENDBRANCH  11  16
ENDBRANCH   3   8
BRANCH   5  22
ATOM     22  N   UNL     1       7.644  -1.604  22.675  0.00  0.00    -0.281 N 
ATOM     23  H   UNL     1       6.710  -1.569  22.288  0.00  0.00    +0.155 HD
ATOM     24  C   UNL     1       8.134  -2.812  23.149  0.00  0.00    +0.248 C 
ATOM     25  O   UNL     1       9.205  -2.963  23.737  0.00  0.00    -0.270 OA
BRANCH  24  26
ATOM     26  C   UNL     1       7.315  -4.033  22.950  0.00  0.00    +0.038 A 
ATOM     27  C   UNL     1       6.694  -4.553  24.098  0.00  0.00    +0.025 A 
ATOM     28  C   UNL     1       5.821  -5.648  24.029  0.00  0.00    +0.056 A 
ATOM     29  C   UNL     1       5.588  -6.235  22.779  0.00  0.00    +0.012 A 
ATOM     30  C   UNL     1       6.209  -5.728  21.629  0.00  0.00    +0.001 A 
ATOM     31  C   UNL     1       7.070  -4.625  21.712  0.00  0.00    +0.013 A 
BRANCH  28  32
ATOM     32  C   UNL     1       5.150  -6.134  25.288  0.00  0.00    +0.417 C 
ATOM     33  F   UNL     1       4.468  -7.297  25.099  0.00  0.00    -0.166 F 
ATOM     34  F   UNL     1       4.241  -5.242  25.769  0.00  0.00    -0.166 F 
ATOM     35  F   UNL     1       6.016  -6.372  26.311  0.00  0.00    -0.166 F 
ENDBRANCH  28  32
ENDBRANCH  24  26
ENDBRANCH   5  22
TORSDOF 5
ENDMDL
MODEL 6
REMARK VINA RESULT:      -7.4      2.776      3.250
REMARK  Name = 
REMARK  6 active torsions:
REMARK  status: ('A' for Active; 'I' for Inactive)
REMARK    1  A    between atoms: C_1  and  C_2
REMARK    2  A    between atoms: C_5  and  N_6
REMARK    3  A    between atoms: C_7  and  C_9
REMARK    4  A    between atoms: C_13  and  C_15
REMARK    5  A    between atoms: C_20  and  N_21
REMARK    6  A    between atoms: C_27  and  C_28
REMARK                            x       y       z     vdW  Elec       q    Type
REMARK                         _______ _______ _______ _____ _____    ______ ____
ROOT
ATOM      1  C   UNL     1       6.319  -5.947  21.797  0.00  0.00    +0.045 C 
ATOM      2  C   UNL     1       6.667  -4.676  22.519  0.00  0.00    -0.029 A 
ATOM      3  C   UNL     1       5.998  -4.242  23.678  0.00  0.00    +0.037 A 
ATOM      4  C   UNL     1       6.187  -2.897  24.075  0.00  0.00    +0.046 A 
ATOM      5  C   UNL     1       7.141  -2.063  23.487  0.00  0.00    +0.035 A 
ATOM      6  C   UNL     1       7.948  -2.601  22.493  0.00  0.00    +0.024 A 
ATOM      7  C   UNL     1       7.690  -3.877  21.989  0.00  0.00    +0.007 A 
ENDROOT
BRANCH   3   8
ATOM      8  N   UNL     1       5.186  -5.118  24.449  0.00  0.00    -0.299 N 
ATOM      9  H   UNL     1       4.533  -5.697  23.930  0.00  0.00    +0.154 HD
ATOM     10  C   UNL     1       5.535  -5.705  25.694  0.00  0.00    +0.132 A 
ATOM     11  C   UNL     1       4.627  -6.482  26.444  0.00  0.00    +0.040 A 
ATOM     12  C   UNL     1       4.975  -6.693  27.803  0.00  0.00    +0.015 A 
ATOM     13  C   UNL     1       6.179  -6.256  28.338  0.00  0.00    +0.020 A 
ATOM     14  C   UNL     1       7.057  -5.642  27.485  0.00  0.00    +0.113 A 
ATOM     15  N   UNL     1       6.754  -5.380  26.206  0.00  0.00    -0.240 NA
BRANCH  11  16
ATOM     16  C   UNL     1       3.366  -7.083  25.929  0.00  0.00    +0.077 A 
ATOM     17  N   UNL     1       3.440  -7.832  24.807  0.00  0.00    -0.235 NA
ATOM     18  C   UNL     1       2.273  -8.275  24.302  0.00  0.00    +0.221 A 
ATOM     19  N   UNL     1       1.050  -8.072  24.816  0.00  0.00    -0.244 NA
ATOM     20  C   UNL     1       1.013  -7.366  25.953  0.00  0.00    +0.114 A 
ATOM     21  C   UNL     1       2.143  -6.867  26.559  0.00  0.00    +0.048 A 
ENDBRANCH  11  16
ENDBRANCH   3   8
BRANCH   5  22
ATOM     22  N   UNL     1       7.255  -0.727  23.945  0.00  0.00    -0.281 N 
ATOM     23  H   UNL     1       6.779  -0.025  23.394  0.00  0.00    +0.155 HD
ATOM     24  C   UNL     1       7.999  -0.330  25.046  0.00  0.00    +0.248 C 
ATOM     25  O   UNL     1       8.707  -1.070  25.730  0.00  0.00    -0.270 OA
BRANCH  24  26
ATOM     26  C   UNL     1       7.959   1.097  25.449  0.00  0.00    +0.038 A 
ATOM     27  C   UNL     1       8.689   1.985  24.642  0.00  0.00    +0.025 A 
ATOM     28  C   UNL     1       8.660   3.370  24.860  0.00  0.00    +0.056 A 
ATOM     29  C   UNL     1       7.890   3.859  25.923  0.00  0.00    +0.012 A 
ATOM     30  C   UNL     1       7.164   2.981  26.738  0.00  0.00    +0.001 A 
ATOM     31  C   UNL     1       7.195   1.599  26.500  0.00  0.00    +0.013 A 
BRANCH  28  32
ATOM     32  C   UNL     1       9.429   4.277  23.934  0.00  0.00    +0.417 C 
ATOM     33  F   UNL     1      10.552   3.687  23.440  0.00  0.00    -0.166 F 
ATOM     34  F   UNL     1       9.846   5.417  24.551  0.00  0.00    -0.166 F 
ATOM     35  F   UNL     1       8.713   4.682  22.849  0.00  0.00    -0.166 F 
ENDBRANCH  28  32
ENDBRANCH  24  26
ENDBRANCH   5  22
TORSDOF 5
ENDMDL
MODEL 7
REMARK VINA RESULT:      -7.4      5.326      9.236
REMARK  Name = 
REMARK  6 active torsions:
REMARK  status: ('A' for Active; 'I' for Inactive)
REMARK    1  A    between atoms: C_1  and  C_2
REMARK    2  A    between atoms: C_5  and  N_6
REMARK    3  A    between atoms: C_7  and  C_9
REMARK    4  A    between atoms: C_13  and  C_15
REMARK    5  A    between atoms: C_20  and  N_21
REMARK    6  A    between atoms: C_27  and  C_28
REMARK                            x       y       z     vdW  Elec       q    Type
REMARK                         _______ _______ _______ _____ _____    ______ ____
ROOT
ATOM      1  C   UNL     1       9.443   1.859  21.839  0.00  0.00    +0.045 C 
ATOM      2  C   UNL     1       8.652   0.612  22.119  0.00  0.00    -0.029 A 
ATOM      3  C   UNL     1       7.405   0.622  22.770  0.00  0.00    +0.037 A 
ATOM      4  C   UNL     1       6.917  -0.612  23.262  0.00  0.00    +0.046 A 
ATOM      5  C   UNL     1       7.518  -1.836  22.961  0.00  0.00    +0.035 A 
ATOM      6  C   UNL     1       8.622  -1.826  22.119  0.00  0.00    +0.024 A 
ATOM      7  C   UNL     1       9.205  -0.618  21.734  0.00  0.00    +0.007 A 
ENDROOT
BRANCH   3   8
ATOM      8  N   UNL     1       6.639   1.812  22.907  0.00  0.00    -0.299 N 
ATOM      9  H   UNL     1       5.685   1.773  22.563  0.00  0.00    +0.154 HD
ATOM     10  C   UNL     1       6.794   2.795  23.919  0.00  0.00    +0.132 A 
ATOM     11  C   UNL     1       6.059   4.000  23.920  0.00  0.00    +0.040 A 
ATOM     12  C   UNL     1       6.564   5.027  24.759  0.00  0.00    +0.015 A 
ATOM     13  C   UNL     1       7.648   4.830  25.604  0.00  0.00    +0.020 A 
ATOM     14  C   UNL     1       8.196   3.576  25.636  0.00  0.00    +0.113 A 
ATOM     15  N   UNL     1       7.784   2.589  24.830  0.00  0.00    -0.240 NA
BRANCH  11  16
ATOM     16  C   UNL     1       4.826   4.266  23.131  0.00  0.00    +0.077 A 
ATOM     17  N   UNL     1       4.107   3.201  22.712  0.00  0.00    -0.235 NA
ATOM     18  C   UNL     1       3.057   3.464  21.911  0.00  0.00    +0.221 A 
ATOM     19  N   UNL     1       2.637   4.674  21.511  0.00  0.00    -0.244 NA
ATOM     20  C   UNL     1       3.341   5.711  21.980  0.00  0.00    +0.114 A 
ATOM     21  C   UNL     1       4.431   5.562  22.808  0.00  0.00    +0.048 A 
ENDBRANCH  11  16
ENDBRANCH   3   8
BRANCH   5  22
ATOM     22  N   UNL     1       6.962  -3.021  23.504  0.00  0.00    -0.281 N 
ATOM     23  H   UNL     1       7.430  -3.400  24.317  0.00  0.00    +0.155 HD
ATOM     24  C   UNL     1       5.875  -3.699  22.974  0.00  0.00    +0.248 C 
ATOM     25  O   UNL     1       5.291  -3.402  21.932  0.00  0.00    -0.270 OA
BRANCH  24  26
ATOM     26  C   UNL     1       5.360  -4.886  23.700  0.00  0.00    +0.038 A 
ATOM     27  C   UNL     1       5.715  -4.981  25.056  0.00  0.00    +0.025 A 
ATOM     28  C   UNL     1       5.218  -6.004  25.876  0.00  0.00    +0.056 A 
ATOM     29  C   UNL     1       4.360  -6.954  25.307  0.00  0.00    +0.012 A 
ATOM     30  C   UNL     1       4.005  -6.872  23.954  0.00  0.00    +0.001 A 
ATOM     31  C   UNL     1       4.502  -5.836  23.150  0.00  0.00    +0.013 A 
BRANCH  28  32
ATOM     32  C   UNL     1       5.599  -6.030  27.334  0.00  0.00    +0.417 C 
ATOM     33  F   UNL     1       6.942  -5.913  27.523  0.00  0.00    -0.166 F 
ATOM     34  F   UNL     1       5.235  -7.189  27.946  0.00  0.00    -0.166 F 
ATOM     35  F   UNL     1       5.033  -5.029  28.063  0.00  0.00    -0.166 F 
ENDBRANCH  28  32
ENDBRANCH  24  26
ENDBRANCH   5  22
TORSDOF 5
ENDMDL
MODEL 8
REMARK VINA RESULT:      -7.4      2.385      2.741
REMARK  Name = 
REMARK  6 active torsions:
REMARK  status: ('A' for Active; 'I' for Inactive)
REMARK    1  A    between atoms: C_1  and  C_2
REMARK    2  A    between atoms: C_5  and  N_6
REMARK    3  A    between atoms: C_7  and  C_9
REMARK    4  A    between atoms: C_13  and  C_15
REMARK    5  A    between atoms: C_20  and  N_21
REMARK    6  A    between atoms: C_27  and  C_28
REMARK                            x       y       z     vdW  Elec       q    Type
REMARK                         _______ _______ _______ _____ _____    ______ ____
ROOT
ATOM      1  C   UNL     1       8.302  -4.798  24.159  0.00  0.00    +0.045 C 
ATOM      2  C   UNL     1       8.614  -3.367  24.496  0.00  0.00    -0.029 A 
ATOM      3  C   UNL     1       7.819  -2.589  25.357  0.00  0.00    +0.037 A 
ATOM      4  C   UNL     1       8.022  -1.188  25.343  0.00  0.00    +0.046 A 
ATOM      5  C   UNL     1       9.087  -0.586  24.670  0.00  0.00    +0.035 A 
ATOM      6  C   UNL     1       9.990  -1.413  24.016  0.00  0.00    +0.024 A 
ATOM      7  C   UNL     1       9.739  -2.780  23.897  0.00  0.00    +0.007 A 
ENDROOT
BRANCH   3   8
ATOM      8  N   UNL     1       6.868  -3.176  26.236  0.00  0.00    -0.299 N 
ATOM      9  H   UNL     1       7.199  -3.950  26.802  0.00  0.00    +0.154 HD
ATOM     10  C   UNL     1       5.767  -2.514  26.840  0.00  0.00    +0.132 A 
ATOM     11  C   UNL     1       4.809  -3.198  27.619  0.00  0.00    +0.040 A 
ATOM     12  C   UNL     1       3.594  -2.503  27.848  0.00  0.00    +0.015 A 
ATOM     13  C   UNL     1       3.395  -1.194  27.427  0.00  0.00    +0.020 A 
ATOM     14  C   UNL     1       4.446  -0.570  26.810  0.00  0.00    +0.113 A 
ATOM     15  N   UNL     1       5.595  -1.199  26.530  0.00  0.00    -0.240 NA
BRANCH  11  16
ATOM     16  C   UNL     1       4.975  -4.557  28.203  0.00  0.00    +0.077 A 
ATOM     17  N   UNL     1       6.233  -4.993  28.431  0.00  0.00    -0.235 NA
ATOM     18  C   UNL     1       6.360  -6.263  28.859  0.00  0.00    +0.221 A 
ATOM     19  N   UNL     1       5.365  -7.128  29.109  0.00  0.00    -0.244 NA
ATOM     20  C   UNL     1       4.128  -6.652  28.919  0.00  0.00    +0.114 A 
ATOM     21  C   UNL     1       3.879  -5.369  28.486  0.00  0.00    +0.048 A 
ENDBRANCH  11  16
ENDBRANCH   3   8
BRANCH   5  22
ATOM     22  N   UNL     1       9.206   0.825  24.706  0.00  0.00    -0.281 N 
ATOM     23  H   UNL     1       9.543   1.222  25.574  0.00  0.00    +0.155 HD
ATOM     24  C   UNL     1       8.853   1.674  23.668  0.00  0.00    +0.248 C 
ATOM     25  O   UNL     1       8.333   1.324  22.608  0.00  0.00    -0.270 OA
BRANCH  24  26
ATOM     26  C   UNL     1       9.108   3.128  23.826  0.00  0.00    +0.038 A 
ATOM     27  C   UNL     1      10.441   3.541  23.665  0.00  0.00    +0.025 A 
ATOM     28  C   UNL     1      10.800   4.896  23.698  0.00  0.00    +0.056 A 
ATOM     29  C   UNL     1       9.793   5.845  23.913  0.00  0.00    +0.012 A 
ATOM     30  C   UNL     1       8.461   5.442  24.082  0.00  0.00    +0.001 A 
ATOM     31  C   UNL     1       8.116   4.084  24.035  0.00  0.00    +0.013 A 
BRANCH  28  32
ATOM     32  C   UNL     1      12.239   5.281  23.475  0.00  0.00    +0.417 C 
ATOM     33  F   UNL     1      13.078   4.210  23.515  0.00  0.00    -0.166 F 
ATOM     34  F   UNL     1      12.697   6.149  24.419  0.00  0.00    -0.166 F 
ATOM     35  F   UNL     1      12.463   5.884  22.275  0.00  0.00    -0.166 F 
ENDBRANCH  28  32
ENDBRANCH  24  26
ENDBRANCH   5  22
TORSDOF 5
ENDMDL
MODEL 9
REMARK VINA RESULT:      -7.3      4.953      9.560
REMARK  Name = 
REMARK  6 active torsions:
REMARK  status: ('A' for Active; 'I' for Inactive)
REMARK    1  A    between atoms: C_1  and  C_2
REMARK    2  A    between atoms: C_5  and  N_6
REMARK    3  A    between atoms: C_7  and  C_9
REMARK    4  A    between atoms: C_13  and  C_15
REMARK    5  A    between atoms: C_20  and  N_21
REMARK    6  A    between atoms: C_27  and  C_28
REMARK                            x       y       z     vdW  Elec       q    Type
REMARK                         _______ _______ _______ _____ _____    ______ ____
ROOT
ATOM      1  C   UNL     1      10.309   2.214  21.862  0.00  0.00    +0.045 C 
ATOM      2  C   UNL     1       9.424   1.057  22.231  0.00  0.00    -0.029 A 
ATOM      3  C   UNL     1       8.487   1.110  23.279  0.00  0.00    +0.037 A 
ATOM      4  C   UNL     1       7.953  -0.118  23.737  0.00  0.00    +0.046 A 
ATOM      5  C   UNL     1       8.167  -1.329  23.076  0.00  0.00    +0.035 A 
ATOM      6  C   UNL     1       8.914  -1.305  21.906  0.00  0.00    +0.024 A 
ATOM      7  C   UNL     1       9.566  -0.137  21.508  0.00  0.00    +0.007 A 
ENDROOT
BRANCH   3   8
ATOM      8  N   UNL     1       8.059   2.342  23.842  0.00  0.00    -0.299 N 
ATOM      9  H   UNL     1       8.789   2.942  24.215  0.00  0.00    +0.154 HD
ATOM     10  C   UNL     1       6.912   3.085  23.458  0.00  0.00    +0.132 A 
ATOM     11  C   UNL     1       6.501   4.250  24.142  0.00  0.00    +0.040 A 
ATOM     12  C   UNL     1       5.171   4.672  23.892  0.00  0.00    +0.015 A 
ATOM     13  C   UNL     1       4.355   4.047  22.958  0.00  0.00    +0.020 A 
ATOM     14  C   UNL     1       4.903   3.019  22.240  0.00  0.00    +0.113 A 
ATOM     15  N   UNL     1       6.138   2.554  22.472  0.00  0.00    -0.240 NA
BRANCH  11  16
ATOM     16  C   UNL     1       7.339   5.047  25.079  0.00  0.00    +0.077 A 
ATOM     17  N   UNL     1       8.597   5.355  24.691  0.00  0.00    -0.235 NA
ATOM     18  C   UNL     1       9.368   5.983  25.598  0.00  0.00    +0.221 A 
ATOM     19  N   UNL     1       9.007   6.359  26.834  0.00  0.00    -0.244 NA
ATOM     20  C   UNL     1       7.742   6.083  27.172  0.00  0.00    +0.114 A 
ATOM     21  C   UNL     1       6.863   5.447  26.326  0.00  0.00    +0.048 A 
ENDBRANCH  11  16
ENDBRANCH   3   8
BRANCH   5  22
ATOM     22  N   UNL     1       7.598  -2.510  23.613  0.00  0.00    -0.281 N 
ATOM     23  H   UNL     1       8.129  -2.968  24.343  0.00  0.00    +0.155 HD
ATOM     24  C   UNL     1       6.414  -3.085  23.177  0.00  0.00    +0.248 C 
ATOM     25  O   UNL     1       5.736  -2.686  22.230  0.00  0.00    -0.270 OA
BRANCH  24  26
ATOM     26  C   UNL     1       5.904  -4.283  23.891  0.00  0.00    +0.038 A 
ATOM     27  C   UNL     1       6.360  -4.455  25.209  0.00  0.00    +0.025 A 
ATOM     28  C   UNL     1       5.883  -5.494  26.021  0.00  0.00    +0.056 A 
ATOM     29  C   UNL     1       4.942  -6.380  25.483  0.00  0.00    +0.012 A 
ATOM     30  C   UNL     1       4.487  -6.221  24.167  0.00  0.00    +0.001 A 
ATOM     31  C   UNL     1       4.965  -5.171  23.371  0.00  0.00    +0.013 A 
BRANCH  28  32
ATOM     32  C   UNL     1       6.376  -5.602  27.441  0.00  0.00    +0.417 C 
ATOM     33  F   UNL     1       7.734  -5.642  27.520  0.00  0.00    -0.166 F 
ATOM     34  F   UNL     1       5.932  -6.730  28.061  0.00  0.00    -0.166 F 
ATOM     35  F   UNL     1       5.988  -4.564  28.233  0.00  0.00    -0.166 F 
ENDBRANCH  28  32
ENDBRANCH  24  26
ENDBRANCH   5  22
TORSDOF 5
ENDMDL
