MODEL 1
REMARK VINA RESULT:      -5.3      0.000      0.000
REMARK  Name = 
REMARK  12 active torsions:
REMARK  status: ('A' for Active; 'I' for Inactive)
REMARK    1  A    between atoms: O_1  and  C_2
REMARK    2  A    between atoms: C_2  and  C_4
REMARK    3  A    between atoms: C_2  and  C_10
REMARK    4  A    between atoms: C_4  and  O_5
REMARK    5  A    between atoms: O_5  and  P_6
REMARK    6  A    between atoms: P_6  and  O_7
REMARK    7  A    between atoms: P_6  and  O_8
REMARK    8  A    between atoms: C_10  and  O_12
REMARK    9  A    between atoms: C_10  and  C_13
REMARK   10  A    between atoms: C_13  and  O_15
REMARK   11  A    between atoms: C_13  and  C_16
REMARK   12  A    between atoms: C_16  and  O_17
REMARK                            x       y       z     vdW  Elec       q    Type
REMARK                         _______ _______ _______ _____ _____    ______ ____
ROOT
ATOM      1  C   UNL     1      10.197   2.436  24.002  0.00  0.00    +0.172 C 
ENDROOT
BRANCH   1   2
ATOM      2  O   UNL     1       8.804   2.460  24.379  0.00  0.00    -0.387 OA
ATOM      3  H   UNL     1       8.746   2.773  25.299  0.00  0.00    +0.210 HD
ENDBRANCH   1   2
BRANCH   1   4
ATOM      4  C   UNL     1      10.300   1.412  22.858  0.00  0.00    +0.185 C 
BRANCH   4   5
ATOM      5  O   UNL     1      10.014   2.089  21.618  0.00  0.00    -0.386 OA
ATOM      6  H   UNL     1      10.887   2.346  21.259  0.00  0.00    +0.210 HD
ENDBRANCH   4   5
BRANCH   4   7
ATOM      7  C   UNL     1       9.416   0.169  22.999  0.00  0.00    +0.254 C 
BRANCH   7   8
ATOM      8  C   UNL     1       9.910  -0.940  22.082  0.00  0.00    +0.336 C 
ATOM      9  O   UNL     1      10.624  -1.863  22.447  0.00  0.00    -0.248 OA
BRANCH   8  10
ATOM     10  O   UNL     1       9.474  -0.778  20.809  0.00  0.00    -0.479 OA
ATOM     11  H   UNL     1       9.589  -1.639  20.337  0.00  0.00    +0.295 HD
ENDBRANCH   8  10
ENDBRANCH   7   8
BRANCH   7  12
ATOM     12  O   UNL     1       9.445  -0.302  24.357  0.00  0.00    -0.378 OA
ATOM     13  H   UNL     1       9.751  -1.229  24.328  0.00  0.00    +0.211 HD
ENDBRANCH   7  12
ENDBRANCH   4   7
ENDBRANCH   1   4
BRANCH   1  14
ATOM     14  C   UNL     1      10.666   3.824  23.572  0.00  0.00    +0.206 C 
BRANCH  14  15
ATOM     15  O   UNL     1      12.055   3.803  23.271  0.00  0.00    -0.284 OA
BRANCH  15  16
ATOM     16  P   UNL     1      12.770   5.231  23.139  0.00  0.00    +0.472 P 
ATOM     17  O   UNL     1      12.296   6.293  24.066  0.00  0.00    -0.228 OA
BRANCH  16  18
ATOM     18  O   UNL     1      12.584   5.601  21.601  0.00  0.00    -0.303 OA
ATOM     19  H   UNL     1      11.740   5.253  21.265  0.00  0.00    +0.222 HD
ENDBRANCH  16  18
BRANCH  16  20
ATOM     20  O   UNL     1      14.331   4.914  23.253  0.00  0.00    -0.303 OA
ATOM     21  H   UNL     1      14.754   5.407  23.980  0.00  0.00    +0.222 HD
ENDBRANCH  16  20
ENDBRANCH  15  16
ENDBRANCH  14  15
ENDBRANCH   1  14
TORSDOF 12
ENDMDL
MODEL 2
REMARK VINA RESULT:      -5.0      3.843      6.930
REMARK  Name = 
REMARK  12 active torsions:
REMARK  status: ('A' for Active; 'I' for Inactive)
REMARK    1  A    between atoms: O_1  and  C_2
REMARK    2  A    between atoms: C_2  and  C_4
REMARK    3  A    between atoms: C_2  and  C_10
REMARK    4  A    between atoms: C_4  and  O_5
REMARK    5  A    between atoms: O_5  and  P_6
REMARK    6  A    between atoms: P_6  and  O_7
REMARK    7  A    between atoms: P_6  and  O_8
REMARK    8  A    between atoms: C_10  and  O_12
REMARK    9  A    between atoms: C_10  and  C_13
REMARK   10  A    between atoms: C_13  and  O_15
REMARK   11  A    between atoms: C_13  and  C_16
REMARK   12  A    between atoms: C_16  and  O_17
REMARK                            x       y       z     vdW  Elec       q    Type
REMARK                         _______ _______ _______ _____ _____    ______ ____
ROOT
ATOM      1  C   UNL     1      10.359  -1.414  22.776  0.00  0.00    +0.172 C 
ENDROOT
BRANCH   1   2
ATOM      2  O   UNL     1       9.804  -1.654  21.465  0.00  0.00    -0.387 OA
ATOM      3  H   UNL     1       9.507  -2.581  21.429  0.00  0.00    +0.210 HD
ENDBRANCH   1   2
BRANCH   1   4
ATOM      4  C   UNL     1      10.292   0.110  22.983  0.00  0.00    +0.185 C 
BRANCH   4   5
ATOM      5  O   UNL     1       9.729   0.365  24.285  0.00  0.00    -0.386 OA
ATOM      6  H   UNL     1      10.497   0.528  24.869  0.00  0.00    +0.210 HD
ENDBRANCH   4   5
BRANCH   4   7
ATOM      7  C   UNL     1       9.525   0.892  21.912  0.00  0.00    +0.254 C 
BRANCH   7   8
ATOM      8  C   UNL     1       8.139   1.263  22.417  0.00  0.00    +0.336 C 
ATOM      9  O   UNL     1       7.806   2.397  22.734  0.00  0.00    -0.248 OA
BRANCH   8  10
ATOM     10  O   UNL     1       7.319   0.187  22.487  0.00  0.00    -0.479 OA
ATOM     11  H   UNL     1       7.100   0.033  23.439  0.00  0.00    +0.295 HD
ENDBRANCH   8  10
ENDBRANCH   7   8
BRANCH   7  12
ATOM     12  O   UNL     1      10.237   2.096  21.579  0.00  0.00    -0.378 OA
ATOM     13  H   UNL     1      10.676   1.935  20.721  0.00  0.00    +0.211 HD
ENDBRANCH   7  12
ENDBRANCH   4   7
ENDBRANCH   1   4
BRANCH   1  14
ATOM     14  C   UNL     1       9.577  -2.172  23.845  0.00  0.00    +0.206 C 
BRANCH  14  15
ATOM     15  O   UNL     1      10.201  -3.419  24.121  0.00  0.00    -0.284 OA
BRANCH  15  16
ATOM     16  P   UNL     1       9.332  -4.474  24.956  0.00  0.00    +0.472 P 
ATOM     17  O   UNL     1       8.523  -3.922  26.075  0.00  0.00    -0.228 OA
BRANCH  16  18
ATOM     18  O   UNL     1      10.404  -5.557  25.421  0.00  0.00    -0.303 OA
ATOM     19  H   UNL     1      10.117  -6.451  25.169  0.00  0.00    +0.222 HD
ENDBRANCH  16  18
BRANCH  16  20
ATOM     20  O   UNL     1       8.477  -5.255  23.856  0.00  0.00    -0.303 OA
ATOM     21  H   UNL     1       8.053  -6.054  24.218  0.00  0.00    +0.222 HD
ENDBRANCH  16  20
ENDBRANCH  15  16
ENDBRANCH  14  15
ENDBRANCH   1  14
TORSDOF 12
ENDMDL
MODEL 3
REMARK VINA RESULT:      -5.0      4.709      7.422
REMARK  Name = 
REMARK  12 active torsions:
REMARK  status: ('A' for Active; 'I' for Inactive)
REMARK    1  A    between atoms: O_1  and  C_2
REMARK    2  A    between atoms: C_2  and  C_4
REMARK    3  A    between atoms: C_2  and  C_10
REMARK    4  A    between atoms: C_4  and  O_5
REMARK    5  A    between atoms: O_5  and  P_6
REMARK    6  A    between atoms: P_6  and  O_7
REMARK    7  A    between atoms: P_6  and  O_8
REMARK    8  A    between atoms: C_10  and  O_12
REMARK    9  A    between atoms: C_10  and  C_13
REMARK   10  A    between atoms: C_13  and  O_15
REMARK   11  A    between atoms: C_13  and  C_16
REMARK   12  A    between atoms: C_16  and  O_17
REMARK                            x       y       z     vdW  Elec       q    Type
REMARK                         _______ _______ _______ _____ _____    ______ ____
ROOT
ATOM      1  C   UNL     1       7.944  -1.070  26.183  0.00  0.00    +0.172 C 
ENDROOT
BRANCH   1   2
ATOM      2  O   UNL     1       9.098  -0.603  26.913  0.00  0.00    -0.387 OA
ATOM      3  H   UNL     1       9.798  -0.394  26.268  0.00  0.00    +0.210 HD
ENDBRANCH   1   2
BRANCH   1   4
ATOM      4  C   UNL     1       8.318  -0.952  24.694  0.00  0.00    +0.185 C 
BRANCH   4   5
ATOM      5  O   UNL     1       7.661  -2.016  23.978  0.00  0.00    -0.386 OA
ATOM      6  H   UNL     1       7.622  -2.764  24.607  0.00  0.00    +0.210 HD
ENDBRANCH   4   5
BRANCH   4   7
ATOM      7  C   UNL     1       9.818  -0.952  24.385  0.00  0.00    +0.254 C 
BRANCH   7   8
ATOM      8  C   UNL     1      10.143  -2.005  23.336  0.00  0.00    +0.336 C 
ATOM      9  O   UNL     1      10.269  -1.768  22.143  0.00  0.00    -0.248 OA
BRANCH   8  10
ATOM     10  O   UNL     1      10.266  -3.240  23.880  0.00  0.00    -0.479 OA
ATOM     11  H   UNL     1       9.366  -3.538  24.162  0.00  0.00    +0.295 HD
ENDBRANCH   8  10
ENDBRANCH   7   8
BRANCH   7  12
ATOM     12  O   UNL     1      10.216   0.338  23.889  0.00  0.00    -0.378 OA
ATOM     13  H   UNL     1      10.877   0.689  24.516  0.00  0.00    +0.211 HD
ENDBRANCH   7  12
ENDBRANCH   4   7
ENDBRANCH   1   4
BRANCH   1  14
ATOM     14  C   UNL     1       7.598  -2.505  26.575  0.00  0.00    +0.206 C 
BRANCH  14  15
ATOM     15  O   UNL     1       8.760  -3.321  26.528  0.00  0.00    -0.284 OA
BRANCH  15  16
ATOM     16  P   UNL     1       8.516  -4.881  26.259  0.00  0.00    +0.472 P 
ATOM     17  O   UNL     1       7.789  -5.627  27.321  0.00  0.00    -0.228 OA
BRANCH  16  18
ATOM     18  O   UNL     1       9.978  -5.446  25.975  0.00  0.00    -0.303 OA
ATOM     19  H   UNL     1      10.492  -4.811  25.447  0.00  0.00    +0.222 HD
ENDBRANCH  16  18
BRANCH  16  20
ATOM     20  O   UNL     1       7.816  -4.940  24.825  0.00  0.00    -0.303 OA
ATOM     21  H   UNL     1       8.014  -5.769  24.352  0.00  0.00    +0.222 HD
ENDBRANCH  16  20
ENDBRANCH  15  16
ENDBRANCH  14  15
ENDBRANCH   1  14
TORSDOF 12
ENDMDL
MODEL 4
REMARK VINA RESULT:      -4.9      3.021      3.834
REMARK  Name = 
REMARK  12 active torsions:
REMARK  status: ('A' for Active; 'I' for Inactive)
REMARK    1  A    between atoms: O_1  and  C_2
REMARK    2  A    between atoms: C_2  and  C_4
REMARK    3  A    between atoms: C_2  and  C_10
REMARK    4  A    between atoms: C_4  and  O_5
REMARK    5  A    between atoms: O_5  and  P_6
REMARK    6  A    between atoms: P_6  and  O_7
REMARK    7  A    between atoms: P_6  and  O_8
REMARK    8  A    between atoms: C_10  and  O_12
REMARK    9  A    between atoms: C_10  and  C_13
REMARK   10  A    between atoms: C_13  and  O_15
REMARK   11  A    between atoms: C_13  and  C_16
REMARK   12  A    between atoms: C_16  and  O_17
REMARK                            x       y       z     vdW  Elec       q    Type
REMARK                         _______ _______ _______ _____ _____    ______ ____
ROOT
ATOM      1  C   UNL     1      10.563   0.371  24.727  0.00  0.00    +0.172 C 
ENDROOT
BRANCH   1   2
ATOM      2  O   UNL     1       9.547   0.171  25.734  0.00  0.00    -0.387 OA
ATOM      3  H   UNL     1       9.991   0.059  26.593  0.00  0.00    +0.210 HD
ENDBRANCH   1   2
BRANCH   1   4
ATOM      4  C   UNL     1      10.499  -0.872  23.821  0.00  0.00    +0.185 C 
BRANCH   4   5
ATOM      5  O   UNL     1      10.315  -0.430  22.461  0.00  0.00    -0.386 OA
ATOM      6  H   UNL     1      10.930  -0.973  21.929  0.00  0.00    +0.210 HD
ENDBRANCH   4   5
BRANCH   4   7
ATOM      7  C   UNL     1       9.434  -1.909  24.190  0.00  0.00    +0.254 C 
BRANCH   7   8
ATOM      8  C   UNL     1       8.233  -1.789  23.263  0.00  0.00    +0.336 C 
ATOM      9  O   UNL     1       8.033  -2.522  22.305  0.00  0.00    -0.248 OA
BRANCH   8  10
ATOM     10  O   UNL     1       7.418  -0.767  23.619  0.00  0.00    -0.479 OA
ATOM     11  H   UNL     1       7.965  -0.093  24.093  0.00  0.00    +0.295 HD
ENDBRANCH   8  10
ENDBRANCH   7   8
BRANCH   7  12
ATOM     12  O   UNL     1       9.980  -3.234  24.077  0.00  0.00    -0.378 OA
ATOM     13  H   UNL     1       9.829  -3.675  24.935  0.00  0.00    +0.211 HD
ENDBRANCH   7  12
ENDBRANCH   4   7
ENDBRANCH   1   4
BRANCH   1  14
ATOM     14  C   UNL     1      10.311   1.661  23.950  0.00  0.00    +0.206 C 
BRANCH  14  15
ATOM     15  O   UNL     1       8.914   1.892  23.819  0.00  0.00    -0.284 OA
BRANCH  15  16
ATOM     16  P   UNL     1       8.414   2.392  22.382  0.00  0.00    +0.472 P 
ATOM     17  O   UNL     1       7.178   1.754  21.855  0.00  0.00    -0.228 OA
BRANCH  16  18
ATOM     18  O   UNL     1       9.687   2.178  21.448  0.00  0.00    -0.303 OA
ATOM     19  H   UNL     1       9.991   1.255  21.491  0.00  0.00    +0.222 HD
ENDBRANCH  16  18
BRANCH  16  20
ATOM     20  O   UNL     1       8.322   3.981  22.516  0.00  0.00    -0.303 OA
ATOM     21  H   UNL     1       8.703   4.438  21.744  0.00  0.00    +0.222 HD
ENDBRANCH  16  20
ENDBRANCH  15  16
ENDBRANCH  14  15
ENDBRANCH   1  14
TORSDOF 12
ENDMDL
MODEL 5
REMARK VINA RESULT:      -4.9      2.585      4.123
REMARK  Name = 
REMARK  12 active torsions:
REMARK  status: ('A' for Active; 'I' for Inactive)
REMARK    1  A    between atoms: O_1  and  C_2
REMARK    2  A    between atoms: C_2  and  C_4
REMARK    3  A    between atoms: C_2  and  C_10
REMARK    4  A    between atoms: C_4  and  O_5
REMARK    5  A    between atoms: O_5  and  P_6
REMARK    6  A    between atoms: P_6  and  O_7
REMARK    7  A    between atoms: P_6  and  O_8
REMARK    8  A    between atoms: C_10  and  O_12
REMARK    9  A    between atoms: C_10  and  C_13
REMARK   10  A    between atoms: C_13  and  O_15
REMARK   11  A    between atoms: C_13  and  C_16
REMARK   12  A    between atoms: C_16  and  O_17
REMARK                            x       y       z     vdW  Elec       q    Type
REMARK                         _______ _______ _______ _____ _____    ______ ____
ROOT
ATOM      1  C   UNL     1       9.215  -1.103  21.645  0.00  0.00    +0.172 C 
ENDROOT
BRANCH   1   2
ATOM      2  O   UNL     1      10.581  -1.571  21.674  0.00  0.00    -0.387 OA
ATOM      3  H   UNL     1      11.034  -1.227  20.884  0.00  0.00    +0.210 HD
ENDBRANCH   1   2
BRANCH   1   4
ATOM      4  C   UNL     1       8.619  -1.476  23.014  0.00  0.00    +0.185 C 
BRANCH   4   5
ATOM      5  O   UNL     1       7.734  -0.415  23.425  0.00  0.00    -0.386 OA
ATOM      6  H   UNL     1       8.260   0.405  23.340  0.00  0.00    +0.210 HD
ENDBRANCH   4   5
BRANCH   4   7
ATOM      7  C   UNL     1       9.634  -1.777  24.120  0.00  0.00    +0.254 C 
BRANCH   7   8
ATOM      8  C   UNL     1       9.072  -1.384  25.478  0.00  0.00    +0.336 C 
ATOM      9  O   UNL     1       8.258  -2.051  26.101  0.00  0.00    -0.248 OA
BRANCH   8  10
ATOM     10  O   UNL     1       9.572  -0.201  25.910  0.00  0.00    -0.479 OA
ATOM     11  H   UNL     1      10.349  -0.394  26.490  0.00  0.00    +0.295 HD
ENDBRANCH   8  10
ENDBRANCH   7   8
BRANCH   7  12
ATOM     12  O   UNL     1       9.944  -3.182  24.133  0.00  0.00    -0.378 OA
ATOM     13  H   UNL     1       9.280  -3.612  24.705  0.00  0.00    +0.211 HD
ENDBRANCH   7  12
ENDBRANCH   4   7
ENDBRANCH   1   4
BRANCH   1  14
ATOM     14  C   UNL     1       9.162   0.401  21.386  0.00  0.00    +0.206 C 
BRANCH  14  15
ATOM     15  O   UNL     1      10.183   1.063  22.120  0.00  0.00    -0.284 OA
BRANCH  15  16
ATOM     16  P   UNL     1       9.728   2.351  22.957  0.00  0.00    +0.472 P 
ATOM     17  O   UNL     1       9.250   2.101  24.344  0.00  0.00    -0.228 OA
BRANCH  16  18
ATOM     18  O   UNL     1       8.636   3.036  22.023  0.00  0.00    -0.303 OA
ATOM     19  H   UNL     1       8.968   3.881  21.672  0.00  0.00    +0.222 HD
ENDBRANCH  16  18
BRANCH  16  20
ATOM     20  O   UNL     1      10.969   3.352  22.866  0.00  0.00    -0.303 OA
ATOM     21  H   UNL     1      11.538   3.306  23.655  0.00  0.00    +0.222 HD
ENDBRANCH  16  20
ENDBRANCH  15  16
ENDBRANCH  14  15
ENDBRANCH   1  14
TORSDOF 12
ENDMDL
MODEL 6
REMARK VINA RESULT:      -4.9      3.636      6.889
REMARK  Name = 
REMARK  12 active torsions:
REMARK  status: ('A' for Active; 'I' for Inactive)
REMARK    1  A    between atoms: O_1  and  C_2
REMARK    2  A    between atoms: C_2  and  C_4
REMARK    3  A    between atoms: C_2  and  C_10
REMARK    4  A    between atoms: C_4  and  O_5
REMARK    5  A    between atoms: O_5  and  P_6
REMARK    6  A    between atoms: P_6  and  O_7
REMARK    7  A    between atoms: P_6  and  O_8
REMARK    8  A    between atoms: C_10  and  O_12
REMARK    9  A    between atoms: C_10  and  C_13
REMARK   10  A    between atoms: C_13  and  O_15
REMARK   11  A    between atoms: C_13  and  C_16
REMARK   12  A    between atoms: C_16  and  O_17
REMARK                            x       y       z     vdW  Elec       q    Type
REMARK                         _______ _______ _______ _____ _____    ______ ____
ROOT
ATOM      1  C   UNL     1       9.830  -1.639  22.955  0.00  0.00    +0.172 C 
ENDROOT
BRANCH   1   2
ATOM      2  O   UNL     1      10.136  -1.552  21.547  0.00  0.00    -0.387 OA
ATOM      3  H   UNL     1       9.341  -1.813  21.049  0.00  0.00    +0.210 HD
ENDBRANCH   1   2
BRANCH   1   4
ATOM      4  C   UNL     1       9.272  -0.259  23.345  0.00  0.00    +0.185 C 
BRANCH   4   5
ATOM      5  O   UNL     1       8.322   0.144  22.338  0.00  0.00    -0.386 OA
ATOM      6  H   UNL     1       8.628   1.022  22.033  0.00  0.00    +0.210 HD
ENDBRANCH   4   5
BRANCH   4   7
ATOM      7  C   UNL     1      10.315   0.842  23.560  0.00  0.00    +0.254 C 
BRANCH   7   8
ATOM      8  C   UNL     1       9.876   2.130  22.879  0.00  0.00    +0.336 C 
ATOM      9  O   UNL     1       9.219   3.004  23.426  0.00  0.00    -0.248 OA
BRANCH   8  10
ATOM     10  O   UNL     1      10.289   2.187  21.590  0.00  0.00    -0.479 OA
ATOM     11  H   UNL     1       9.744   1.549  21.067  0.00  0.00    +0.295 HD
ENDBRANCH   8  10
ENDBRANCH   7   8
BRANCH   7  12
ATOM     12  O   UNL     1      10.481   1.092  24.966  0.00  0.00    -0.378 OA
ATOM     13  H   UNL     1      10.916   0.304  25.343  0.00  0.00    +0.211 HD
ENDBRANCH   7  12
ENDBRANCH   4   7
ENDBRANCH   1   4
BRANCH   1  14
ATOM     14  C   UNL     1       8.829  -2.760  23.225  0.00  0.00    +0.206 C 
BRANCH  14  15
ATOM     15  O   UNL     1       7.906  -2.864  22.149  0.00  0.00    -0.284 OA
BRANCH  15  16
ATOM     16  P   UNL     1       6.361  -2.985  22.554  0.00  0.00    +0.472 P 
ATOM     17  O   UNL     1       5.442  -3.498  21.502  0.00  0.00    -0.228 OA
BRANCH  16  18
ATOM     18  O   UNL     1       5.992  -1.521  23.060  0.00  0.00    -0.303 OA
ATOM     19  H   UNL     1       6.759  -0.928  22.981  0.00  0.00    +0.222 HD
ENDBRANCH  16  18
BRANCH  16  20
ATOM     20  O   UNL     1       6.361  -3.848  23.898  0.00  0.00    -0.303 OA
ATOM     21  H   UNL     1       5.471  -3.923  24.287  0.00  0.00    +0.222 HD
ENDBRANCH  16  20
ENDBRANCH  15  16
ENDBRANCH  14  15
ENDBRANCH   1  14
TORSDOF 12
ENDMDL
MODEL 7
REMARK VINA RESULT:      -4.9      3.378      5.869
REMARK  Name = 
REMARK  12 active torsions:
REMARK  status: ('A' for Active; 'I' for Inactive)
REMARK    1  A    between atoms: O_1  and  C_2
REMARK    2  A    between atoms: C_2  and  C_4
REMARK    3  A    between atoms: C_2  and  C_10
REMARK    4  A    between atoms: C_4  and  O_5
REMARK    5  A    between atoms: O_5  and  P_6
REMARK    6  A    between atoms: P_6  and  O_7
REMARK    7  A    between atoms: P_6  and  O_8
REMARK    8  A    between atoms: C_10  and  O_12
REMARK    9  A    between atoms: C_10  and  C_13
REMARK   10  A    between atoms: C_13  and  O_15
REMARK   11  A    between atoms: C_13  and  C_16
REMARK   12  A    between atoms: C_16  and  O_17
REMARK                            x       y       z     vdW  Elec       q    Type
REMARK                         _______ _______ _______ _____ _____    ______ ____
ROOT
ATOM      1  C   UNL     1       8.447   0.291  25.486  0.00  0.00    +0.172 C 
ENDROOT
BRANCH   1   2
ATOM      2  O   UNL     1       9.770   0.111  26.036  0.00  0.00    -0.387 OA
ATOM      3  H   UNL     1       9.821   0.611  26.869  0.00  0.00    +0.210 HD
ENDBRANCH   1   2
BRANCH   1   4
ATOM      4  C   UNL     1       8.640   1.117  24.201  0.00  0.00    +0.185 C 
BRANCH   4   5
ATOM      5  O   UNL     1       7.604   0.749  23.269  0.00  0.00    -0.386 OA
ATOM      6  H   UNL     1       7.931  -0.062  22.829  0.00  0.00    +0.210 HD
ENDBRANCH   4   5
BRANCH   4   7
ATOM      7  C   UNL     1      10.016   1.000  23.538  0.00  0.00    +0.254 C 
BRANCH   7   8
ATOM      8  C   UNL     1       9.868   0.842  22.032  0.00  0.00    +0.336 C 
ATOM      9  O   UNL     1       9.850  -0.235  21.455  0.00  0.00    -0.248 OA
BRANCH   8  10
ATOM     10  O   UNL     1       9.771   2.039  21.405  0.00  0.00    -0.479 OA
ATOM     11  H   UNL     1       9.201   2.628  21.960  0.00  0.00    +0.295 HD
ENDBRANCH   8  10
ENDBRANCH   7   8
BRANCH   7  12
ATOM     12  O   UNL     1      10.793   2.179  23.809  0.00  0.00    -0.378 OA
ATOM     13  H   UNL     1      11.328   2.354  23.011  0.00  0.00    +0.211 HD
ENDBRANCH   7  12
ENDBRANCH   4   7
ENDBRANCH   1   4
BRANCH   1  14
ATOM     14  C   UNL     1       7.786  -1.056  25.208  0.00  0.00    +0.206 C 
BRANCH  14  15
ATOM     15  O   UNL     1       8.756  -2.096  25.238  0.00  0.00    -0.284 OA
BRANCH  15  16
ATOM     16  P   UNL     1       8.948  -2.920  23.878  0.00  0.00    +0.472 P 
ATOM     17  O   UNL     1       8.727  -4.389  23.961  0.00  0.00    -0.228 OA
BRANCH  16  18
ATOM     18  O   UNL     1      10.417  -2.524  23.406  0.00  0.00    -0.303 OA
ATOM     19  H   UNL     1      10.939  -2.192  24.156  0.00  0.00    +0.222 HD
ENDBRANCH  16  18
BRANCH  16  20
ATOM     20  O   UNL     1       8.011  -2.178  22.819  0.00  0.00    -0.303 OA
ATOM     21  H   UNL     1       7.065  -2.328  22.995  0.00  0.00    +0.222 HD
ENDBRANCH  16  20
ENDBRANCH  15  16
ENDBRANCH  14  15
ENDBRANCH   1  14
TORSDOF 12
ENDMDL
MODEL 8
REMARK VINA RESULT:      -4.9      7.510      9.623
REMARK  Name = 
REMARK  12 active torsions:
REMARK  status: ('A' for Active; 'I' for Inactive)
REMARK    1  A    between atoms: O_1  and  C_2
REMARK    2  A    between atoms: C_2  and  C_4
REMARK    3  A    between atoms: C_2  and  C_10
REMARK    4  A    between atoms: C_4  and  O_5
REMARK    5  A    between atoms: O_5  and  P_6
REMARK    6  A    between atoms: P_6  and  O_7
REMARK    7  A    between atoms: P_6  and  O_8
REMARK    8  A    between atoms: C_10  and  O_12
REMARK    9  A    between atoms: C_10  and  C_13
REMARK   10  A    between atoms: C_13  and  O_15
REMARK   11  A    between atoms: C_13  and  C_16
REMARK   12  A    between atoms: C_16  and  O_17
REMARK                            x       y       z     vdW  Elec       q    Type
REMARK                         _______ _______ _______ _____ _____    ______ ____
ROOT
ATOM      1  C   UNL     1       6.070  -5.337  22.438  0.00  0.00    +0.172 C 
ENDROOT
BRANCH   1   2
ATOM      2  O   UNL     1       6.345  -6.710  22.083  0.00  0.00    -0.387 OA
ATOM      3  H   UNL     1       5.686  -7.273  22.527  0.00  0.00    +0.210 HD
ENDBRANCH   1   2
BRANCH   1   4
ATOM      4  C   UNL     1       5.068  -5.402  23.605  0.00  0.00    +0.185 C 
BRANCH   4   5
ATOM      5  O   UNL     1       5.337  -4.299  24.493  0.00  0.00    -0.386 OA
ATOM      6  H   UNL     1       5.663  -4.709  25.320  0.00  0.00    +0.210 HD
ENDBRANCH   4   5
BRANCH   4   7
ATOM      7  C   UNL     1       5.046  -6.719  24.388  0.00  0.00    +0.254 C 
BRANCH   7   8
ATOM      8  C   UNL     1       4.804  -6.454  25.866  0.00  0.00    +0.336 C 
ATOM      9  O   UNL     1       3.702  -6.242  26.353  0.00  0.00    -0.248 OA
BRANCH   8  10
ATOM     10  O   UNL     1       5.956  -6.469  26.578  0.00  0.00    -0.479 OA
ATOM     11  H   UNL     1       6.513  -5.711  26.272  0.00  0.00    +0.295 HD
ENDBRANCH   8  10
ENDBRANCH   7   8
BRANCH   7  12
ATOM     12  O   UNL     1       3.997  -7.568  23.889  0.00  0.00    -0.378 OA
ATOM     13  H   UNL     1       3.213  -7.405  24.447  0.00  0.00    +0.211 HD
ENDBRANCH   7  12
ENDBRANCH   4   7
ENDBRANCH   1   4
BRANCH   1  14
ATOM     14  C   UNL     1       7.355  -4.610  22.826  0.00  0.00    +0.206 C 
BRANCH  14  15
ATOM     15  O   UNL     1       8.205  -5.473  23.570  0.00  0.00    -0.284 OA
BRANCH  15  16
ATOM     16  P   UNL     1       8.848  -4.855  24.900  0.00  0.00    +0.472 P 
ATOM     17  O   UNL     1       7.892  -4.331  25.912  0.00  0.00    -0.228 OA
BRANCH  16  18
ATOM     18  O   UNL     1       9.857  -3.753  24.350  0.00  0.00    -0.303 OA
ATOM     19  H   UNL     1      10.454  -3.452  25.056  0.00  0.00    +0.222 HD
ENDBRANCH  16  18
BRANCH  16  20
ATOM     20  O   UNL     1       9.819  -5.998  25.449  0.00  0.00    -0.303 OA
ATOM     21  H   UNL     1      10.159  -5.795  26.339  0.00  0.00    +0.222 HD
ENDBRANCH  16  20
ENDBRANCH  15  16
ENDBRANCH  14  15
ENDBRANCH   1  14
TORSDOF 12
ENDMDL
MODEL 9
REMARK VINA RESULT:      -4.9      4.279      6.325
REMARK  Name = 
REMARK  12 active torsions:
REMARK  status: ('A' for Active; 'I' for Inactive)
REMARK    1  A    between atoms: O_1  and  C_2
REMARK    2  A    between atoms: C_2  and  C_4
REMARK    3  A    between atoms: C_2  and  C_10
REMARK    4  A    between atoms: C_4  and  O_5
REMARK    5  A    between atoms: O_5  and  P_6
REMARK    6  A    between atoms: P_6  and  O_7
REMARK    7  A    between atoms: P_6  and  O_8
REMARK    8  A    between atoms: C_10  and  O_12
REMARK    9  A    between atoms: C_10  and  C_13
REMARK   10  A    between atoms: C_13  and  O_15
REMARK   11  A    between atoms: C_13  and  C_16
REMARK   12  A    between atoms: C_16  and  O_17
REMARK                            x       y       z     vdW  Elec       q    Type
REMARK                         _______ _______ _______ _____ _____    ______ ____
ROOT
ATOM      1  C   UNL     1       8.475  -2.365  25.383  0.00  0.00    +0.172 C 
ENDROOT
BRANCH   1   2
ATOM      2  O   UNL     1       7.171  -2.435  24.766  0.00  0.00    -0.387 OA
ATOM      3  H   UNL     1       6.923  -1.536  24.484  0.00  0.00    +0.210 HD
ENDBRANCH   1   2
BRANCH   1   4
ATOM      4  C   UNL     1       9.237  -3.605  24.882  0.00  0.00    +0.185 C 
BRANCH   4   5
ATOM      5  O   UNL     1       8.617  -4.053  23.660  0.00  0.00    -0.386 OA
ATOM      6  H   UNL     1       8.885  -4.989  23.564  0.00  0.00    +0.210 HD
ENDBRANCH   4   5
BRANCH   4   7
ATOM      7  C   UNL     1       9.346  -4.765  25.876  0.00  0.00    +0.254 C 
BRANCH   7   8
ATOM      8  C   UNL     1       7.965  -5.307  26.213  0.00  0.00    +0.336 C 
ATOM      9  O   UNL     1       7.034  -5.351  25.420  0.00  0.00    -0.248 OA
BRANCH   8  10
ATOM     10  O   UNL     1       7.884  -5.723  27.500  0.00  0.00    -0.479 OA
ATOM     11  H   UNL     1       8.367  -6.583  27.572  0.00  0.00    +0.295 HD
ENDBRANCH   8  10
ENDBRANCH   7   8
BRANCH   7  12
ATOM     12  O   UNL     1      10.137  -5.824  25.310  0.00  0.00    -0.378 OA
ATOM     13  H   UNL     1      11.036  -5.466  25.180  0.00  0.00    +0.211 HD
ENDBRANCH   7  12
ENDBRANCH   4   7
ENDBRANCH   1   4
BRANCH   1  14
ATOM     14  C   UNL     1       9.184  -1.066  25.009  0.00  0.00    +0.206 C 
BRANCH  14  15
ATOM     15  O   UNL     1      10.074  -1.286  23.922  0.00  0.00    -0.284 OA
BRANCH  15  16
ATOM     16  P   UNL     1       9.703  -0.553  22.547  0.00  0.00    +0.472 P 
ATOM     17  O   UNL     1      10.212   0.835  22.383  0.00  0.00    -0.228 OA
BRANCH  16  18
ATOM     18  O   UNL     1       8.115  -0.658  22.484  0.00  0.00    -0.303 OA
ATOM     19  H   UNL     1       7.844  -1.507  22.093  0.00  0.00    +0.222 HD
ENDBRANCH  16  18
BRANCH  16  20
ATOM     20  O   UNL     1      10.183  -1.563  21.407  0.00  0.00    -0.303 OA
ATOM     21  H   UNL     1      10.736  -2.283  21.762  0.00  0.00    +0.222 HD
ENDBRANCH  16  20
ENDBRANCH  15  16
ENDBRANCH  14  15
ENDBRANCH   1  14
TORSDOF 12
ENDMDL
