MODEL 1
REMARK VINA RESULT:      -6.8      0.000      0.000
REMARK  Name = 
REMARK  4 active torsions:
REMARK  status: ('A' for Active; 'I' for Inactive)
REMARK    1  A    between atoms: O_1  and  C_2
REMARK    2  A    between atoms: C_5  and  C_8
REMARK    3  A    between atoms: C_13  and  C_18
REMARK    4  A    between atoms: C_15  and  O_16
REMARK                            x       y       z     vdW  Elec       q    Type
REMARK                         _______ _______ _______ _____ _____    ______ ____
ROOT
ATOM      1  C   UNL     1       7.022  -2.651  22.784  0.00  0.00    +0.136 A 
ATOM      2  O   UNL     1       7.286  -3.242  23.989  0.00  0.00    -0.454 OA
ATOM      3  C   UNL     1       6.487  -4.343  24.091  0.00  0.00    +0.153 A 
ATOM      4  C   UNL     1       6.429  -5.245  25.154  0.00  0.00    +0.098 A 
ATOM      5  C   UNL     1       5.516  -6.305  25.062  0.00  0.00    +0.068 A 
ATOM      6  C   UNL     1       4.708  -6.429  23.934  0.00  0.00    +0.119 A 
ATOM      7  C   UNL     1       4.783  -5.526  22.869  0.00  0.00    +0.057 A 
ATOM      8  C   UNL     1       5.695  -4.460  22.951  0.00  0.00    +0.025 A 
ATOM      9  C   UNL     1       6.059  -3.377  22.112  0.00  0.00    +0.058 A 
ENDROOT
BRANCH   1  13
ATOM     10  C   UNL     1       9.236   0.874  21.880  0.00  0.00    +0.117 A 
ATOM     11  C   UNL     1       7.971   0.979  22.443  0.00  0.00    +0.046 A 
ATOM     12  C   UNL     1       7.246  -0.178  22.742  0.00  0.00    +0.015 A 
ATOM     13  C   UNL     1       7.781  -1.447  22.471  0.00  0.00    +0.018 A 
ATOM     14  C   UNL     1       9.066  -1.528  21.911  0.00  0.00    +0.015 A 
ATOM     15  C   UNL     1       9.796  -0.372  21.619  0.00  0.00    +0.046 A 
BRANCH  10  16
ATOM     16  O   UNL     1       9.902   2.026  21.591  0.00  0.00    -0.507 OA
ATOM     17  H   UNL     1      10.855   1.865  21.685  0.00  0.00    +0.292 HD
ENDBRANCH  10  16
ENDBRANCH   1  13
BRANCH   4  18
ATOM     18  C   UNL     1       7.282  -5.063  26.280  0.00  0.00    +0.103 C 
ATOM     19  N   UNL     1       8.014  -4.901  27.166  0.00  0.00    -0.191 NA
ENDBRANCH   4  18
BRANCH   6  20
ATOM     20  O   UNL     1       3.804  -7.444  23.820  0.00  0.00    -0.507 OA
ATOM     21  H   UNL     1       2.902  -7.087  23.872  0.00  0.00    +0.292 HD
ENDBRANCH   6  20
TORSDOF 4
ENDMDL
MODEL 2
REMARK VINA RESULT:      -6.6      2.092      6.960
REMARK  Name = 
REMARK  4 active torsions:
REMARK  status: ('A' for Active; 'I' for Inactive)
REMARK    1  A    between atoms: O_1  and  C_2
REMARK    2  A    between atoms: C_5  and  C_8
REMARK    3  A    between atoms: C_13  and  C_18
REMARK    4  A    between atoms: C_15  and  O_16
REMARK                            x       y       z     vdW  Elec       q    Type
REMARK                         _______ _______ _______ _____ _____    ______ ____
ROOT
ATOM      1  C   UNL     1       7.355  -2.484  22.732  0.00  0.00    +0.136 A 
ATOM      2  O   UNL     1       6.745  -1.350  23.191  0.00  0.00    -0.454 OA
ATOM      3  C   UNL     1       7.536  -0.291  22.850  0.00  0.00    +0.153 A 
ATOM      4  C   UNL     1       7.296   1.057  23.116  0.00  0.00    +0.098 A 
ATOM      5  C   UNL     1       8.256   1.987  22.691  0.00  0.00    +0.068 A 
ATOM      6  C   UNL     1       9.400   1.550  22.027  0.00  0.00    +0.119 A 
ATOM      7  C   UNL     1       9.624   0.196  21.756  0.00  0.00    +0.057 A 
ATOM      8  C   UNL     1       8.668  -0.743  22.177  0.00  0.00    +0.025 A 
ATOM      9  C   UNL     1       8.533  -2.153  22.092  0.00  0.00    +0.058 A 
ENDROOT
BRANCH   1  13
ATOM     10  C   UNL     1       5.346  -6.166  23.477  0.00  0.00    +0.117 A 
ATOM     11  C   UNL     1       5.851  -5.900  22.211  0.00  0.00    +0.046 A 
ATOM     12  C   UNL     1       6.513  -4.693  21.968  0.00  0.00    +0.015 A 
ATOM     13  C   UNL     1       6.665  -3.742  22.990  0.00  0.00    +0.018 A 
ATOM     14  C   UNL     1       6.155  -4.038  24.263  0.00  0.00    +0.015 A 
ATOM     15  C   UNL     1       5.500  -5.248  24.511  0.00  0.00    +0.046 A 
BRANCH  10  16
ATOM     16  O   UNL     1       4.696  -7.348  23.668  0.00  0.00    -0.507 OA
ATOM     17  H   UNL     1       5.238  -8.063  23.296  0.00  0.00    +0.292 HD
ENDBRANCH  10  16
ENDBRANCH   1  13
BRANCH   4  18
ATOM     18  C   UNL     1       6.107   1.441  23.799  0.00  0.00    +0.103 C 
ATOM     19  N   UNL     1       5.138   1.708  24.381  0.00  0.00    -0.191 NA
ENDBRANCH   4  18
BRANCH   6  20
ATOM     20  O   UNL     1      10.356   2.429  21.610  0.00  0.00    -0.507 OA
ATOM     21  H   UNL     1      10.766   2.856  22.380  0.00  0.00    +0.292 HD
ENDBRANCH   6  20
TORSDOF 4
ENDMDL
MODEL 3
REMARK VINA RESULT:      -6.6      2.231      3.003
REMARK  Name = 
REMARK  4 active torsions:
REMARK  status: ('A' for Active; 'I' for Inactive)
REMARK    1  A    between atoms: O_1  and  C_2
REMARK    2  A    between atoms: C_5  and  C_8
REMARK    3  A    between atoms: C_13  and  C_18
REMARK    4  A    between atoms: C_15  and  O_16
REMARK                            x       y       z     vdW  Elec       q    Type
REMARK                         _______ _______ _______ _____ _____    ______ ____
ROOT
ATOM      1  C   UNL     1       8.412  -1.948  24.465  0.00  0.00    +0.136 A 
ATOM      2  O   UNL     1       7.458  -2.711  23.849  0.00  0.00    -0.454 OA
ATOM      3  C   UNL     1       7.097  -3.698  24.718  0.00  0.00    +0.153 A 
ATOM      4  C   UNL     1       6.149  -4.700  24.506  0.00  0.00    +0.098 A 
ATOM      5  C   UNL     1       5.945  -5.633  25.532  0.00  0.00    +0.068 A 
ATOM      6  C   UNL     1       6.676  -5.536  26.714  0.00  0.00    +0.119 A 
ATOM      7  C   UNL     1       7.615  -4.521  26.920  0.00  0.00    +0.057 A 
ATOM      8  C   UNL     1       7.827  -3.581  25.898  0.00  0.00    +0.025 A 
ATOM      9  C   UNL     1       8.657  -2.443  25.730  0.00  0.00    +0.058 A 
ENDROOT
BRANCH   1  13
ATOM     10  C   UNL     1       9.955   1.342  22.240  0.00  0.00    +0.117 A 
ATOM     11  C   UNL     1      10.091   1.318  23.622  0.00  0.00    +0.046 A 
ATOM     12  C   UNL     1       9.588   0.237  24.351  0.00  0.00    +0.015 A 
ATOM     13  C   UNL     1       8.937  -0.823  23.701  0.00  0.00    +0.018 A 
ATOM     14  C   UNL     1       8.819  -0.782  22.303  0.00  0.00    +0.015 A 
ATOM     15  C   UNL     1       9.330   0.295  21.571  0.00  0.00    +0.046 A 
BRANCH  10  16
ATOM     16  O   UNL     1      10.447   2.420  21.570  0.00  0.00    -0.507 OA
ATOM     17  H   UNL     1      11.369   2.559  21.841  0.00  0.00    +0.292 HD
ENDBRANCH  10  16
ENDBRANCH   1  13
BRANCH   4  18
ATOM     18  C   UNL     1       5.434  -4.745  23.275  0.00  0.00    +0.103 C 
ATOM     19  N   UNL     1       4.848  -4.731  22.272  0.00  0.00    -0.191 NA
ENDBRANCH   4  18
BRANCH   6  20
ATOM     20  O   UNL     1       6.506  -6.434  27.727  0.00  0.00    -0.507 OA
ATOM     21  H   UNL     1       7.275  -6.408  28.320  0.00  0.00    +0.292 HD
ENDBRANCH   6  20
TORSDOF 4
ENDMDL
MODEL 4
REMARK VINA RESULT:      -6.4      1.679      2.157
REMARK  Name = 
REMARK  4 active torsions:
REMARK  status: ('A' for Active; 'I' for Inactive)
REMARK    1  A    between atoms: O_1  and  C_2
REMARK    2  A    between atoms: C_5  and  C_8
REMARK    3  A    between atoms: C_13  and  C_18
REMARK    4  A    between atoms: C_15  and  O_16
REMARK                            x       y       z     vdW  Elec       q    Type
REMARK                         _______ _______ _______ _____ _____    ______ ____
ROOT
ATOM      1  C   UNL     1       8.571  -1.589  22.975  0.00  0.00    +0.136 A 
ATOM      2  O   UNL     1       8.364  -2.296  24.127  0.00  0.00    -0.454 OA
ATOM      3  C   UNL     1       7.708  -3.444  23.793  0.00  0.00    +0.153 A 
ATOM      4  C   UNL     1       7.300  -4.461  24.656  0.00  0.00    +0.098 A 
ATOM      5  C   UNL     1       6.617  -5.553  24.102  0.00  0.00    +0.068 A 
ATOM      6  C   UNL     1       6.370  -5.595  22.731  0.00  0.00    +0.119 A 
ATOM      7  C   UNL     1       6.793  -4.574  21.874  0.00  0.00    +0.057 A 
ATOM      8  C   UNL     1       7.479  -3.476  22.420  0.00  0.00    +0.025 A 
ATOM      9  C   UNL     1       8.053  -2.286  21.902  0.00  0.00    +0.058 A 
ENDROOT
BRANCH   1  13
ATOM     10  C   UNL     1      10.605   2.134  23.363  0.00  0.00    +0.117 A 
ATOM     11  C   UNL     1      10.046   1.777  22.143  0.00  0.00    +0.046 A 
ATOM     12  C   UNL     1       9.376   0.557  22.017  0.00  0.00    +0.015 A 
ATOM     13  C   UNL     1       9.270  -0.317  23.110  0.00  0.00    +0.018 A 
ATOM     14  C   UNL     1       9.834   0.070  24.335  0.00  0.00    +0.015 A 
ATOM     15  C   UNL     1      10.498   1.294  24.466  0.00  0.00    +0.046 A 
BRANCH  10  16
ATOM     16  O   UNL     1      11.261   3.325  23.438  0.00  0.00    -0.507 OA
ATOM     17  H   UNL     1      10.701   3.958  23.917  0.00  0.00    +0.292 HD
ENDBRANCH  10  16
ENDBRANCH   1  13
BRANCH   4  18
ATOM     18  C   UNL     1       7.583  -4.361  26.048  0.00  0.00    +0.103 C 
ATOM     19  N   UNL     1       7.863  -4.274  27.172  0.00  0.00    -0.191 NA
ENDBRANCH   4  18
BRANCH   6  20
ATOM     20  O   UNL     1       5.700  -6.639  22.164  0.00  0.00    -0.507 OA
ATOM     21  H   UNL     1       4.881  -6.809  22.657  0.00  0.00    +0.292 HD
ENDBRANCH   6  20
TORSDOF 4
ENDMDL
MODEL 5
REMARK VINA RESULT:      -6.3      2.874      3.903
REMARK  Name = 
REMARK  4 active torsions:
REMARK  status: ('A' for Active; 'I' for Inactive)
REMARK    1  A    between atoms: O_1  and  C_2
REMARK    2  A    between atoms: C_5  and  C_8
REMARK    3  A    between atoms: C_13  and  C_18
REMARK    4  A    between atoms: C_15  and  O_16
REMARK                            x       y       z     vdW  Elec       q    Type
REMARK                         _______ _______ _______ _____ _____    ______ ____
ROOT
ATOM      1  C   UNL     1       8.504  -0.491  23.648  0.00  0.00    +0.136 A 
ATOM      2  O   UNL     1       7.732  -1.416  23.001  0.00  0.00    -0.454 OA
ATOM      3  C   UNL     1       8.054  -2.643  23.501  0.00  0.00    +0.153 A 
ATOM      4  C   UNL     1       7.506  -3.872  23.131  0.00  0.00    +0.098 A 
ATOM      5  C   UNL     1       8.000  -5.023  23.762  0.00  0.00    +0.068 A 
ATOM      6  C   UNL     1       9.002  -4.912  24.724  0.00  0.00    +0.119 A 
ATOM      7  C   UNL     1       9.535  -3.674  25.095  0.00  0.00    +0.057 A 
ATOM      8  C   UNL     1       9.047  -2.515  24.469  0.00  0.00    +0.025 A 
ATOM      9  C   UNL     1       9.317  -1.125  24.566  0.00  0.00    +0.058 A 
ENDROOT
BRANCH   1  13
ATOM     10  C   UNL     1       7.927   3.575  22.517  0.00  0.00    +0.117 A 
ATOM     11  C   UNL     1       7.115   2.587  21.977  0.00  0.00    +0.046 A 
ATOM     12  C   UNL     1       7.303   1.254  22.351  0.00  0.00    +0.015 A 
ATOM     13  C   UNL     1       8.311   0.901  23.261  0.00  0.00    +0.018 A 
ATOM     14  C   UNL     1       9.114   1.918  23.801  0.00  0.00    +0.015 A 
ATOM     15  C   UNL     1       8.922   3.254  23.435  0.00  0.00    +0.046 A 
BRANCH  10  16
ATOM     16  O   UNL     1       7.720   4.860  22.115  0.00  0.00    -0.507 OA
ATOM     17  H   UNL     1       6.777   4.972  21.911  0.00  0.00    +0.292 HD
ENDBRANCH  10  16
ENDBRANCH   1  13
BRANCH   4  18
ATOM     18  C   UNL     1       6.484  -3.919  22.141  0.00  0.00    +0.103 C 
ATOM     19  N   UNL     1       5.618  -3.937  21.367  0.00  0.00    -0.191 NA
ENDBRANCH   4  18
BRANCH   6  20
ATOM     20  O   UNL     1       9.508  -6.014  25.349  0.00  0.00    -0.507 OA
ATOM     21  H   UNL     1      10.479  -5.998  25.305  0.00  0.00    +0.292 HD
ENDBRANCH   6  20
TORSDOF 4
ENDMDL
MODEL 6
REMARK VINA RESULT:      -6.3      1.915      2.029
REMARK  Name = 
REMARK  4 active torsions:
REMARK  status: ('A' for Active; 'I' for Inactive)
REMARK    1  A    between atoms: O_1  and  C_2
REMARK    2  A    between atoms: C_5  and  C_8
REMARK    3  A    between atoms: C_13  and  C_18
REMARK    4  A    between atoms: C_15  and  O_16
REMARK                            x       y       z     vdW  Elec       q    Type
REMARK                         _______ _______ _______ _____ _____    ______ ____
ROOT
ATOM      1  C   UNL     1       7.546  -3.394  24.322  0.00  0.00    +0.136 A 
ATOM      2  O   UNL     1       7.259  -3.950  25.539  0.00  0.00    -0.454 OA
ATOM      3  C   UNL     1       6.369  -4.961  25.329  0.00  0.00    +0.153 A 
ATOM      4  C   UNL     1       5.807  -5.801  26.291  0.00  0.00    +0.098 A 
ATOM      5  C   UNL     1       4.891  -6.770  25.858  0.00  0.00    +0.068 A 
ATOM      6  C   UNL     1       4.573  -6.869  24.506  0.00  0.00    +0.119 A 
ATOM      7  C   UNL     1       5.150  -6.029  23.548  0.00  0.00    +0.057 A 
ATOM      8  C   UNL     1       6.070  -5.055  23.972  0.00  0.00    +0.025 A 
ATOM      9  C   UNL     1       6.845  -4.054  23.333  0.00  0.00    +0.058 A 
ENDROOT
BRANCH   1  13
ATOM     10  C   UNL     1      10.315  -0.157  24.334  0.00  0.00    +0.117 A 
ATOM     11  C   UNL     1       9.487  -0.360  25.430  0.00  0.00    +0.046 A 
ATOM     12  C   UNL     1       8.581  -1.424  25.427  0.00  0.00    +0.015 A 
ATOM     13  C   UNL     1       8.493  -2.286  24.322  0.00  0.00    +0.018 A 
ATOM     14  C   UNL     1       9.347  -2.066  23.230  0.00  0.00    +0.015 A 
ATOM     15  C   UNL     1      10.261  -1.007  23.235  0.00  0.00    +0.046 A 
BRANCH  10  16
ATOM     16  O   UNL     1      11.174   0.900  24.372  0.00  0.00    -0.507 OA
ATOM     17  H   UNL     1      11.362   1.113  25.301  0.00  0.00    +0.292 HD
ENDBRANCH  10  16
ENDBRANCH   1  13
BRANCH   4  18
ATOM     18  C   UNL     1       6.174  -5.649  27.659  0.00  0.00    +0.103 C 
ATOM     19  N   UNL     1       6.486  -5.575  28.775  0.00  0.00    -0.191 NA
ENDBRANCH   4  18
BRANCH   6  20
ATOM     20  O   UNL     1       3.678  -7.795  24.055  0.00  0.00    -0.507 OA
ATOM     21  H   UNL     1       3.681  -8.567  24.645  0.00  0.00    +0.292 HD
ENDBRANCH   6  20
TORSDOF 4
ENDMDL
MODEL 7
REMARK VINA RESULT:      -6.2      2.025      2.603
REMARK  Name = 
REMARK  4 active torsions:
REMARK  status: ('A' for Active; 'I' for Inactive)
REMARK    1  A    between atoms: O_1  and  C_2
REMARK    2  A    between atoms: C_5  and  C_8
REMARK    3  A    between atoms: C_13  and  C_18
REMARK    4  A    between atoms: C_15  and  O_16
REMARK                            x       y       z     vdW  Elec       q    Type
REMARK                         _______ _______ _______ _____ _____    ______ ____
ROOT
ATOM      1  C   UNL     1       8.322  -1.454  22.903  0.00  0.00    +0.136 A 
ATOM      2  O   UNL     1       7.191  -1.583  23.661  0.00  0.00    -0.454 OA
ATOM      3  C   UNL     1       6.711  -2.846  23.473  0.00  0.00    +0.153 A 
ATOM      4  C   UNL     1       5.576  -3.409  24.056  0.00  0.00    +0.098 A 
ATOM      5  C   UNL     1       5.249  -4.728  23.707  0.00  0.00    +0.068 A 
ATOM      6  C   UNL     1       6.051  -5.427  22.808  0.00  0.00    +0.119 A 
ATOM      7  C   UNL     1       7.193  -4.855  22.238  0.00  0.00    +0.057 A 
ATOM      8  C   UNL     1       7.529  -3.535  22.582  0.00  0.00    +0.025 A 
ATOM      9  C   UNL     1       8.570  -2.636  22.235  0.00  0.00    +0.058 A 
ENDROOT
BRANCH   1  13
ATOM     10  C   UNL     1      10.301   2.314  23.074  0.00  0.00    +0.117 A 
ATOM     11  C   UNL     1       9.818   1.843  21.860  0.00  0.00    +0.046 A 
ATOM     12  C   UNL     1       9.166   0.608  21.805  0.00  0.00    +0.015 A 
ATOM     13  C   UNL     1       9.002  -0.167  22.965  0.00  0.00    +0.018 A 
ATOM     14  C   UNL     1       9.490   0.335  24.181  0.00  0.00    +0.015 A 
ATOM     15  C   UNL     1      10.135   1.574  24.240  0.00  0.00    +0.046 A 
BRANCH  10  16
ATOM     16  O   UNL     1      10.943   3.516  23.080  0.00  0.00    -0.507 OA
ATOM     17  H   UNL     1      11.749   3.440  22.544  0.00  0.00    +0.292 HD
ENDBRANCH  10  16
ENDBRANCH   1  13
BRANCH   4  18
ATOM     18  C   UNL     1       4.797  -2.642  24.969  0.00  0.00    +0.103 C 
ATOM     19  N   UNL     1       4.123  -2.021  25.681  0.00  0.00    -0.191 NA
ENDBRANCH   4  18
BRANCH   6  20
ATOM     20  O   UNL     1       5.753  -6.707  22.442  0.00  0.00    -0.507 OA
ATOM     21  H   UNL     1       5.002  -6.706  21.827  0.00  0.00    +0.292 HD
ENDBRANCH   6  20
TORSDOF 4
ENDMDL
MODEL 8
REMARK VINA RESULT:      -6.2      2.288      6.921
REMARK  Name = 
REMARK  4 active torsions:
REMARK  status: ('A' for Active; 'I' for Inactive)
REMARK    1  A    between atoms: O_1  and  C_2
REMARK    2  A    between atoms: C_5  and  C_8
REMARK    3  A    between atoms: C_13  and  C_18
REMARK    4  A    between atoms: C_15  and  O_16
REMARK                            x       y       z     vdW  Elec       q    Type
REMARK                         _______ _______ _______ _____ _____    ______ ____
ROOT
ATOM      1  C   UNL     1       8.276  -1.667  22.706  0.00  0.00    +0.136 A 
ATOM      2  O   UNL     1       7.995  -0.912  23.812  0.00  0.00    -0.454 OA
ATOM      3  C   UNL     1       8.674   0.264  23.691  0.00  0.00    +0.153 A 
ATOM      4  C   UNL     1       8.674   1.332  24.589  0.00  0.00    +0.098 A 
ATOM      5  C   UNL     1       9.464   2.447  24.277  0.00  0.00    +0.068 A 
ATOM      6  C   UNL     1      10.212   2.462  23.102  0.00  0.00    +0.119 A 
ATOM      7  C   UNL     1      10.195   1.390  22.203  0.00  0.00    +0.057 A 
ATOM      8  C   UNL     1       9.406   0.268  22.506  0.00  0.00    +0.025 A 
ATOM      9  C   UNL     1       9.129  -0.971  21.874  0.00  0.00    +0.058 A 
ENDROOT
BRANCH   1  13
ATOM     10  C   UNL     1       6.417  -5.495  22.509  0.00  0.00    +0.117 A 
ATOM     11  C   UNL     1       7.537  -5.312  23.310  0.00  0.00    +0.046 A 
ATOM     12  C   UNL     1       8.144  -4.055  23.377  0.00  0.00    +0.015 A 
ATOM     13  C   UNL     1       7.639  -2.976  22.635  0.00  0.00    +0.018 A 
ATOM     14  C   UNL     1       6.501  -3.183  21.840  0.00  0.00    +0.015 A 
ATOM     15  C   UNL     1       5.887  -4.438  21.778  0.00  0.00    +0.046 A 
BRANCH  10  16
ATOM     16  O   UNL     1       5.865  -6.739  22.462  0.00  0.00    -0.507 OA
ATOM     17  H   UNL     1       4.898  -6.650  22.495  0.00  0.00    +0.292 HD
ENDBRANCH  10  16
ENDBRANCH   1  13
BRANCH   4  18
ATOM     18  C   UNL     1       7.888   1.256  25.774  0.00  0.00    +0.103 C 
ATOM     19  N   UNL     1       7.208   1.177  26.712  0.00  0.00    -0.191 NA
ENDBRANCH   4  18
BRANCH   6  20
ATOM     20  O   UNL     1      10.997   3.529  22.775  0.00  0.00    -0.507 OA
ATOM     21  H   UNL     1      11.773   3.555  23.359  0.00  0.00    +0.292 HD
ENDBRANCH   6  20
TORSDOF 4
ENDMDL
MODEL 9
REMARK VINA RESULT:      -5.9      3.940      8.094
REMARK  Name = 
REMARK  4 active torsions:
REMARK  status: ('A' for Active; 'I' for Inactive)
REMARK    1  A    between atoms: O_1  and  C_2
REMARK    2  A    between atoms: C_5  and  C_8
REMARK    3  A    between atoms: C_13  and  C_18
REMARK    4  A    between atoms: C_15  and  O_16
REMARK                            x       y       z     vdW  Elec       q    Type
REMARK                         _______ _______ _______ _____ _____    ______ ____
ROOT
ATOM      1  C   UNL     1       9.511   0.031  24.607  0.00  0.00    +0.136 A 
ATOM      2  O   UNL     1       8.668   0.976  25.124  0.00  0.00    -0.454 OA
ATOM      3  C   UNL     1       9.098   2.194  24.687  0.00  0.00    +0.153 A 
ATOM      4  C   UNL     1       8.530   3.437  24.968  0.00  0.00    +0.098 A 
ATOM      5  C   UNL     1       9.148   4.574  24.429  0.00  0.00    +0.068 A 
ATOM      6  C   UNL     1      10.288   4.437  23.641  0.00  0.00    +0.119 A 
ATOM      7  C   UNL     1      10.843   3.185  23.356  0.00  0.00    +0.057 A 
ATOM      8  C   UNL     1      10.231   2.039  23.892  0.00  0.00    +0.025 A 
ATOM      9  C   UNL     1      10.477   0.643  23.834  0.00  0.00    +0.058 A 
ENDROOT
BRANCH   1  13
ATOM     10  C   UNL     1       8.679  -4.025  25.611  0.00  0.00    +0.117 A 
ATOM     11  C   UNL     1       9.408  -3.733  24.466  0.00  0.00    +0.046 A 
ATOM     12  C   UNL     1       9.683  -2.403  24.139  0.00  0.00    +0.015 A 
ATOM     13  C   UNL     1       9.222  -1.355  24.952  0.00  0.00    +0.018 A 
ATOM     14  C   UNL     1       8.495  -1.675  26.109  0.00  0.00    +0.015 A 
ATOM     15  C   UNL     1       8.226  -3.006  26.443  0.00  0.00    +0.046 A 
BRANCH  10  16
ATOM     16  O   UNL     1       8.420  -5.333  25.886  0.00  0.00    -0.507 OA
ATOM     17  H   UNL     1       9.237  -5.843  25.760  0.00  0.00    +0.292 HD
ENDBRANCH  10  16
ENDBRANCH   1  13
BRANCH   4  18
ATOM     18  C   UNL     1       7.363   3.511  25.781  0.00  0.00    +0.103 C 
ATOM     19  N   UNL     1       6.440   3.563  26.484  0.00  0.00    -0.191 NA
ENDBRANCH   4  18
BRANCH   6  20
ATOM     20  O   UNL     1      10.917   5.525  23.110  0.00  0.00    -0.507 OA
ATOM     21  H   UNL     1      10.289   6.036  22.573  0.00  0.00    +0.292 HD
ENDBRANCH   6  20
TORSDOF 4
ENDMDL
