MODEL 1
REMARK VINA RESULT:      -6.6      0.000      0.000
REMARK  Name = 
REMARK  5 active torsions:
REMARK  status: ('A' for Active; 'I' for Inactive)
REMARK    1  A    between atoms: C_2  and  C_4
REMARK    2  A    between atoms: C_4  and  C_5
REMARK    3  A    between atoms: C_9  and  C_10
REMARK    4  A    between atoms: C_10  and  C_12
REMARK    5  A    between atoms: C_18  and  N_19
REMARK                            x       y       z     vdW  Elec       q    Type
REMARK                         _______ _______ _______ _____ _____    ______ ____
ROOT
ATOM      1  C   UNL     1       6.678  -3.455  25.183  0.00  0.00    -0.017 A 
ATOM      2  C   UNL     1       7.913  -2.792  25.004  0.00  0.00    +0.039 A 
ATOM      3  C   UNL     1       8.247  -2.326  23.711  0.00  0.00    +0.043 A 
ATOM      4  C   UNL     1       7.300  -2.374  22.673  0.00  0.00    +0.013 A 
ATOM      5  C   UNL     1       6.066  -2.977  22.874  0.00  0.00    +0.001 A 
ATOM      6  C   UNL     1       5.769  -3.537  24.111  0.00  0.00    +0.006 A 
ENDROOT
BRANCH   2   7
ATOM      7  N   UNL     1       8.686  -2.433  26.131  0.00  0.00    -0.357 N 
ATOM      8  H   UNL     1       8.184  -1.946  26.865  0.00  0.00    +0.142 HD
ATOM      9  H   UNL     1       9.214  -3.236  26.502  0.00  0.00    +0.142 HD
ENDBRANCH   2   7
BRANCH   3  10
ATOM     10  C   UNL     1       9.648  -1.898  23.389  0.00  0.00    +0.195 C 
ATOM     11  O   UNL     1      10.543  -2.732  23.256  0.00  0.00    -0.287 OA
BRANCH  10  12
ATOM     12  C   UNL     1       9.956  -0.449  23.183  0.00  0.00    +0.022 A 
ATOM     13  C   UNL     1      10.431   0.306  24.259  0.00  0.00    +0.012 A 
ATOM     14  C   UNL     1      10.594   1.689  24.121  0.00  0.00    +0.001 A 
ATOM     15  C   UNL     1      10.297   2.315  22.910  0.00  0.00    +0.000 A 
ATOM     16  C   UNL     1       9.886   1.556  21.815  0.00  0.00    +0.001 A 
ATOM     17  C   UNL     1       9.739   0.175  21.944  0.00  0.00    +0.012 A 
ENDBRANCH  10  12
ENDBRANCH   3  10
BRANCH   1  18
ATOM     18  C   UNL     1       6.273  -4.086  26.498  0.00  0.00    +0.132 C 
BRANCH  18  22
ATOM     19  N   UNL     1       7.908  -5.811  27.015  0.00  0.00    -0.329 N 
ATOM     20  H   UNL     1       8.425  -5.098  27.528  0.00  0.00    +0.145 HD
ATOM     21  H   UNL     1       8.146  -6.778  27.184  0.00  0.00    +0.145 HD
ATOM     22  C   UNL     1       6.632  -5.549  26.609  0.00  0.00    +0.215 C 
ATOM     23  O   UNL     1       5.866  -6.456  26.305  0.00  0.00    -0.276 OA
ENDBRANCH  18  22
ENDBRANCH   1  18
TORSDOF 5
ENDMDL
MODEL 2
REMARK VINA RESULT:      -6.6      2.606      6.425
REMARK  Name = 
REMARK  5 active torsions:
REMARK  status: ('A' for Active; 'I' for Inactive)
REMARK    1  A    between atoms: C_2  and  C_4
REMARK    2  A    between atoms: C_4  and  C_5
REMARK    3  A    between atoms: C_9  and  C_10
REMARK    4  A    between atoms: C_10  and  C_12
REMARK    5  A    between atoms: C_18  and  N_19
REMARK                            x       y       z     vdW  Elec       q    Type
REMARK                         _______ _______ _______ _____ _____    ______ ____
ROOT
ATOM      1  C   UNL     1       9.806  -0.484  24.314  0.00  0.00    -0.017 A 
ATOM      2  C   UNL     1       9.582  -1.831  23.948  0.00  0.00    +0.039 A 
ATOM      3  C   UNL     1       8.994  -2.699  24.898  0.00  0.00    +0.043 A 
ATOM      4  C   UNL     1       8.495  -2.192  26.110  0.00  0.00    +0.013 A 
ATOM      5  C   UNL     1       8.668  -0.854  26.436  0.00  0.00    +0.001 A 
ATOM      6  C   UNL     1       9.343  -0.014  25.558  0.00  0.00    +0.006 A 
ENDROOT
BRANCH   2   7
ATOM      7  N   UNL     1       9.757  -2.230  22.604  0.00  0.00    -0.357 N 
ATOM      8  H   UNL     1      10.110  -3.171  22.472  0.00  0.00    +0.142 HD
ATOM      9  H   UNL     1       8.910  -2.061  22.044  0.00  0.00    +0.142 HD
ENDBRANCH   2   7
BRANCH   3  10
ATOM     10  C   UNL     1       9.012  -4.185  24.692  0.00  0.00    +0.195 C 
ATOM     11  O   UNL     1      10.056  -4.823  24.818  0.00  0.00    -0.287 OA
BRANCH  10  12
ATOM     12  C   UNL     1       7.743  -4.908  24.372  0.00  0.00    +0.022 A 
ATOM     13  C   UNL     1       7.465  -5.243  23.043  0.00  0.00    +0.012 A 
ATOM     14  C   UNL     1       6.224  -5.796  22.709  0.00  0.00    +0.001 A 
ATOM     15  C   UNL     1       5.268  -6.026  23.698  0.00  0.00    +0.000 A 
ATOM     16  C   UNL     1       5.564  -5.754  25.032  0.00  0.00    +0.001 A 
ATOM     17  C   UNL     1       6.807  -5.219  25.372  0.00  0.00    +0.012 A 
ENDBRANCH  10  12
ENDBRANCH   3  10
BRANCH   1  18
ATOM     18  C   UNL     1      10.526   0.498  23.415  0.00  0.00    +0.132 C 
BRANCH  18  22
ATOM     19  N   UNL     1      10.119   2.265  21.794  0.00  0.00    -0.329 N 
ATOM     20  H   UNL     1      11.118   2.462  21.832  0.00  0.00    +0.145 HD
ATOM     21  H   UNL     1       9.593   2.649  21.022  0.00  0.00    +0.145 HD
ATOM     22  C   UNL     1       9.643   1.117  22.358  0.00  0.00    +0.215 C 
ATOM     23  O   UNL     1       8.543   0.671  22.052  0.00  0.00    -0.276 OA
ENDBRANCH  18  22
ENDBRANCH   1  18
TORSDOF 5
ENDMDL
MODEL 3
REMARK VINA RESULT:      -6.4      2.774      6.551
REMARK  Name = 
REMARK  5 active torsions:
REMARK  status: ('A' for Active; 'I' for Inactive)
REMARK    1  A    between atoms: C_2  and  C_4
REMARK    2  A    between atoms: C_4  and  C_5
REMARK    3  A    between atoms: C_9  and  C_10
REMARK    4  A    between atoms: C_10  and  C_12
REMARK    5  A    between atoms: C_18  and  N_19
REMARK                            x       y       z     vdW  Elec       q    Type
REMARK                         _______ _______ _______ _____ _____    ______ ____
ROOT
ATOM      1  C   UNL     1       8.807   0.480  22.503  0.00  0.00    -0.017 A 
ATOM      2  C   UNL     1       9.084  -0.905  22.558  0.00  0.00    +0.039 A 
ATOM      3  C   UNL     1       8.120  -1.763  23.137  0.00  0.00    +0.043 A 
ATOM      4  C   UNL     1       6.854  -1.269  23.495  0.00  0.00    +0.013 A 
ATOM      5  C   UNL     1       6.570   0.085  23.383  0.00  0.00    +0.001 A 
ATOM      6  C   UNL     1       7.549   0.955  22.918  0.00  0.00    +0.006 A 
ENDROOT
BRANCH   2   7
ATOM      7  N   UNL     1      10.201  -1.424  21.867  0.00  0.00    -0.357 N 
ATOM      8  H   UNL     1      10.241  -2.435  21.801  0.00  0.00    +0.142 HD
ATOM      9  H   UNL     1      10.319  -0.979  20.945  0.00  0.00    +0.142 HD
ENDBRANCH   2   7
BRANCH   3  10
ATOM     10  C   UNL     1       8.472  -3.175  23.503  0.00  0.00    +0.195 C 
ATOM     11  O   UNL     1       9.586  -3.448  23.949  0.00  0.00    -0.287 OA
BRANCH  10  12
ATOM     12  C   UNL     1       7.449  -4.257  23.368  0.00  0.00    +0.022 A 
ATOM     13  C   UNL     1       7.143  -4.751  22.097  0.00  0.00    +0.012 A 
ATOM     14  C   UNL     1       6.094  -5.663  21.938  0.00  0.00    +0.001 A 
ATOM     15  C   UNL     1       5.362  -6.093  23.045  0.00  0.00    +0.000 A 
ATOM     16  C   UNL     1       5.705  -5.653  24.322  0.00  0.00    +0.001 A 
ATOM     17  C   UNL     1       6.761  -4.756  24.487  0.00  0.00    +0.012 A 
ENDBRANCH  10  12
ENDBRANCH   3  10
BRANCH   1  18
ATOM     18  C   UNL     1       9.814   1.495  22.004  0.00  0.00    +0.132 C 
BRANCH  18  22
ATOM     19  N   UNL     1      10.781   3.557  22.856  0.00  0.00    -0.329 N 
ATOM     20  H   UNL     1      10.225   4.048  22.158  0.00  0.00    +0.145 HD
ATOM     21  H   UNL     1      11.174   4.100  23.611  0.00  0.00    +0.145 HD
ATOM     22  C   UNL     1      10.526   2.240  23.107  0.00  0.00    +0.215 C 
ATOM     23  O   UNL     1      10.913   1.707  24.141  0.00  0.00    -0.276 OA
ENDBRANCH  18  22
ENDBRANCH   1  18
TORSDOF 5
ENDMDL
MODEL 4
REMARK VINA RESULT:      -6.4      2.024      2.233
REMARK  Name = 
REMARK  5 active torsions:
REMARK  status: ('A' for Active; 'I' for Inactive)
REMARK    1  A    between atoms: C_2  and  C_4
REMARK    2  A    between atoms: C_4  and  C_5
REMARK    3  A    between atoms: C_9  and  C_10
REMARK    4  A    between atoms: C_10  and  C_12
REMARK    5  A    between atoms: C_18  and  N_19
REMARK                            x       y       z     vdW  Elec       q    Type
REMARK                         _______ _______ _______ _____ _____    ______ ____
ROOT
ATOM      1  C   UNL     1       6.235  -4.039  24.293  0.00  0.00    -0.017 A 
ATOM      2  C   UNL     1       7.624  -3.789  24.218  0.00  0.00    +0.039 A 
ATOM      3  C   UNL     1       8.067  -2.446  24.181  0.00  0.00    +0.043 A 
ATOM      4  C   UNL     1       7.158  -1.393  24.383  0.00  0.00    +0.013 A 
ATOM      5  C   UNL     1       5.800  -1.652  24.514  0.00  0.00    +0.001 A 
ATOM      6  C   UNL     1       5.341  -2.962  24.441  0.00  0.00    +0.006 A 
ENDROOT
BRANCH   2   7
ATOM      7  N   UNL     1       8.538  -4.854  24.382  0.00  0.00    -0.357 N 
ATOM      8  H   UNL     1       8.145  -5.710  24.758  0.00  0.00    +0.142 HD
ATOM      9  H   UNL     1       9.076  -5.030  23.522  0.00  0.00    +0.142 HD
ENDBRANCH   2   7
BRANCH   3  10
ATOM     10  C   UNL     1       9.479  -2.115  23.796  0.00  0.00    +0.195 C 
ATOM     11  O   UNL     1      10.340  -2.993  23.756  0.00  0.00    -0.287 OA
BRANCH  10  12
ATOM     12  C   UNL     1       9.837  -0.715  23.412  0.00  0.00    +0.022 A 
ATOM     13  C   UNL     1      10.369   0.142  24.380  0.00  0.00    +0.012 A 
ATOM     14  C   UNL     1      10.582   1.491  24.076  0.00  0.00    +0.001 A 
ATOM     15  C   UNL     1      10.279   1.981  22.805  0.00  0.00    +0.000 A 
ATOM     16  C   UNL     1       9.811   1.117  21.818  0.00  0.00    +0.001 A 
ATOM     17  C   UNL     1       9.613  -0.232  22.112  0.00  0.00    +0.012 A 
ENDBRANCH  10  12
ENDBRANCH   3  10
BRANCH   1  18
ATOM     18  C   UNL     1       5.652  -5.434  24.228  0.00  0.00    +0.132 C 
BRANCH  18  22
ATOM     19  N   UNL     1       5.871  -6.302  21.967  0.00  0.00    -0.329 N 
ATOM     20  H   UNL     1       6.735  -6.748  22.275  0.00  0.00    +0.145 HD
ATOM     21  H   UNL     1       5.460  -6.621  21.102  0.00  0.00    +0.145 HD
ATOM     22  C   UNL     1       5.025  -5.773  22.897  0.00  0.00    +0.215 C 
ATOM     23  O   UNL     1       3.852  -5.542  22.626  0.00  0.00    -0.276 OA
ENDBRANCH  18  22
ENDBRANCH   1  18
TORSDOF 5
ENDMDL
MODEL 5
REMARK VINA RESULT:      -6.3      2.594      6.409
REMARK  Name = 
REMARK  5 active torsions:
REMARK  status: ('A' for Active; 'I' for Inactive)
REMARK    1  A    between atoms: C_2  and  C_4
REMARK    2  A    between atoms: C_4  and  C_5
REMARK    3  A    between atoms: C_9  and  C_10
REMARK    4  A    between atoms: C_10  and  C_12
REMARK    5  A    between atoms: C_18  and  N_19
REMARK                            x       y       z     vdW  Elec       q    Type
REMARK                         _______ _______ _______ _____ _____    ______ ____
ROOT
ATOM      1  C   UNL     1       9.429   0.769  23.478  0.00  0.00    -0.017 A 
ATOM      2  C   UNL     1       9.427  -0.528  24.039  0.00  0.00    +0.039 A 
ATOM      3  C   UNL     1       9.319  -1.638  23.169  0.00  0.00    +0.043 A 
ATOM      4  C   UNL     1       9.381  -1.458  21.776  0.00  0.00    +0.013 A 
ATOM      5  C   UNL     1       9.441  -0.181  21.235  0.00  0.00    +0.001 A 
ATOM      6  C   UNL     1       9.437   0.923  22.079  0.00  0.00    +0.006 A 
ENDROOT
BRANCH   2   7
ATOM      7  N   UNL     1       9.731  -0.700  25.407  0.00  0.00    -0.357 N 
ATOM      8  H   UNL     1       9.239  -1.456  25.870  0.00  0.00    +0.142 HD
ATOM      9  H   UNL     1      10.747  -0.754  25.568  0.00  0.00    +0.142 HD
ENDBRANCH   2   7
BRANCH   3  10
ATOM     10  C   UNL     1       9.004  -3.004  23.705  0.00  0.00    +0.195 C 
ATOM     11  O   UNL     1       9.823  -3.612  24.393  0.00  0.00    -0.287 OA
BRANCH  10  12
ATOM     12  C   UNL     1       7.665  -3.617  23.441  0.00  0.00    +0.022 A 
ATOM     13  C   UNL     1       7.581  -4.991  23.201  0.00  0.00    +0.012 A 
ATOM     14  C   UNL     1       6.360  -5.558  22.819  0.00  0.00    +0.001 A 
ATOM     15  C   UNL     1       5.224  -4.759  22.690  0.00  0.00    +0.000 A 
ATOM     16  C   UNL     1       5.289  -3.400  22.991  0.00  0.00    +0.001 A 
ATOM     17  C   UNL     1       6.500  -2.834  23.389  0.00  0.00    +0.012 A 
ENDBRANCH  10  12
ENDBRANCH   3  10
BRANCH   1  18
ATOM     18  C   UNL     1       9.431   2.025  24.324  0.00  0.00    +0.132 C 
BRANCH  18  22
ATOM     19  N   UNL     1       9.116   4.140  23.167  0.00  0.00    -0.329 N 
ATOM     20  H   UNL     1       8.183   4.168  23.575  0.00  0.00    +0.145 HD
ATOM     21  H   UNL     1       9.485   4.997  22.779  0.00  0.00    +0.145 HD
ATOM     22  C   UNL     1      10.020   3.229  23.628  0.00  0.00    +0.215 C 
ATOM     23  O   UNL     1      11.221   3.371  23.426  0.00  0.00    -0.276 OA
ENDBRANCH  18  22
ENDBRANCH   1  18
TORSDOF 5
ENDMDL
MODEL 6
REMARK VINA RESULT:      -6.3      1.642      2.238
REMARK  Name = 
REMARK  5 active torsions:
REMARK  status: ('A' for Active; 'I' for Inactive)
REMARK    1  A    between atoms: C_2  and  C_4
REMARK    2  A    between atoms: C_4  and  C_5
REMARK    3  A    between atoms: C_9  and  C_10
REMARK    4  A    between atoms: C_10  and  C_12
REMARK    5  A    between atoms: C_18  and  N_19
REMARK                            x       y       z     vdW  Elec       q    Type
REMARK                         _______ _______ _______ _____ _____    ______ ____
ROOT
ATOM      1  C   UNL     1       5.960  -4.889  25.400  0.00  0.00    -0.017 A 
ATOM      2  C   UNL     1       7.095  -4.051  25.329  0.00  0.00    +0.039 A 
ATOM      3  C   UNL     1       7.842  -4.027  24.127  0.00  0.00    +0.043 A 
ATOM      4  C   UNL     1       7.368  -4.691  22.983  0.00  0.00    +0.013 A 
ATOM      5  C   UNL     1       6.218  -5.467  23.047  0.00  0.00    +0.001 A 
ATOM      6  C   UNL     1       5.537  -5.587  24.252  0.00  0.00    +0.006 A 
ENDROOT
BRANCH   2   7
ATOM      7  N   UNL     1       7.344  -3.120  26.361  0.00  0.00    -0.357 N 
ATOM      8  H   UNL     1       8.108  -2.476  26.192  0.00  0.00    +0.142 HD
ATOM      9  H   UNL     1       6.486  -2.624  26.642  0.00  0.00    +0.142 HD
ENDBRANCH   2   7
BRANCH   3  10
ATOM     10  C   UNL     1       9.209  -3.410  24.087  0.00  0.00    +0.195 C 
ATOM     11  O   UNL     1      10.192  -4.037  24.479  0.00  0.00    -0.287 OA
BRANCH  10  12
ATOM     12  C   UNL     1       9.389  -2.035  23.526  0.00  0.00    +0.022 A 
ATOM     13  C   UNL     1       9.140  -1.816  22.168  0.00  0.00    +0.012 A 
ATOM     14  C   UNL     1       9.433  -0.572  21.598  0.00  0.00    +0.001 A 
ATOM     15  C   UNL     1       9.961   0.454  22.383  0.00  0.00    +0.000 A 
ATOM     16  C   UNL     1      10.150   0.260  23.750  0.00  0.00    +0.001 A 
ATOM     17  C   UNL     1       9.842  -0.973  24.325  0.00  0.00    +0.012 A 
ENDBRANCH  10  12
ENDBRANCH   3  10
BRANCH   1  18
ATOM     18  C   UNL     1       5.157  -5.072  26.670  0.00  0.00    +0.132 C 
BRANCH  18  22
ATOM     19  N   UNL     1       5.286  -7.219  27.804  0.00  0.00    -0.329 N 
ATOM     20  H   UNL     1       4.744  -7.604  27.032  0.00  0.00    +0.145 HD
ATOM     21  H   UNL     1       5.767  -7.868  28.410  0.00  0.00    +0.145 HD
ATOM     22  C   UNL     1       5.820  -5.969  27.687  0.00  0.00    +0.215 C 
ATOM     23  O   UNL     1       6.738  -5.603  28.413  0.00  0.00    -0.276 OA
ENDBRANCH  18  22
ENDBRANCH   1  18
TORSDOF 5
ENDMDL
MODEL 7
REMARK VINA RESULT:      -6.2      2.337      2.917
REMARK  Name = 
REMARK  5 active torsions:
REMARK  status: ('A' for Active; 'I' for Inactive)
REMARK    1  A    between atoms: C_2  and  C_4
REMARK    2  A    between atoms: C_4  and  C_5
REMARK    3  A    between atoms: C_9  and  C_10
REMARK    4  A    between atoms: C_10  and  C_12
REMARK    5  A    between atoms: C_18  and  N_19
REMARK                            x       y       z     vdW  Elec       q    Type
REMARK                         _______ _______ _______ _____ _____    ______ ____
ROOT
ATOM      1  C   UNL     1       6.767  -4.290  24.183  0.00  0.00    -0.017 A 
ATOM      2  C   UNL     1       7.667  -3.454  23.485  0.00  0.00    +0.039 A 
ATOM      3  C   UNL     1       8.947  -3.226  24.043  0.00  0.00    +0.043 A 
ATOM      4  C   UNL     1       9.367  -3.946  25.174  0.00  0.00    +0.013 A 
ATOM      5  C   UNL     1       8.494  -4.810  25.821  0.00  0.00    +0.001 A 
ATOM      6  C   UNL     1       7.197  -4.959  25.346  0.00  0.00    +0.006 A 
ENDROOT
BRANCH   2   7
ATOM      7  N   UNL     1       7.357  -3.033  22.173  0.00  0.00    -0.357 N 
ATOM      8  H   UNL     1       6.369  -2.980  21.955  0.00  0.00    +0.142 HD
ATOM      9  H   UNL     1       7.847  -2.160  21.927  0.00  0.00    +0.142 HD
ENDBRANCH   2   7
BRANCH   3  10
ATOM     10  C   UNL     1       9.823  -2.123  23.524  0.00  0.00    +0.195 C 
ATOM     11  O   UNL     1      10.662  -2.347  22.653  0.00  0.00    -0.287 OA
BRANCH  10  12
ATOM     12  C   UNL     1       9.648  -0.729  24.037  0.00  0.00    +0.022 A 
ATOM     13  C   UNL     1       8.507  -0.414  24.780  0.00  0.00    +0.012 A 
ATOM     14  C   UNL     1       8.261   0.912  25.150  0.00  0.00    +0.001 A 
ATOM     15  C   UNL     1       9.157   1.920  24.792  0.00  0.00    +0.000 A 
ATOM     16  C   UNL     1      10.328   1.601  24.108  0.00  0.00    +0.001 A 
ATOM     17  C   UNL     1      10.586   0.277  23.752  0.00  0.00    +0.012 A 
ENDBRANCH  10  12
ENDBRANCH   3  10
BRANCH   1  18
ATOM     18  C   UNL     1       5.340  -4.513  23.731  0.00  0.00    +0.132 C 
BRANCH  18  22
ATOM     19  N   UNL     1       4.735  -6.829  23.302  0.00  0.00    -0.329 N 
ATOM     20  H   UNL     1       4.229  -6.809  24.187  0.00  0.00    +0.145 HD
ATOM     21  H   UNL     1       4.532  -7.583  22.662  0.00  0.00    +0.145 HD
ATOM     22  C   UNL     1       5.179  -5.659  22.761  0.00  0.00    +0.215 C 
ATOM     23  O   UNL     1       5.477  -5.584  21.573  0.00  0.00    -0.276 OA
ENDBRANCH  18  22
ENDBRANCH   1  18
TORSDOF 5
ENDMDL
MODEL 8
REMARK VINA RESULT:      -6.2      2.922      6.396
REMARK  Name = 
REMARK  5 active torsions:
REMARK  status: ('A' for Active; 'I' for Inactive)
REMARK    1  A    between atoms: C_2  and  C_4
REMARK    2  A    between atoms: C_4  and  C_5
REMARK    3  A    between atoms: C_9  and  C_10
REMARK    4  A    between atoms: C_10  and  C_12
REMARK    5  A    between atoms: C_18  and  N_19
REMARK                            x       y       z     vdW  Elec       q    Type
REMARK                         _______ _______ _______ _____ _____    ______ ____
ROOT
ATOM      1  C   UNL     1       9.595   0.732  22.898  0.00  0.00    -0.017 A 
ATOM      2  C   UNL     1       9.334   0.350  24.233  0.00  0.00    +0.039 A 
ATOM      3  C   UNL     1       9.394  -1.024  24.565  0.00  0.00    +0.043 A 
ATOM      4  C   UNL     1       9.864  -1.961  23.629  0.00  0.00    +0.013 A 
ATOM      5  C   UNL     1      10.173  -1.566  22.335  0.00  0.00    +0.001 A 
ATOM      6  C   UNL     1      10.012  -0.236  21.965  0.00  0.00    +0.006 A 
ENDROOT
BRANCH   2   7
ATOM      7  N   UNL     1       9.220   1.339  25.236  0.00  0.00    -0.357 N 
ATOM      8  H   UNL     1      10.058   1.502  25.783  0.00  0.00    +0.142 HD
ATOM      9  H   UNL     1       8.835   2.218  24.862  0.00  0.00    +0.142 HD
ENDBRANCH   2   7
BRANCH   3  10
ATOM     10  C   UNL     1       8.835  -1.523  25.866  0.00  0.00    +0.195 C 
ATOM     11  O   UNL     1       8.970  -0.867  26.898  0.00  0.00    -0.287 OA
BRANCH  10  12
ATOM     12  C   UNL     1       8.069  -2.806  25.904  0.00  0.00    +0.022 A 
ATOM     13  C   UNL     1       8.644  -3.926  26.510  0.00  0.00    +0.012 A 
ATOM     14  C   UNL     1       8.002  -5.167  26.435  0.00  0.00    +0.001 A 
ATOM     15  C   UNL     1       6.782  -5.287  25.769  0.00  0.00    +0.000 A 
ATOM     16  C   UNL     1       6.173  -4.161  25.220  0.00  0.00    +0.001 A 
ATOM     17  C   UNL     1       6.802  -2.919  25.307  0.00  0.00    +0.012 A 
ENDBRANCH  10  12
ENDBRANCH   3  10
BRANCH   1  18
ATOM     18  C   UNL     1       9.451   2.159  22.414  0.00  0.00    +0.132 C 
BRANCH  18  22
ATOM     19  N   UNL     1       7.769   3.895  22.140  0.00  0.00    -0.329 N 
ATOM     20  H   UNL     1       8.539   4.556  22.040  0.00  0.00    +0.145 HD
ATOM     21  H   UNL     1       6.851   4.194  21.844  0.00  0.00    +0.145 HD
ATOM     22  C   UNL     1       8.029   2.556  22.097  0.00  0.00    +0.215 C 
ATOM     23  O   UNL     1       7.137   1.746  21.872  0.00  0.00    -0.276 OA
ENDBRANCH  18  22
ENDBRANCH   1  18
TORSDOF 5
ENDMDL
MODEL 9
REMARK VINA RESULT:      -6.1      2.731      6.279
REMARK  Name = 
REMARK  5 active torsions:
REMARK  status: ('A' for Active; 'I' for Inactive)
REMARK    1  A    between atoms: C_2  and  C_4
REMARK    2  A    between atoms: C_4  and  C_5
REMARK    3  A    between atoms: C_9  and  C_10
REMARK    4  A    between atoms: C_10  and  C_12
REMARK    5  A    between atoms: C_18  and  N_19
REMARK                            x       y       z     vdW  Elec       q    Type
REMARK                         _______ _______ _______ _____ _____    ______ ____
ROOT
ATOM      1  C   UNL     1       8.619   0.393  22.653  0.00  0.00    -0.017 A 
ATOM      2  C   UNL     1       8.571  -0.996  22.398  0.00  0.00    +0.039 A 
ATOM      3  C   UNL     1       7.542  -1.758  23.000  0.00  0.00    +0.043 A 
ATOM      4  C   UNL     1       6.501  -1.120  23.696  0.00  0.00    +0.013 A 
ATOM      5  C   UNL     1       6.526   0.254  23.893  0.00  0.00    +0.001 A 
ATOM      6  C   UNL     1       7.591   0.999  23.400  0.00  0.00    +0.006 A 
ENDROOT
BRANCH   2   7
ATOM      7  N   UNL     1       9.409  -1.555  21.407  0.00  0.00    -0.357 N 
ATOM      8  H   UNL     1      10.393  -1.598  21.643  0.00  0.00    +0.142 HD
ATOM      9  H   UNL     1       9.057  -2.467  21.082  0.00  0.00    +0.142 HD
ENDBRANCH   2   7
BRANCH   3  10
ATOM     10  C   UNL     1       7.612  -3.256  23.023  0.00  0.00    +0.195 C 
ATOM     11  O   UNL     1       7.573  -3.902  21.976  0.00  0.00    -0.287 OA
BRANCH  10  12
ATOM     12  C   UNL     1       7.773  -3.975  24.324  0.00  0.00    +0.022 A 
ATOM     13  C   UNL     1       6.741  -4.800  24.781  0.00  0.00    +0.012 A 
ATOM     14  C   UNL     1       6.817  -5.370  26.056  0.00  0.00    +0.001 A 
ATOM     15  C   UNL     1       7.925  -5.130  26.869  0.00  0.00    +0.000 A 
ATOM     16  C   UNL     1       8.985  -4.361  26.393  0.00  0.00    +0.001 A 
ATOM     17  C   UNL     1       8.921  -3.804  25.115  0.00  0.00    +0.012 A 
ENDBRANCH  10  12
ENDBRANCH   3  10
BRANCH   1  18
ATOM     18  C   UNL     1       9.738   1.279  22.148  0.00  0.00    +0.132 C 
BRANCH  18  22
ATOM     19  N   UNL     1      10.520   3.403  23.036  0.00  0.00    -0.329 N 
ATOM     20  H   UNL     1       9.861   3.854  22.403  0.00  0.00    +0.145 HD
ATOM     21  H   UNL     1      10.902   3.957  23.789  0.00  0.00    +0.145 HD
ATOM     22  C   UNL     1      10.439   2.057  23.236  0.00  0.00    +0.215 C 
ATOM     23  O   UNL     1      10.959   1.530  24.213  0.00  0.00    -0.276 OA
ENDBRANCH  18  22
ENDBRANCH   1  18
TORSDOF 5
ENDMDL
