MODEL 1
REMARK VINA RESULT:      -4.6      0.000      0.000
REMARK  Name = 
REMARK  6 active torsions:
REMARK  status: ('A' for Active; 'I' for Inactive)
REMARK    1  A    between atoms: N_1  and  C_2
REMARK    2  A    between atoms: C_4  and  O_5
REMARK    3  A    between atoms: C_7  and  C_9
REMARK    4  A    between atoms: C_9  and  O_10
REMARK    5  A    between atoms: C_11  and  O_13
REMARK    6  A    between atoms: C_14  and  O_16
REMARK                            x       y       z     vdW  Elec       q    Type
REMARK                         _______ _______ _______ _____ _____    ______ ____
ROOT
ATOM      1  C   UNL     1       8.509  -4.490  26.431  0.00  0.00    +0.139 C 
ATOM      2  C   UNL     1       7.233  -3.716  26.028  0.00  0.00    +0.167 C 
ATOM      3  C   UNL     1       6.554  -4.275  24.766  0.00  0.00    +0.176 C 
ATOM      4  C   UNL     1       7.562  -4.540  23.633  0.00  0.00    +0.178 C 
ATOM      5  O   UNL     1       8.682  -5.313  24.113  0.00  0.00    -0.342 OA
ATOM      6  C   UNL     1       9.401  -4.698  25.178  0.00  0.00    +0.267 C 
ENDROOT
BRANCH   1   7
ATOM      7  N   UNL     1       8.201  -5.765  27.127  0.00  0.00    -0.321 NA
ATOM      8  H   UNL     1       7.783  -6.431  26.481  0.00  0.00    +0.119 HD
ATOM      9  H   UNL     1       9.076  -6.182  27.451  0.00  0.00    +0.119 HD
ENDBRANCH   1   7
BRANCH   2  10
ATOM     10  O   UNL     1       7.586  -2.342  25.806  0.00  0.00    -0.387 OA
ATOM     11  H   UNL     1       7.861  -1.972  26.664  0.00  0.00    +0.210 HD
ENDBRANCH   2  10
BRANCH   3  12
ATOM     12  O   UNL     1       5.852  -5.485  25.075  0.00  0.00    -0.387 OA
ATOM     13  H   UNL     1       6.305  -5.908  25.826  0.00  0.00    +0.210 HD
ENDBRANCH   3  12
BRANCH   6  14
ATOM     14  O   UNL     1      10.504  -5.541  25.486  0.00  0.00    -0.366 OA
ATOM     15  H   UNL     1      11.278  -5.104  25.097  0.00  0.00    +0.213 HD
ENDBRANCH   6  14
BRANCH   4  16
ATOM     16  C   UNL     1       8.002  -3.262  22.900  0.00  0.00    +0.190 C 
BRANCH  16  17
ATOM     17  O   UNL     1       6.918  -2.337  22.832  0.00  0.00    -0.392 OA
ATOM     18  H   UNL     1       7.255  -1.484  23.165  0.00  0.00    +0.210 HD
ENDBRANCH  16  17
ENDBRANCH   4  16
TORSDOF 6
ENDMDL
MODEL 2
REMARK VINA RESULT:      -4.5      3.658      5.366
REMARK  Name = 
REMARK  6 active torsions:
REMARK  status: ('A' for Active; 'I' for Inactive)
REMARK    1  A    between atoms: N_1  and  C_2
REMARK    2  A    between atoms: C_4  and  O_5
REMARK    3  A    between atoms: C_7  and  C_9
REMARK    4  A    between atoms: C_9  and  O_10
REMARK    5  A    between atoms: C_11  and  O_13
REMARK    6  A    between atoms: C_14  and  O_16
REMARK                            x       y       z     vdW  Elec       q    Type
REMARK                         _______ _______ _______ _____ _____    ______ ____
ROOT
ATOM      1  C   UNL     1       8.540  -2.110  23.121  0.00  0.00    +0.139 C 
ATOM      2  C   UNL     1       9.971  -1.578  22.880  0.00  0.00    +0.167 C 
ATOM      3  C   UNL     1      10.209  -0.179  23.475  0.00  0.00    +0.176 C 
ATOM      4  C   UNL     1       9.067   0.797  23.138  0.00  0.00    +0.178 C 
ATOM      5  O   UNL     1       7.784   0.214  23.452  0.00  0.00    -0.342 OA
ATOM      6  C   UNL     1       7.513  -1.003  22.762  0.00  0.00    +0.267 C 
ENDROOT
BRANCH   1   7
ATOM      7  N   UNL     1       8.354  -2.632  24.499  0.00  0.00    -0.321 NA
ATOM      8  H   UNL     1       7.364  -2.738  24.709  0.00  0.00    +0.119 HD
ATOM      9  H   UNL     1       8.766  -3.565  24.554  0.00  0.00    +0.119 HD
ENDBRANCH   1   7
BRANCH   2  10
ATOM     10  O   UNL     1      10.209  -1.537  21.466  0.00  0.00    -0.387 OA
ATOM     11  H   UNL     1       9.531  -0.956  21.075  0.00  0.00    +0.210 HD
ENDBRANCH   2  10
BRANCH   3  12
ATOM     12  O   UNL     1      10.363  -0.263  24.896  0.00  0.00    -0.387 OA
ATOM     13  H   UNL     1      10.490   0.640  25.236  0.00  0.00    +0.210 HD
ENDBRANCH   3  12
BRANCH   6  14
ATOM     14  O   UNL     1       6.198  -1.408  23.122  0.00  0.00    -0.366 OA
ATOM     15  H   UNL     1       5.680  -1.352  22.303  0.00  0.00    +0.213 HD
ENDBRANCH   6  14
BRANCH   4  16
ATOM     16  C   UNL     1       9.130   1.334  21.698  0.00  0.00    +0.190 C 
BRANCH  16  17
ATOM     17  O   UNL     1      10.234   2.226  21.556  0.00  0.00    -0.392 OA
ATOM     18  H   UNL     1      10.538   2.441  22.458  0.00  0.00    +0.210 HD
ENDBRANCH  16  17
ENDBRANCH   4  16
TORSDOF 6
ENDMDL
MODEL 3
REMARK VINA RESULT:      -4.5      4.565      6.011
REMARK  Name = 
REMARK  6 active torsions:
REMARK  status: ('A' for Active; 'I' for Inactive)
REMARK    1  A    between atoms: N_1  and  C_2
REMARK    2  A    between atoms: C_4  and  O_5
REMARK    3  A    between atoms: C_7  and  C_9
REMARK    4  A    between atoms: C_9  and  O_10
REMARK    5  A    between atoms: C_11  and  O_13
REMARK    6  A    between atoms: C_14  and  O_16
REMARK                            x       y       z     vdW  Elec       q    Type
REMARK                         _______ _______ _______ _____ _____    ______ ____
ROOT
ATOM      1  C   UNL     1       9.844   0.998  21.889  0.00  0.00    +0.139 C 
ATOM      2  C   UNL     1       9.122  -0.330  21.567  0.00  0.00    +0.167 C 
ATOM      3  C   UNL     1       8.087  -0.734  22.632  0.00  0.00    +0.176 C 
ATOM      4  C   UNL     1       8.644  -0.604  24.061  0.00  0.00    +0.178 C 
ATOM      5  O   UNL     1       9.246   0.692  24.261  0.00  0.00    -0.342 OA
ATOM      6  C   UNL     1      10.316   0.981  23.367  0.00  0.00    +0.267 C 
ENDROOT
BRANCH   1   7
ATOM      7  N   UNL     1       9.011   2.186  21.572  0.00  0.00    -0.321 NA
ATOM      8  H   UNL     1       8.419   2.427  22.364  0.00  0.00    +0.119 HD
ATOM      9  H   UNL     1       9.627   2.986  21.415  0.00  0.00    +0.119 HD
ENDBRANCH   1   7
BRANCH   2  10
ATOM     10  O   UNL     1      10.107  -1.367  21.449  0.00  0.00    -0.387 OA
ATOM     11  H   UNL     1      10.734  -1.255  22.187  0.00  0.00    +0.210 HD
ENDBRANCH   2  10
BRANCH   3  12
ATOM     12  O   UNL     1       6.905   0.065  22.504  0.00  0.00    -0.387 OA
ATOM     13  H   UNL     1       6.788   0.275  21.561  0.00  0.00    +0.210 HD
ENDBRANCH   3  12
BRANCH   6  14
ATOM     14  O   UNL     1      10.844   2.249  23.736  0.00  0.00    -0.366 OA
ATOM     15  H   UNL     1      10.555   2.391  24.651  0.00  0.00    +0.213 HD
ENDBRANCH   6  14
BRANCH   4  16
ATOM     16  C   UNL     1       9.584  -1.755  24.455  0.00  0.00    +0.190 C 
BRANCH  16  17
ATOM     17  O   UNL     1       9.190  -2.957  23.796  0.00  0.00    -0.392 OA
ATOM     18  H   UNL     1       8.889  -2.702  22.903  0.00  0.00    +0.210 HD
ENDBRANCH  16  17
ENDBRANCH   4  16
TORSDOF 6
ENDMDL
MODEL 4
REMARK VINA RESULT:      -4.5      4.073      5.230
REMARK  Name = 
REMARK  6 active torsions:
REMARK  status: ('A' for Active; 'I' for Inactive)
REMARK    1  A    between atoms: N_1  and  C_2
REMARK    2  A    between atoms: C_4  and  O_5
REMARK    3  A    between atoms: C_7  and  C_9
REMARK    4  A    between atoms: C_9  and  O_10
REMARK    5  A    between atoms: C_11  and  O_13
REMARK    6  A    between atoms: C_14  and  O_16
REMARK                            x       y       z     vdW  Elec       q    Type
REMARK                         _______ _______ _______ _____ _____    ______ ____
ROOT
ATOM      1  C   UNL     1       8.451  -1.085  24.295  0.00  0.00    +0.139 C 
ATOM      2  C   UNL     1       8.248  -0.867  22.778  0.00  0.00    +0.167 C 
ATOM      3  C   UNL     1       9.543  -0.488  22.039  0.00  0.00    +0.176 C 
ATOM      4  C   UNL     1      10.330   0.612  22.774  0.00  0.00    +0.178 C 
ATOM      5  O   UNL     1      10.503   0.276  24.167  0.00  0.00    -0.342 OA
ATOM      6  C   UNL     1       9.282   0.090  24.876  0.00  0.00    +0.267 C 
ENDROOT
BRANCH   1   7
ATOM      7  N   UNL     1       9.048  -2.410  24.602  0.00  0.00    -0.321 NA
ATOM      8  H   UNL     1       9.585  -2.366  25.465  0.00  0.00    +0.119 HD
ATOM      9  H   UNL     1       8.294  -3.081  24.760  0.00  0.00    +0.119 HD
ENDBRANCH   1   7
BRANCH   2  10
ATOM     10  O   UNL     1       7.277   0.174  22.594  0.00  0.00    -0.387 OA
ATOM     11  H   UNL     1       7.545   0.683  21.807  0.00  0.00    +0.210 HD
ENDBRANCH   2  10
BRANCH   3  12
ATOM     12  O   UNL     1      10.375  -1.641  21.871  0.00  0.00    -0.387 OA
ATOM     13  H   UNL     1      10.981  -1.684  22.632  0.00  0.00    +0.210 HD
ENDBRANCH   3  12
BRANCH   6  14
ATOM     14  O   UNL     1       9.618  -0.162  26.235  0.00  0.00    -0.366 OA
ATOM     15  H   UNL     1      10.578  -0.035  26.290  0.00  0.00    +0.213 HD
ENDBRANCH   6  14
BRANCH   4  16
ATOM     16  C   UNL     1       9.738   2.018  22.578  0.00  0.00    +0.190 C 
BRANCH  16  17
ATOM     17  O   UNL     1       9.139   2.123  21.288  0.00  0.00    -0.392 OA
ATOM     18  H   UNL     1       9.852   1.986  20.636  0.00  0.00    +0.210 HD
ENDBRANCH  16  17
ENDBRANCH   4  16
TORSDOF 6
ENDMDL
MODEL 5
REMARK VINA RESULT:      -4.5      5.249      6.149
REMARK  Name = 
REMARK  6 active torsions:
REMARK  status: ('A' for Active; 'I' for Inactive)
REMARK    1  A    between atoms: N_1  and  C_2
REMARK    2  A    between atoms: C_4  and  O_5
REMARK    3  A    between atoms: C_7  and  C_9
REMARK    4  A    between atoms: C_9  and  O_10
REMARK    5  A    between atoms: C_11  and  O_13
REMARK    6  A    between atoms: C_14  and  O_16
REMARK                            x       y       z     vdW  Elec       q    Type
REMARK                         _______ _______ _______ _____ _____    ______ ____
ROOT
ATOM      1  C   UNL     1       9.614   2.175  24.048  0.00  0.00    +0.139 C 
ATOM      2  C   UNL     1       8.986   2.397  22.654  0.00  0.00    +0.167 C 
ATOM      3  C   UNL     1       8.014   1.279  22.238  0.00  0.00    +0.176 C 
ATOM      4  C   UNL     1       8.597  -0.122  22.495  0.00  0.00    +0.178 C 
ATOM      5  O   UNL     1       9.104  -0.229  23.842  0.00  0.00    -0.342 OA
ATOM      6  C   UNL     1      10.126   0.713  24.155  0.00  0.00    +0.267 C 
ENDROOT
BRANCH   1   7
ATOM      7  N   UNL     1       8.685   2.534  25.151  0.00  0.00    -0.321 NA
ATOM      8  H   UNL     1       8.543   3.541  25.182  0.00  0.00    +0.119 HD
ATOM      9  H   UNL     1       7.773   2.115  24.960  0.00  0.00    +0.119 HD
ENDBRANCH   1   7
BRANCH   2  10
ATOM     10  O   UNL     1      10.044   2.486  21.688  0.00  0.00    -0.387 OA
ATOM     11  H   UNL     1       9.953   1.723  21.088  0.00  0.00    +0.210 HD
ENDBRANCH   2  10
BRANCH   3  12
ATOM     12  O   UNL     1       6.772   1.416  22.938  0.00  0.00    -0.387 OA
ATOM     13  H   UNL     1       6.713   2.331  23.264  0.00  0.00    +0.210 HD
ENDBRANCH   3  12
BRANCH   6  14
ATOM     14  O   UNL     1      10.565   0.435  25.479  0.00  0.00    -0.366 OA
ATOM     15  H   UNL     1      10.531  -0.531  25.563  0.00  0.00    +0.213 HD
ENDBRANCH   6  14
BRANCH   4  16
ATOM     16  C   UNL     1       9.633  -0.553  21.442  0.00  0.00    +0.190 C 
BRANCH  16  17
ATOM     17  O   UNL     1      10.216  -1.801  21.810  0.00  0.00    -0.392 OA
ATOM     18  H   UNL     1       9.839  -2.474  21.212  0.00  0.00    +0.210 HD
ENDBRANCH  16  17
ENDBRANCH   4  16
TORSDOF 6
ENDMDL
MODEL 6
REMARK VINA RESULT:      -4.4      5.332      6.590
REMARK  Name = 
REMARK  6 active torsions:
REMARK  status: ('A' for Active; 'I' for Inactive)
REMARK    1  A    between atoms: N_1  and  C_2
REMARK    2  A    between atoms: C_4  and  O_5
REMARK    3  A    between atoms: C_7  and  C_9
REMARK    4  A    between atoms: C_9  and  O_10
REMARK    5  A    between atoms: C_11  and  O_13
REMARK    6  A    between atoms: C_14  and  O_16
REMARK                            x       y       z     vdW  Elec       q    Type
REMARK                         _______ _______ _______ _____ _____    ______ ____
ROOT
ATOM      1  C   UNL     1       8.412   1.640  24.086  0.00  0.00    +0.139 C 
ATOM      2  C   UNL     1       9.870   1.236  23.770  0.00  0.00    +0.167 C 
ATOM      3  C   UNL     1      10.142   1.066  22.265  0.00  0.00    +0.176 C 
ATOM      4  C   UNL     1       9.050   0.233  21.569  0.00  0.00    +0.178 C 
ATOM      5  O   UNL     1       7.736   0.734  21.895  0.00  0.00    -0.342 OA
ATOM      6  C   UNL     1       7.441   0.729  23.289  0.00  0.00    +0.267 C 
ENDROOT
BRANCH   1   7
ATOM      7  N   UNL     1       8.161   3.084  23.848  0.00  0.00    -0.321 NA
ATOM      8  H   UNL     1       7.329   3.388  24.350  0.00  0.00    +0.119 HD
ATOM      9  H   UNL     1       8.943   3.621  24.227  0.00  0.00    +0.119 HD
ENDBRANCH   1   7
BRANCH   2  10
ATOM     10  O   UNL     1      10.157   0.002  24.444  0.00  0.00    -0.387 OA
ATOM     11  H   UNL     1      10.849  -0.454  23.931  0.00  0.00    +0.210 HD
ENDBRANCH   2  10
BRANCH   3  12
ATOM     12  O   UNL     1      10.245   2.346  21.631  0.00  0.00    -0.387 OA
ATOM     13  H   UNL     1      10.560   2.203  20.721  0.00  0.00    +0.210 HD
ENDBRANCH   3  12
BRANCH   6  14
ATOM     14  O   UNL     1       6.100   1.178  23.439  0.00  0.00    -0.366 OA
ATOM     15  H   UNL     1       6.170   2.093  23.756  0.00  0.00    +0.213 HD
ENDBRANCH   6  14
BRANCH   4  16
ATOM     16  C   UNL     1       9.182  -1.278  21.823  0.00  0.00    +0.190 C 
BRANCH  16  17
ATOM     17  O   UNL     1      10.558  -1.648  21.877  0.00  0.00    -0.392 OA
ATOM     18  H   UNL     1      10.831  -1.580  22.812  0.00  0.00    +0.210 HD
ENDBRANCH  16  17
ENDBRANCH   4  16
TORSDOF 6
ENDMDL
MODEL 7
REMARK VINA RESULT:      -4.4      1.873      2.723
REMARK  Name = 
REMARK  6 active torsions:
REMARK  status: ('A' for Active; 'I' for Inactive)
REMARK    1  A    between atoms: N_1  and  C_2
REMARK    2  A    between atoms: C_4  and  O_5
REMARK    3  A    between atoms: C_7  and  C_9
REMARK    4  A    between atoms: C_9  and  O_10
REMARK    5  A    between atoms: C_11  and  O_13
REMARK    6  A    between atoms: C_14  and  O_16
REMARK                            x       y       z     vdW  Elec       q    Type
REMARK                         _______ _______ _______ _____ _____    ______ ____
ROOT
ATOM      1  C   UNL     1       9.107  -4.660  25.066  0.00  0.00    +0.139 C 
ATOM      2  C   UNL     1       8.715  -4.050  26.431  0.00  0.00    +0.167 C 
ATOM      3  C   UNL     1       7.472  -4.706  27.058  0.00  0.00    +0.176 C 
ATOM      4  C   UNL     1       6.326  -4.865  26.041  0.00  0.00    +0.178 C 
ATOM      5  O   UNL     1       6.798  -5.493  24.830  0.00  0.00    -0.342 OA
ATOM      6  C   UNL     1       7.843  -4.780  24.174  0.00  0.00    +0.267 C 
ENDROOT
BRANCH   1   7
ATOM      7  N   UNL     1       9.825  -5.953  25.210  0.00  0.00    -0.321 NA
ATOM      8  H   UNL     1       9.768  -6.489  24.347  0.00  0.00    +0.119 HD
ATOM      9  H   UNL     1      10.816  -5.761  25.370  0.00  0.00    +0.119 HD
ENDBRANCH   1   7
BRANCH   2  10
ATOM     10  O   UNL     1       8.468  -2.648  26.248  0.00  0.00    -0.387 OA
ATOM     11  H   UNL     1       8.354  -2.256  27.134  0.00  0.00    +0.210 HD
ENDBRANCH   2  10
BRANCH   3  12
ATOM     12  O   UNL     1       7.808  -5.986  27.605  0.00  0.00    -0.387 OA
ATOM     13  H   UNL     1       8.371  -5.837  28.385  0.00  0.00    +0.210 HD
ENDBRANCH   3  12
BRANCH   6  14
ATOM     14  O   UNL     1       8.144  -5.481  22.974  0.00  0.00    -0.366 OA
ATOM     15  H   UNL     1       9.018  -5.159  22.702  0.00  0.00    +0.213 HD
ENDBRANCH   6  14
BRANCH   4  16
ATOM     16  C   UNL     1       5.569  -3.555  25.767  0.00  0.00    +0.190 C 
BRANCH  16  17
ATOM     17  O   UNL     1       5.537  -2.751  26.945  0.00  0.00    -0.392 OA
ATOM     18  H   UNL     1       5.572  -1.821  26.651  0.00  0.00    +0.210 HD
ENDBRANCH  16  17
ENDBRANCH   4  16
TORSDOF 6
ENDMDL
MODEL 8
REMARK VINA RESULT:      -4.3      5.606      7.123
REMARK  Name = 
REMARK  6 active torsions:
REMARK  status: ('A' for Active; 'I' for Inactive)
REMARK    1  A    between atoms: N_1  and  C_2
REMARK    2  A    between atoms: C_4  and  O_5
REMARK    3  A    between atoms: C_7  and  C_9
REMARK    4  A    between atoms: C_9  and  O_10
REMARK    5  A    between atoms: C_11  and  O_13
REMARK    6  A    between atoms: C_14  and  O_16
REMARK                            x       y       z     vdW  Elec       q    Type
REMARK                         _______ _______ _______ _____ _____    ______ ____
ROOT
ATOM      1  C   UNL     1       8.795   0.426  22.403  0.00  0.00    +0.139 C 
ATOM      2  C   UNL     1      10.107   1.211  22.632  0.00  0.00    +0.167 C 
ATOM      3  C   UNL     1      10.169   1.907  24.003  0.00  0.00    +0.176 C 
ATOM      4  C   UNL     1       8.869   2.665  24.329  0.00  0.00    +0.178 C 
ATOM      5  O   UNL     1       7.718   1.818  24.130  0.00  0.00    -0.342 OA
ATOM      6  C   UNL     1       7.587   1.315  22.803  0.00  0.00    +0.267 C 
ENDROOT
BRANCH   1   7
ATOM      7  N   UNL     1       8.791  -0.885  23.101  0.00  0.00    -0.321 NA
ATOM      8  H   UNL     1       7.967  -1.423  22.842  0.00  0.00    +0.119 HD
ATOM      9  H   UNL     1       9.602  -1.424  22.791  0.00  0.00    +0.119 HD
ENDBRANCH   1   7
BRANCH   2  10
ATOM     10  O   UNL     1      10.234   2.196  21.596  0.00  0.00    -0.387 OA
ATOM     11  H   UNL     1       9.622   1.943  20.880  0.00  0.00    +0.210 HD
ENDBRANCH   2  10
BRANCH   3  12
ATOM     12  O   UNL     1      10.436   0.949  25.034  0.00  0.00    -0.387 OA
ATOM     13  H   UNL     1      11.231   1.241  25.513  0.00  0.00    +0.210 HD
ENDBRANCH   3  12
BRANCH   6  14
ATOM     14  O   UNL     1       6.379   0.566  22.752  0.00  0.00    -0.366 OA
ATOM     15  H   UNL     1       6.123   0.557  21.816  0.00  0.00    +0.213 HD
ENDBRANCH   6  14
BRANCH   4  16
ATOM     16  C   UNL     1       8.746   4.007  23.588  0.00  0.00    +0.190 C 
BRANCH  16  17
ATOM     17  O   UNL     1      10.040   4.564  23.364  0.00  0.00    -0.392 OA
ATOM     18  H   UNL     1      10.284   4.345  22.445  0.00  0.00    +0.210 HD
ENDBRANCH  16  17
ENDBRANCH   4  16
TORSDOF 6
ENDMDL
MODEL 9
REMARK VINA RESULT:      -4.3      4.238      5.212
REMARK  Name = 
REMARK  6 active torsions:
REMARK  status: ('A' for Active; 'I' for Inactive)
REMARK    1  A    between atoms: N_1  and  C_2
REMARK    2  A    between atoms: C_4  and  O_5
REMARK    3  A    between atoms: C_7  and  C_9
REMARK    4  A    between atoms: C_9  and  O_10
REMARK    5  A    between atoms: C_11  and  O_13
REMARK    6  A    between atoms: C_14  and  O_16
REMARK                            x       y       z     vdW  Elec       q    Type
REMARK                         _______ _______ _______ _____ _____    ______ ____
ROOT
ATOM      1  C   UNL     1       9.866  -1.343  24.040  0.00  0.00    +0.139 C 
ATOM      2  C   UNL     1       9.483  -0.217  25.027  0.00  0.00    +0.167 C 
ATOM      3  C   UNL     1       8.423   0.748  24.469  0.00  0.00    +0.176 C 
ATOM      4  C   UNL     1       8.747   1.198  23.032  0.00  0.00    +0.178 C 
ATOM      5  O   UNL     1       9.035   0.060  22.191  0.00  0.00    -0.342 OA
ATOM      6  C   UNL     1      10.131  -0.731  22.639  0.00  0.00    +0.267 C 
ENDROOT
BRANCH   1   7
ATOM      7  N   UNL     1       8.854  -2.430  24.003  0.00  0.00    -0.321 NA
ATOM      8  H   UNL     1       9.297  -3.320  23.786  0.00  0.00    +0.119 HD
ATOM      9  H   UNL     1       8.443  -2.527  24.933  0.00  0.00    +0.119 HD
ENDBRANCH   1   7
BRANCH   2  10
ATOM     10  O   UNL     1      10.669   0.523  25.355  0.00  0.00    -0.387 OA
ATOM     11  H   UNL     1      10.974   0.209  26.226  0.00  0.00    +0.210 HD
ENDBRANCH   2  10
BRANCH   3  12
ATOM     12  O   UNL     1       7.129   0.136  24.499  0.00  0.00    -0.387 OA
ATOM     13  H   UNL     1       7.186  -0.652  25.068  0.00  0.00    +0.210 HD
ENDBRANCH   3  12
BRANCH   6  14
ATOM     14  O   UNL     1      10.331  -1.759  21.676  0.00  0.00    -0.366 OA
ATOM     15  H   UNL     1       9.529  -2.303  21.712  0.00  0.00    +0.213 HD
ENDBRANCH   6  14
BRANCH   4  16
ATOM     16  C   UNL     1       9.845   2.272  22.963  0.00  0.00    +0.190 C 
BRANCH  16  17
ATOM     17  O   UNL     1      10.284   2.438  21.616  0.00  0.00    -0.392 OA
ATOM     18  H   UNL     1      10.671   1.586  21.340  0.00  0.00    +0.210 HD
ENDBRANCH  16  17
ENDBRANCH   4  16
TORSDOF 6
ENDMDL
