MODEL 1
REMARK VINA RESULT:      -7.7      0.000      0.000
REMARK  Name = 
REMARK  3 active torsions:
REMARK  status: ('A' for Active; 'I' for Inactive)
REMARK    1  A    between atoms: N_10  and  C_11
REMARK    2  A    between atoms: P_18  and  O_19
REMARK    3  A    between atoms: C_24  and  O_26
REMARK                            x       y       z     vdW  Elec       q    Type
REMARK                         _______ _______ _______ _____ _____    ______ ____
ROOT
ATOM      1  C   UNL     1       8.253  -0.622  23.657  0.00  0.00    +0.253 C 
ATOM      2  C   UNL     1       9.040  -1.448  24.696  0.00  0.00    +0.196 C 
ATOM      3  C   UNL     1       9.617  -2.561  23.827  0.00  0.00    +0.194 C 
ATOM      4  C   UNL     1       8.505  -2.796  22.817  0.00  0.00    +0.179 C 
ATOM      5  C   UNL     1       7.405  -3.729  23.348  0.00  0.00    +0.206 C 
ATOM      6  O   UNL     1       7.969  -4.923  23.871  0.00  0.00    -0.284 OA
ATOM      7  P   UNL     1       9.001  -4.742  25.085  0.00  0.00    +0.475 P 
ATOM      8  O   UNL     1       8.449  -4.345  26.413  0.00  0.00    -0.227 OA
ATOM      9  O   UNL     1      10.082  -3.714  24.496  0.00  0.00    -0.278 OA
ATOM     10  O   UNL     1       8.004  -1.484  22.507  0.00  0.00    -0.346 OA
ENDROOT
BRANCH   1  18
ATOM     11  N   UNL     1      10.495   4.971  23.200  0.00  0.00    -0.341 N 
ATOM     12  H   UNL     1      10.745   4.807  22.231  0.00  0.00    +0.144 HD
ATOM     13  H   UNL     1      10.161   5.893  23.450  0.00  0.00    +0.144 HD
ATOM     14  C   UNL     1       9.692   3.974  23.738  0.00  0.00    +0.147 A 
ATOM     15  C   UNL     1       9.629   2.665  23.228  0.00  0.00    +0.147 A 
ATOM     16  N   UNL     1      10.240   2.030  22.163  0.00  0.00    -0.231 NA
ATOM     17  C   UNL     1       9.787   0.791  22.199  0.00  0.00    +0.203 A 
ATOM     18  N   UNL     1       8.937   0.589  23.249  0.00  0.00    -0.286 N 
ATOM     19  C   UNL     1       8.790   1.789  23.894  0.00  0.00    +0.167 A 
ATOM     20  N   UNL     1       8.024   2.046  24.965  0.00  0.00    -0.216 NA
ATOM     21  C   UNL     1       8.152   3.328  25.354  0.00  0.00    +0.225 A 
ATOM     22  N   UNL     1       8.927   4.290  24.810  0.00  0.00    -0.219 NA
ENDBRANCH   1  18
BRANCH   2  23
ATOM     23  O   UNL     1       8.101  -1.914  25.663  0.00  0.00    -0.385 OA
ATOM     24  H   UNL     1       8.180  -2.886  25.777  0.00  0.00    +0.210 HD
ENDBRANCH   2  23
BRANCH   7  25
ATOM     25  O   UNL     1       9.806  -6.119  25.081  0.00  0.00    -0.302 OA
ATOM     26  H   UNL     1      10.683  -6.043  24.667  0.00  0.00    +0.222 HD
ENDBRANCH   7  25
TORSDOF 3
ENDMDL
MODEL 2
REMARK VINA RESULT:      -7.4      2.272      2.868
REMARK  Name = 
REMARK  3 active torsions:
REMARK  status: ('A' for Active; 'I' for Inactive)
REMARK    1  A    between atoms: N_10  and  C_11
REMARK    2  A    between atoms: P_18  and  O_19
REMARK    3  A    between atoms: C_24  and  O_26
REMARK                            x       y       z     vdW  Elec       q    Type
REMARK                         _______ _______ _______ _____ _____    ______ ____
ROOT
ATOM      1  C   UNL     1       7.355  -2.535  23.827  0.00  0.00    +0.253 C 
ATOM      2  C   UNL     1       7.461  -2.627  25.364  0.00  0.00    +0.196 C 
ATOM      3  C   UNL     1       8.201  -3.950  25.540  0.00  0.00    +0.194 C 
ATOM      4  C   UNL     1       7.642  -4.789  24.402  0.00  0.00    +0.179 C 
ATOM      5  C   UNL     1       6.300  -5.450  24.752  0.00  0.00    +0.206 C 
ATOM      6  O   UNL     1       6.389  -6.143  25.989  0.00  0.00    -0.284 OA
ATOM      7  P   UNL     1       6.778  -5.256  27.267  0.00  0.00    +0.475 P 
ATOM      8  O   UNL     1       5.751  -4.313  27.797  0.00  0.00    -0.227 OA
ATOM      9  O   UNL     1       8.144  -4.545  26.818  0.00  0.00    -0.278 OA
ATOM     10  O   UNL     1       7.529  -3.881  23.292  0.00  0.00    -0.346 OA
ENDROOT
BRANCH   1  18
ATOM     11  N   UNL     1      10.248   2.244  21.523  0.00  0.00    -0.341 N 
ATOM     12  H   UNL     1      10.967   1.641  21.140  0.00  0.00    +0.144 HD
ATOM     13  H   UNL     1       9.968   3.049  20.977  0.00  0.00    +0.144 HD
ATOM     14  C   UNL     1       9.148   1.548  22.008  0.00  0.00    +0.147 A 
ATOM     15  C   UNL     1       9.191   0.200  22.403  0.00  0.00    +0.147 A 
ATOM     16  N   UNL     1      10.193  -0.753  22.419  0.00  0.00    -0.231 NA
ATOM     17  C   UNL     1       9.624  -1.838  22.912  0.00  0.00    +0.203 A 
ATOM     18  N   UNL     1       8.316  -1.622  23.239  0.00  0.00    -0.286 N 
ATOM     19  C   UNL     1       8.009  -0.336  22.880  0.00  0.00    +0.167 A 
ATOM     20  N   UNL     1       6.823   0.280  23.002  0.00  0.00    -0.216 NA
ATOM     21  C   UNL     1       6.896   1.555  22.580  0.00  0.00    +0.225 A 
ATOM     22  N   UNL     1       7.971   2.212  22.097  0.00  0.00    -0.219 NA
ENDBRANCH   1  18
BRANCH   2  23
ATOM     23  O   UNL     1       6.132  -2.650  25.879  0.00  0.00    -0.385 OA
ATOM     24  H   UNL     1       5.932  -3.526  26.274  0.00  0.00    +0.210 HD
ENDBRANCH   2  23
BRANCH   7  25
ATOM     25  O   UNL     1       7.291  -6.343  28.316  0.00  0.00    -0.302 OA
ATOM     26  H   UNL     1       7.574  -7.172  27.894  0.00  0.00    +0.222 HD
ENDBRANCH   7  25
TORSDOF 3
ENDMDL
MODEL 3
REMARK VINA RESULT:      -7.1      4.366      7.159
REMARK  Name = 
REMARK  3 active torsions:
REMARK  status: ('A' for Active; 'I' for Inactive)
REMARK    1  A    between atoms: N_10  and  C_11
REMARK    2  A    between atoms: P_18  and  O_19
REMARK    3  A    between atoms: C_24  and  O_26
REMARK                            x       y       z     vdW  Elec       q    Type
REMARK                         _______ _______ _______ _____ _____    ______ ____
ROOT
ATOM      1  C   UNL     1       7.358  -2.329  23.951  0.00  0.00    +0.253 C 
ATOM      2  C   UNL     1       7.167  -0.937  23.313  0.00  0.00    +0.196 C 
ATOM      3  C   UNL     1       8.284  -0.920  22.275  0.00  0.00    +0.194 C 
ATOM      4  C   UNL     1       9.393  -1.688  22.978  0.00  0.00    +0.179 C 
ATOM      5  C   UNL     1      10.215  -0.809  23.933  0.00  0.00    +0.206 C 
ATOM      6  O   UNL     1      10.659   0.368  23.274  0.00  0.00    -0.284 OA
ATOM      7  P   UNL     1       9.512   1.324  22.690  0.00  0.00    +0.475 P 
ATOM      8  O   UNL     1       8.693   2.102  23.664  0.00  0.00    -0.227 OA
ATOM      9  O   UNL     1       8.654   0.340  21.758  0.00  0.00    -0.278 OA
ATOM     10  O   UNL     1       8.723  -2.760  23.665  0.00  0.00    -0.346 OA
ENDROOT
BRANCH   1  18
ATOM     11  N   UNL     1       3.537  -6.974  23.371  0.00  0.00    -0.341 N 
ATOM     12  H   UNL     1       3.532  -6.862  22.363  0.00  0.00    +0.144 HD
ATOM     13  H   UNL     1       3.502  -7.915  23.740  0.00  0.00    +0.144 HD
ATOM     14  C   UNL     1       4.511  -6.213  24.004  0.00  0.00    +0.147 A 
ATOM     15  C   UNL     1       5.087  -5.060  23.442  0.00  0.00    +0.147 A 
ATOM     16  N   UNL     1       4.918  -4.406  22.236  0.00  0.00    -0.231 NA
ATOM     17  C   UNL     1       5.735  -3.371  22.292  0.00  0.00    +0.203 A 
ATOM     18  N   UNL     1       6.402  -3.312  23.483  0.00  0.00    -0.286 N 
ATOM     19  C   UNL     1       6.032  -4.410  24.214  0.00  0.00    +0.167 A 
ATOM     20  N   UNL     1       6.468  -4.755  25.435  0.00  0.00    -0.216 NA
ATOM     21  C   UNL     1       5.862  -5.878  25.865  0.00  0.00    +0.225 A 
ATOM     22  N   UNL     1       4.927  -6.614  25.229  0.00  0.00    -0.219 NA
ENDBRANCH   1  18
BRANCH   2  23
ATOM     23  O   UNL     1       7.340   0.030  24.347  0.00  0.00    -0.385 OA
ATOM     24  H   UNL     1       6.489   0.197  24.807  0.00  0.00    +0.210 HD
ENDBRANCH   2  23
BRANCH   7  25
ATOM     25  O   UNL     1      10.293   2.209  21.617  0.00  0.00    -0.302 OA
ATOM     26  H   UNL     1       9.760   2.948  21.275  0.00  0.00    +0.222 HD
ENDBRANCH   7  25
TORSDOF 3
ENDMDL
MODEL 4
REMARK VINA RESULT:      -7.0      4.145      6.866
REMARK  Name = 
REMARK  3 active torsions:
REMARK  status: ('A' for Active; 'I' for Inactive)
REMARK    1  A    between atoms: N_10  and  C_11
REMARK    2  A    between atoms: P_18  and  O_19
REMARK    3  A    between atoms: C_24  and  O_26
REMARK                            x       y       z     vdW  Elec       q    Type
REMARK                         _______ _______ _______ _____ _____    ______ ____
ROOT
ATOM      1  C   UNL     1       7.716  -0.320  24.658  0.00  0.00    +0.253 C 
ATOM      2  C   UNL     1       7.474   0.323  23.276  0.00  0.00    +0.196 C 
ATOM      3  C   UNL     1       8.504   1.448  23.279  0.00  0.00    +0.194 C 
ATOM      4  C   UNL     1       8.505   1.886  24.735  0.00  0.00    +0.179 C 
ATOM      5  C   UNL     1       7.373   2.872  25.062  0.00  0.00    +0.206 C 
ATOM      6  O   UNL     1       7.363   3.950  24.137  0.00  0.00    -0.284 OA
ATOM      7  P   UNL     1       7.157   3.554  22.596  0.00  0.00    +0.475 P 
ATOM      8  O   UNL     1       5.804   3.094  22.171  0.00  0.00    -0.227 OA
ATOM      9  O   UNL     1       8.321   2.481  22.335  0.00  0.00    -0.278 OA
ATOM     10  O   UNL     1       8.399   0.665  25.488  0.00  0.00    -0.346 OA
ENDROOT
BRANCH   1  18
ATOM     11  N   UNL     1       9.864  -5.926  25.347  0.00  0.00    -0.341 N 
ATOM     12  H   UNL     1      10.742  -5.658  24.917  0.00  0.00    +0.144 HD
ATOM     13  H   UNL     1       9.899  -6.584  26.115  0.00  0.00    +0.144 HD
ATOM     14  C   UNL     1       9.041  -4.846  25.637  0.00  0.00    +0.147 A 
ATOM     15  C   UNL     1       9.132  -3.601  24.990  0.00  0.00    +0.147 A 
ATOM     16  N   UNL     1       9.964  -3.101  24.007  0.00  0.00    -0.231 NA
ATOM     17  C   UNL     1       9.551  -1.863  23.807  0.00  0.00    +0.203 A 
ATOM     18  N   UNL     1       8.478  -1.552  24.592  0.00  0.00    -0.286 N 
ATOM     19  C   UNL     1       8.222  -2.638  25.387  0.00  0.00    +0.167 A 
ATOM     20  N   UNL     1       7.269  -2.751  26.324  0.00  0.00    -0.216 NA
ATOM     21  C   UNL     1       7.285  -3.974  26.885  0.00  0.00    +0.225 A 
ATOM     22  N   UNL     1       8.103  -5.008  26.601  0.00  0.00    -0.219 NA
ENDBRANCH   1  18
BRANCH   2  23
ATOM     23  O   UNL     1       6.127   0.790  23.257  0.00  0.00    -0.385 OA
ATOM     24  H   UNL     1       5.884   1.101  22.358  0.00  0.00    +0.210 HD
ENDBRANCH   2  23
BRANCH   7  25
ATOM     25  O   UNL     1       7.701   4.837  21.820  0.00  0.00    -0.302 OA
ATOM     26  H   UNL     1       8.232   4.609  21.037  0.00  0.00    +0.222 HD
ENDBRANCH   7  25
TORSDOF 3
ENDMDL
MODEL 5
REMARK VINA RESULT:      -7.0      2.237      3.251
REMARK  Name = 
REMARK  3 active torsions:
REMARK  status: ('A' for Active; 'I' for Inactive)
REMARK    1  A    between atoms: N_10  and  C_11
REMARK    2  A    between atoms: P_18  and  O_19
REMARK    3  A    between atoms: C_24  and  O_26
REMARK                            x       y       z     vdW  Elec       q    Type
REMARK                         _______ _______ _______ _____ _____    ______ ____
ROOT
ATOM      1  C   UNL     1       7.356  -1.716  23.904  0.00  0.00    +0.253 C 
ATOM      2  C   UNL     1       7.603  -2.655  22.704  0.00  0.00    +0.196 C 
ATOM      3  C   UNL     1       6.178  -2.949  22.248  0.00  0.00    +0.194 C 
ATOM      4  C   UNL     1       5.416  -2.988  23.564  0.00  0.00    +0.179 C 
ATOM      5  C   UNL     1       5.512  -4.350  24.269  0.00  0.00    +0.206 C 
ATOM      6  O   UNL     1       5.173  -5.401  23.376  0.00  0.00    -0.284 OA
ATOM      7  P   UNL     1       6.084  -5.532  22.063  0.00  0.00    +0.475 P 
ATOM      8  O   UNL     1       7.477  -6.038  22.230  0.00  0.00    -0.227 OA
ATOM      9  O   UNL     1       5.996  -4.069  21.410  0.00  0.00    -0.278 OA
ATOM     10  O   UNL     1       5.983  -1.926  24.352  0.00  0.00    -0.346 OA
ENDROOT
BRANCH   1  18
ATOM     11  N   UNL     1       9.705   3.784  23.039  0.00  0.00    -0.341 N 
ATOM     12  H   UNL     1       8.776   4.187  22.984  0.00  0.00    +0.144 HD
ATOM     13  H   UNL     1      10.428   4.328  23.493  0.00  0.00    +0.144 HD
ATOM     14  C   UNL     1       9.707   2.466  23.475  0.00  0.00    +0.147 A 
ATOM     15  C   UNL     1       8.596   1.610  23.376  0.00  0.00    +0.147 A 
ATOM     16  N   UNL     1       7.309   1.777  22.901  0.00  0.00    -0.231 NA
ATOM     17  C   UNL     1       6.729   0.603  23.065  0.00  0.00    +0.203 A 
ATOM     18  N   UNL     1       7.587  -0.318  23.597  0.00  0.00    -0.286 N 
ATOM     19  C   UNL     1       8.773   0.320  23.843  0.00  0.00    +0.167 A 
ATOM     20  N   UNL     1       9.881  -0.207  24.387  0.00  0.00    -0.216 NA
ATOM     21  C   UNL     1      10.871   0.703  24.445  0.00  0.00    +0.225 A 
ATOM     22  N   UNL     1      10.847   1.987  24.029  0.00  0.00    -0.219 NA
ENDBRANCH   1  18
BRANCH   2  23
ATOM     23  O   UNL     1       8.287  -3.803  23.200  0.00  0.00    -0.385 OA
ATOM     24  H   UNL     1       9.259  -3.667  23.162  0.00  0.00    +0.210 HD
ENDBRANCH   2  23
BRANCH   7  25
ATOM     25  O   UNL     1       5.173  -6.396  21.078  0.00  0.00    -0.302 OA
ATOM     26  H   UNL     1       5.198  -6.075  20.160  0.00  0.00    +0.222 HD
ENDBRANCH   7  25
TORSDOF 3
ENDMDL
MODEL 6
REMARK VINA RESULT:      -7.0      4.322      6.926
REMARK  Name = 
REMARK  3 active torsions:
REMARK  status: ('A' for Active; 'I' for Inactive)
REMARK    1  A    between atoms: N_10  and  C_11
REMARK    2  A    between atoms: P_18  and  O_19
REMARK    3  A    between atoms: C_24  and  O_26
REMARK                            x       y       z     vdW  Elec       q    Type
REMARK                         _______ _______ _______ _____ _____    ______ ____
ROOT
ATOM      1  C   UNL     1       8.598  -2.470  23.558  0.00  0.00    +0.253 C 
ATOM      2  C   UNL     1       8.300  -1.102  24.206  0.00  0.00    +0.196 C 
ATOM      3  C   UNL     1       7.827  -0.291  23.004  0.00  0.00    +0.194 C 
ATOM      4  C   UNL     1       8.698  -0.834  21.882  0.00  0.00    +0.179 C 
ATOM      5  C   UNL     1      10.084  -0.174  21.830  0.00  0.00    +0.206 C 
ATOM      6  O   UNL     1       9.967   1.242  21.832  0.00  0.00    -0.284 OA
ATOM      7  P   UNL     1       9.232   1.885  23.105  0.00  0.00    +0.475 P 
ATOM      8  O   UNL     1       9.962   1.879  24.405  0.00  0.00    -0.227 OA
ATOM      9  O   UNL     1       7.826   1.113  23.144  0.00  0.00    -0.278 OA
ATOM     10  O   UNL     1       8.777  -2.250  22.127  0.00  0.00    -0.346 OA
ENDROOT
BRANCH   1  18
ATOM     11  N   UNL     1       4.942  -6.680  25.887  0.00  0.00    -0.341 N 
ATOM     12  H   UNL     1       4.577  -6.893  24.966  0.00  0.00    +0.144 HD
ATOM     13  H   UNL     1       5.065  -7.450  26.533  0.00  0.00    +0.144 HD
ATOM     14  C   UNL     1       6.058  -5.854  25.860  0.00  0.00    +0.147 A 
ATOM     15  C   UNL     1       6.366  -4.997  24.788  0.00  0.00    +0.147 A 
ATOM     16  N   UNL     1       5.763  -4.744  23.571  0.00  0.00    -0.231 NA
ATOM     17  C   UNL     1       6.519  -3.827  22.998  0.00  0.00    +0.203 A 
ATOM     18  N   UNL     1       7.563  -3.457  23.798  0.00  0.00    -0.286 N 
ATOM     19  C   UNL     1       7.506  -4.227  24.929  0.00  0.00    +0.167 A 
ATOM     20  N   UNL     1       8.356  -4.208  25.967  0.00  0.00    -0.216 NA
ATOM     21  C   UNL     1       7.972  -5.075  26.922  0.00  0.00    +0.225 A 
ATOM     22  N   UNL     1       6.891  -5.883  26.927  0.00  0.00    -0.219 NA
ENDBRANCH   1  18
BRANCH   2  23
ATOM     23  O   UNL     1       9.522  -0.625  24.766  0.00  0.00    -0.385 OA
ATOM     24  H   UNL     1      10.191  -0.487  24.061  0.00  0.00    +0.210 HD
ENDBRANCH   2  23
BRANCH   7  25
ATOM     25  O   UNL     1       8.809   3.331  22.582  0.00  0.00    -0.302 OA
ATOM     26  H   UNL     1       8.483   3.322  21.666  0.00  0.00    +0.222 HD
ENDBRANCH   7  25
TORSDOF 3
ENDMDL
MODEL 7
REMARK VINA RESULT:      -6.8      2.335      3.706
REMARK  Name = 
REMARK  3 active torsions:
REMARK  status: ('A' for Active; 'I' for Inactive)
REMARK    1  A    between atoms: N_10  and  C_11
REMARK    2  A    between atoms: P_18  and  O_19
REMARK    3  A    between atoms: C_24  and  O_26
REMARK                            x       y       z     vdW  Elec       q    Type
REMARK                         _______ _______ _______ _____ _____    ______ ____
ROOT
ATOM      1  C   UNL     1       7.064  -2.329  22.782  0.00  0.00    +0.253 C 
ATOM      2  C   UNL     1       5.767  -2.972  23.317  0.00  0.00    +0.196 C 
ATOM      3  C   UNL     1       6.318  -4.140  24.129  0.00  0.00    +0.194 C 
ATOM      4  C   UNL     1       7.525  -4.567  23.309  0.00  0.00    +0.179 C 
ATOM      5  C   UNL     1       7.155  -5.501  22.146  0.00  0.00    +0.206 C 
ATOM      6  O   UNL     1       6.360  -6.584  22.606  0.00  0.00    -0.284 OA
ATOM      7  P   UNL     1       4.969  -6.191  23.300  0.00  0.00    +0.475 P 
ATOM      8  O   UNL     1       3.876  -5.677  22.425  0.00  0.00    -0.227 OA
ATOM      9  O   UNL     1       5.412  -5.171  24.456  0.00  0.00    -0.278 OA
ATOM     10  O   UNL     1       8.117  -3.337  22.853  0.00  0.00    -0.346 OA
ENDROOT
BRANCH   1  18
ATOM     11  N   UNL     1       9.370   2.983  24.506  0.00  0.00    -0.341 N 
ATOM     12  H   UNL     1       9.173   2.769  25.478  0.00  0.00    +0.144 HD
ATOM     13  H   UNL     1      10.222   3.488  24.300  0.00  0.00    +0.144 HD
ATOM     14  C   UNL     1       9.204   1.895  23.659  0.00  0.00    +0.147 A 
ATOM     15  C   UNL     1       8.394   0.787  23.964  0.00  0.00    +0.147 A 
ATOM     16  N   UNL     1       7.622   0.448  25.059  0.00  0.00    -0.231 NA
ATOM     17  C   UNL     1       7.086  -0.718  24.751  0.00  0.00    +0.203 A 
ATOM     18  N   UNL     1       7.452  -1.133  23.502  0.00  0.00    -0.286 N 
ATOM     19  C   UNL     1       8.324  -0.202  23.000  0.00  0.00    +0.167 A 
ATOM     20  N   UNL     1       8.946  -0.231  21.811  0.00  0.00    -0.216 NA
ATOM     21  C   UNL     1       9.702   0.868  21.635  0.00  0.00    +0.225 A 
ATOM     22  N   UNL     1       9.865   1.910  22.477  0.00  0.00    -0.219 NA
ENDBRANCH   1  18
BRANCH   2  23
ATOM     23  O   UNL     1       5.000  -3.381  22.187  0.00  0.00    -0.385 OA
ATOM     24  H   UNL     1       5.589  -3.588  21.429  0.00  0.00    +0.210 HD
ENDBRANCH   2  23
BRANCH   7  25
ATOM     25  O   UNL     1       4.599  -7.502  24.130  0.00  0.00    -0.302 OA
ATOM     26  H   UNL     1       4.363  -8.256  23.562  0.00  0.00    +0.222 HD
ENDBRANCH   7  25
TORSDOF 3
ENDMDL
MODEL 8
REMARK VINA RESULT:      -6.7      4.165      6.940
REMARK  Name = 
REMARK  3 active torsions:
REMARK  status: ('A' for Active; 'I' for Inactive)
REMARK    1  A    between atoms: N_10  and  C_11
REMARK    2  A    between atoms: P_18  and  O_19
REMARK    3  A    between atoms: C_24  and  O_26
REMARK                            x       y       z     vdW  Elec       q    Type
REMARK                         _______ _______ _______ _____ _____    ______ ____
ROOT
ATOM      1  C   UNL     1       8.984  -0.195  24.020  0.00  0.00    +0.253 C 
ATOM      2  C   UNL     1       8.119   1.077  24.142  0.00  0.00    +0.196 C 
ATOM      3  C   UNL     1       8.554   1.861  22.909  0.00  0.00    +0.194 C 
ATOM      4  C   UNL     1      10.031   1.516  22.807  0.00  0.00    +0.179 C 
ATOM      5  C   UNL     1      10.911   2.387  23.718  0.00  0.00    +0.206 C 
ATOM      6  O   UNL     1      10.628   3.765  23.521  0.00  0.00    -0.284 OA
ATOM      7  P   UNL     1       9.119   4.222  23.816  0.00  0.00    +0.475 P 
ATOM      8  O   UNL     1       8.672   4.268  25.238  0.00  0.00    -0.227 OA
ATOM      9  O   UNL     1       8.251   3.239  22.891  0.00  0.00    -0.278 OA
ATOM     10  O   UNL     1      10.109   0.120  23.147  0.00  0.00    -0.346 OA
ENDROOT
BRANCH   1  18
ATOM     11  N   UNL     1       6.814  -5.716  22.873  0.00  0.00    -0.341 N 
ATOM     12  H   UNL     1       6.354  -5.377  22.035  0.00  0.00    +0.144 HD
ATOM     13  H   UNL     1       7.214  -6.646  22.845  0.00  0.00    +0.144 HD
ATOM     14  C   UNL     1       7.695  -4.798  23.427  0.00  0.00    +0.147 A 
ATOM     15  C   UNL     1       7.617  -3.411  23.205  0.00  0.00    +0.147 A 
ATOM     16  N   UNL     1       6.773  -2.616  22.452  0.00  0.00    -0.231 NA
ATOM     17  C   UNL     1       7.197  -1.382  22.653  0.00  0.00    +0.203 A 
ATOM     18  N   UNL     1       8.253  -1.342  23.519  0.00  0.00    -0.286 N 
ATOM     19  C   UNL     1       8.563  -2.635  23.849  0.00  0.00    +0.167 A 
ATOM     20  N   UNL     1       9.552  -3.052  24.655  0.00  0.00    -0.216 NA
ATOM     21  C   UNL     1       9.539  -4.391  24.781  0.00  0.00    +0.225 A 
ATOM     22  N   UNL     1       8.684  -5.272  24.222  0.00  0.00    -0.219 NA
ENDBRANCH   1  18
BRANCH   2  23
ATOM     23  O   UNL     1       8.471   1.712  25.369  0.00  0.00    -0.385 OA
ATOM     24  H   UNL     1       7.664   1.980  25.861  0.00  0.00    +0.210 HD
ENDBRANCH   2  23
BRANCH   7  25
ATOM     25  O   UNL     1       9.005   5.609  23.035  0.00  0.00    -0.302 OA
ATOM     26  H   UNL     1       8.630   5.511  22.143  0.00  0.00    +0.222 HD
ENDBRANCH   7  25
TORSDOF 3
ENDMDL
MODEL 9
REMARK VINA RESULT:      -6.7      4.250      7.093
REMARK  Name = 
REMARK  3 active torsions:
REMARK  status: ('A' for Active; 'I' for Inactive)
REMARK    1  A    between atoms: N_10  and  C_11
REMARK    2  A    between atoms: P_18  and  O_19
REMARK    3  A    between atoms: C_24  and  O_26
REMARK                            x       y       z     vdW  Elec       q    Type
REMARK                         _______ _______ _______ _____ _____    ______ ____
ROOT
ATOM      1  C   UNL     1       7.059  -1.686  24.107  0.00  0.00    +0.253 C 
ATOM      2  C   UNL     1       7.269  -0.928  22.779  0.00  0.00    +0.196 C 
ATOM      3  C   UNL     1       8.787  -0.790  22.743  0.00  0.00    +0.194 C 
ATOM      4  C   UNL     1       9.132  -0.596  24.211  0.00  0.00    +0.179 C 
ATOM      5  C   UNL     1       8.973   0.861  24.674  0.00  0.00    +0.206 C 
ATOM      6  O   UNL     1       9.663   1.743  23.799  0.00  0.00    -0.284 OA
ATOM      7  P   UNL     1       9.192   1.726  22.266  0.00  0.00    +0.475 P 
ATOM      8  O   UNL     1       7.869   2.331  21.938  0.00  0.00    -0.227 OA
ATOM      9  O   UNL     1       9.317   0.178  21.863  0.00  0.00    -0.278 OA
ATOM     10  O   UNL     1       8.256  -1.491  24.919  0.00  0.00    -0.346 OA
ENDROOT
BRANCH   1  18
ATOM     11  N   UNL     1       4.544  -7.165  23.697  0.00  0.00    -0.341 N 
ATOM     12  H   UNL     1       5.460  -7.601  23.705  0.00  0.00    +0.144 HD
ATOM     13  H   UNL     1       3.794  -7.640  24.182  0.00  0.00    +0.144 HD
ATOM     14  C   UNL     1       4.577  -5.812  24.009  0.00  0.00    +0.147 A 
ATOM     15  C   UNL     1       5.719  -5.005  23.860  0.00  0.00    +0.147 A 
ATOM     16  N   UNL     1       7.010  -5.257  23.435  0.00  0.00    -0.231 NA
ATOM     17  C   UNL     1       7.626  -4.092  23.505  0.00  0.00    +0.203 A 
ATOM     18  N   UNL     1       6.789  -3.098  23.926  0.00  0.00    -0.286 N 
ATOM     19  C   UNL     1       5.575  -3.673  24.199  0.00  0.00    +0.167 A 
ATOM     20  N   UNL     1       4.474  -3.061  24.663  0.00  0.00    -0.216 NA
ATOM     21  C   UNL     1       3.453  -3.930  24.780  0.00  0.00    +0.225 A 
ATOM     22  N   UNL     1       3.443  -5.247  24.486  0.00  0.00    -0.219 NA
ENDBRANCH   1  18
BRANCH   2  23
ATOM     23  O   UNL     1       6.590   0.321  22.894  0.00  0.00    -0.385 OA
ATOM     24  H   UNL     1       6.996   0.869  23.600  0.00  0.00    +0.210 HD
ENDBRANCH   2  23
BRANCH   7  25
ATOM     25  O   UNL     1      10.432   2.375  21.502  0.00  0.00    -0.302 OA
ATOM     26  H   UNL     1      10.170   2.868  20.705  0.00  0.00    +0.222 HD
ENDBRANCH   7  25
TORSDOF 3
ENDMDL
