MODEL 1
REMARK VINA RESULT:      -7.4      0.000      0.000
REMARK  Name = 
REMARK  7 active torsions:
REMARK  status: ('A' for Active; 'I' for Inactive)
REMARK    1  A    between atoms: C_1  and  C_2
REMARK    2  A    between atoms: C_2  and  C_3
REMARK    3  A    between atoms: C_2  and  C_4
REMARK    4  A    between atoms: C_4  and  C_5
REMARK    5  A    between atoms: C_5  and  C_6
REMARK    6  A    between atoms: C_6  and  C_8
REMARK    7  A    between atoms: C_8  and  C_9
REMARK                            x       y       z     vdW  Elec       q    Type
REMARK                         _______ _______ _______ _____ _____    ______ ____
ROOT
ATOM      1  C   UNL     1       6.692  -0.406  23.941  0.00  0.00    +0.121 C 
ATOM      2  C   UNL     1       6.564  -1.812  23.467  0.00  0.00    -0.014 A 
ATOM      3  C   UNL     1       7.745  -2.201  22.845  0.00  0.00    +0.042 A 
ATOM      4  C   UNL     1       7.943  -3.515  22.459  0.00  0.00    +0.013 A 
ATOM      5  C   UNL     1       6.908  -4.433  22.708  0.00  0.00    +0.001 A 
ATOM      6  C   UNL     1       5.699  -4.023  23.297  0.00  0.00    +0.000 A 
ATOM      7  C   UNL     1       8.634  -1.013  22.749  0.00  0.00    +0.253 C 
ATOM      8  O   UNL     1       9.716  -1.049  22.198  0.00  0.00    -0.270 OA
ATOM      9  C   UNL     1       5.515  -2.696  23.680  0.00  0.00    +0.006 A 
ATOM     10  N   UNL     1       7.933   0.054  23.328  0.00  0.00    -0.244 N 
ATOM     11  C   UNL     1       8.337   1.416  23.379  0.00  0.00    +0.131 A 
ATOM     12  C   UNL     1       7.370   2.380  23.665  0.00  0.00    +0.045 A 
ATOM     13  C   UNL     1       7.731   3.706  23.822  0.00  0.00    +0.015 A 
ATOM     14  C   UNL     1       9.065   4.053  23.683  0.00  0.00    +0.019 A 
ATOM     15  C   UNL     1       9.458   5.384  23.872  0.00  0.00    +0.014 A 
ATOM     16  C   UNL     1      10.793   5.709  23.735  0.00  0.00    +0.041 A 
ATOM     17  C   UNL     1      11.654   4.680  23.406  0.00  0.00    +0.132 A 
ATOM     18  N   UNL     1      11.293   3.390  23.222  0.00  0.00    -0.216 NA
ATOM     19 CL   UNL     1      13.329   5.001  23.205  0.00  0.00    -0.062 Cl
ATOM     20  C   UNL     1      10.009   3.056  23.359  0.00  0.00    +0.163 A 
ATOM     21  N   UNL     1       9.627   1.772  23.210  0.00  0.00    -0.212 NA
ENDROOT
BRANCH   1  22
ATOM     22  C   UNL     1       6.713  -0.327  25.476  0.00  0.00    +0.102 C 
BRANCH  22  23
ATOM     23  C   UNL     1       7.900  -1.020  26.134  0.00  0.00    +0.135 C 
ATOM     24  O   UNL     1       8.995  -0.468  26.245  0.00  0.00    -0.297 OA
BRANCH  23  25
ATOM     25  C   UNL     1       7.723  -2.457  26.574  0.00  0.00    +0.074 C 
BRANCH  25  26
ATOM     26  C   UNL     1       8.881  -3.336  26.102  0.00  0.00    +0.010 C 
BRANCH  26  28
ATOM     27  C   UNL     1       7.209  -5.239  26.398  0.00  0.00    +0.007 C 
ATOM     28  C   UNL     1       8.686  -4.848  26.339  0.00  0.00    -0.017 C 
ATOM     29  C   UNL     1       9.388  -5.642  25.235  0.00  0.00    +0.007 C 
ENDBRANCH  26  28
ENDBRANCH  25  26
ENDBRANCH  23  25
ENDBRANCH  22  23
ENDBRANCH   1  22
TORSDOF 5
ENDMDL
MODEL 2
REMARK VINA RESULT:      -7.4      2.070      3.782
REMARK  Name = 
REMARK  7 active torsions:
REMARK  status: ('A' for Active; 'I' for Inactive)
REMARK    1  A    between atoms: C_1  and  C_2
REMARK    2  A    between atoms: C_2  and  C_3
REMARK    3  A    between atoms: C_2  and  C_4
REMARK    4  A    between atoms: C_4  and  C_5
REMARK    5  A    between atoms: C_5  and  C_6
REMARK    6  A    between atoms: C_6  and  C_8
REMARK    7  A    between atoms: C_8  and  C_9
REMARK                            x       y       z     vdW  Elec       q    Type
REMARK                         _______ _______ _______ _____ _____    ______ ____
ROOT
ATOM      1  C   UNL     1       9.514  -2.048  24.352  0.00  0.00    +0.121 C 
ATOM      2  C   UNL     1       9.077  -3.265  25.092  0.00  0.00    -0.014 A 
ATOM      3  C   UNL     1       8.111  -2.916  26.029  0.00  0.00    +0.042 A 
ATOM      4  C   UNL     1       7.425  -3.888  26.735  0.00  0.00    +0.013 A 
ATOM      5  C   UNL     1       7.747  -5.232  26.480  0.00  0.00    +0.001 A 
ATOM      6  C   UNL     1       8.757  -5.575  25.563  0.00  0.00    +0.000 A 
ATOM      7  C   UNL     1       7.993  -1.434  26.046  0.00  0.00    +0.253 C 
ATOM      8  O   UNL     1       7.258  -0.845  26.815  0.00  0.00    -0.270 OA
ATOM      9  C   UNL     1       9.438  -4.584  24.860  0.00  0.00    +0.006 A 
ATOM     10  N   UNL     1       8.911  -0.951  25.102  0.00  0.00    -0.244 N 
ATOM     11  C   UNL     1       9.230   0.408  24.835  0.00  0.00    +0.131 A 
ATOM     12  C   UNL     1      10.404   0.683  24.134  0.00  0.00    +0.045 A 
ATOM     13  C   UNL     1      10.708   1.981  23.764  0.00  0.00    +0.015 A 
ATOM     14  C   UNL     1       9.829   2.995  24.110  0.00  0.00    +0.019 A 
ATOM     15  C   UNL     1      10.100   4.311  23.716  0.00  0.00    +0.014 A 
ATOM     16  C   UNL     1       9.209   5.306  24.065  0.00  0.00    +0.041 A 
ATOM     17  C   UNL     1       8.102   4.922  24.798  0.00  0.00    +0.132 A 
ATOM     18  N   UNL     1       7.823   3.657  25.185  0.00  0.00    -0.216 NA
ATOM     19 CL   UNL     1       6.951   6.100  25.284  0.00  0.00    -0.062 Cl
ATOM     20  C   UNL     1       8.669   2.681  24.849  0.00  0.00    +0.163 A 
ATOM     21  N   UNL     1       8.400   1.407  25.197  0.00  0.00    -0.212 NA
ENDROOT
BRANCH   1  22
ATOM     22  C   UNL     1       9.068  -2.089  22.883  0.00  0.00    +0.102 C 
BRANCH  22  23
ATOM     23  C   UNL     1       7.565  -2.232  22.676  0.00  0.00    +0.135 C 
ATOM     24  O   UNL     1       6.784  -1.313  22.926  0.00  0.00    -0.297 OA
BRANCH  23  25
ATOM     25  C   UNL     1       7.038  -3.580  22.234  0.00  0.00    +0.074 C 
BRANCH  25  26
ATOM     26  C   UNL     1       5.964  -4.104  23.189  0.00  0.00    +0.010 C 
BRANCH  26  28
ATOM     27  C   UNL     1       6.565  -6.392  22.235  0.00  0.00    +0.007 C 
ATOM     28  C   UNL     1       5.481  -5.539  22.895  0.00  0.00    -0.017 C 
ATOM     29  C   UNL     1       5.015  -6.206  24.192  0.00  0.00    +0.007 C 
ENDBRANCH  26  28
ENDBRANCH  25  26
ENDBRANCH  23  25
ENDBRANCH  22  23
ENDBRANCH   1  22
TORSDOF 5
ENDMDL
MODEL 3
REMARK VINA RESULT:      -7.0      3.733      7.933
REMARK  Name = 
REMARK  7 active torsions:
REMARK  status: ('A' for Active; 'I' for Inactive)
REMARK    1  A    between atoms: C_1  and  C_2
REMARK    2  A    between atoms: C_2  and  C_3
REMARK    3  A    between atoms: C_2  and  C_4
REMARK    4  A    between atoms: C_4  and  C_5
REMARK    5  A    between atoms: C_5  and  C_6
REMARK    6  A    between atoms: C_6  and  C_8
REMARK    7  A    between atoms: C_8  and  C_9
REMARK                            x       y       z     vdW  Elec       q    Type
REMARK                         _______ _______ _______ _____ _____    ______ ____
ROOT
ATOM      1  C   UNL     1       8.594  -0.649  25.126  0.00  0.00    +0.121 C 
ATOM      2  C   UNL     1       9.278   0.178  24.093  0.00  0.00    -0.014 A 
ATOM      3  C   UNL     1       8.958  -0.302  22.828  0.00  0.00    +0.042 A 
ATOM      4  C   UNL     1       9.335   0.390  21.691  0.00  0.00    +0.013 A 
ATOM      5  C   UNL     1      10.059   1.583  21.861  0.00  0.00    +0.001 A 
ATOM      6  C   UNL     1      10.417   2.038  23.142  0.00  0.00    +0.000 A 
ATOM      7  C   UNL     1       8.179  -1.558  22.990  0.00  0.00    +0.253 C 
ATOM      8  O   UNL     1       7.812  -2.227  22.044  0.00  0.00    -0.270 OA
ATOM      9  C   UNL     1      10.030   1.329  24.277  0.00  0.00    +0.006 A 
ATOM     10  N   UNL     1       8.065  -1.780  24.370  0.00  0.00    -0.244 N 
ATOM     11  C   UNL     1       7.490  -2.910  25.012  0.00  0.00    +0.131 A 
ATOM     12  C   UNL     1       7.785  -3.124  26.358  0.00  0.00    +0.045 A 
ATOM     13  C   UNL     1       7.173  -4.153  27.051  0.00  0.00    +0.015 A 
ATOM     14  C   UNL     1       6.273  -4.965  26.380  0.00  0.00    +0.019 A 
ATOM     15  C   UNL     1       5.616  -5.990  27.072  0.00  0.00    +0.014 A 
ATOM     16  C   UNL     1       4.718  -6.785  26.387  0.00  0.00    +0.041 A 
ATOM     17  C   UNL     1       4.539  -6.508  25.044  0.00  0.00    +0.132 A 
ATOM     18  N   UNL     1       5.163  -5.521  24.362  0.00  0.00    -0.216 NA
ATOM     19 CL   UNL     1       3.450  -7.457  24.116  0.00  0.00    -0.062 Cl
ATOM     20  C   UNL     1       6.027  -4.738  25.010  0.00  0.00    +0.163 A 
ATOM     21  N   UNL     1       6.640  -3.729  24.360  0.00  0.00    -0.212 NA
ENDROOT
BRANCH   1  22
ATOM     22  C   UNL     1       7.504   0.148  25.858  0.00  0.00    +0.102 C 
BRANCH  22  23
ATOM     23  C   UNL     1       6.210   0.328  25.075  0.00  0.00    +0.135 C 
ATOM     24  O   UNL     1       5.273  -0.464  25.177  0.00  0.00    -0.297 OA
BRANCH  23  25
ATOM     25  C   UNL     1       6.137   1.470  24.085  0.00  0.00    +0.074 C 
BRANCH  25  26
ATOM     26  C   UNL     1       6.667   2.771  24.688  0.00  0.00    +0.010 C 
BRANCH  26  28
ATOM     27  C   UNL     1       8.153   4.710  23.953  0.00  0.00    +0.007 C 
ATOM     28  C   UNL     1       6.876   3.917  23.675  0.00  0.00    -0.017 C 
ATOM     29  C   UNL     1       6.915   3.352  22.253  0.00  0.00    +0.007 C 
ENDBRANCH  26  28
ENDBRANCH  25  26
ENDBRANCH  23  25
ENDBRANCH  22  23
ENDBRANCH   1  22
TORSDOF 5
ENDMDL
MODEL 4
REMARK VINA RESULT:      -6.6      2.410      4.656
REMARK  Name = 
REMARK  7 active torsions:
REMARK  status: ('A' for Active; 'I' for Inactive)
REMARK    1  A    between atoms: C_1  and  C_2
REMARK    2  A    between atoms: C_2  and  C_3
REMARK    3  A    between atoms: C_2  and  C_4
REMARK    4  A    between atoms: C_4  and  C_5
REMARK    5  A    between atoms: C_5  and  C_6
REMARK    6  A    between atoms: C_6  and  C_8
REMARK    7  A    between atoms: C_8  and  C_9
REMARK                            x       y       z     vdW  Elec       q    Type
REMARK                         _______ _______ _______ _____ _____    ______ ____
ROOT
ATOM      1  C   UNL     1       7.440  -3.588  25.303  0.00  0.00    +0.121 C 
ATOM      2  C   UNL     1       6.571  -4.344  26.247  0.00  0.00    -0.014 A 
ATOM      3  C   UNL     1       5.883  -3.451  27.062  0.00  0.00    +0.042 A 
ATOM      4  C   UNL     1       4.889  -3.893  27.916  0.00  0.00    +0.013 A 
ATOM      5  C   UNL     1       4.608  -5.270  27.938  0.00  0.00    +0.001 A 
ATOM      6  C   UNL     1       5.338  -6.172  27.144  0.00  0.00    +0.000 A 
ATOM      7  C   UNL     1       6.396  -2.083  26.788  0.00  0.00    +0.253 C 
ATOM      8  O   UNL     1       6.011  -1.105  27.400  0.00  0.00    -0.270 OA
ATOM      9  C   UNL     1       6.337  -5.712  26.289  0.00  0.00    +0.006 A 
ATOM     10  N   UNL     1       7.385  -2.219  25.804  0.00  0.00    -0.244 N 
ATOM     11  C   UNL     1       8.229  -1.196  25.291  0.00  0.00    +0.131 A 
ATOM     12  C   UNL     1       9.377  -1.576  24.595  0.00  0.00    +0.045 A 
ATOM     13  C   UNL     1      10.176  -0.622  23.994  0.00  0.00    +0.015 A 
ATOM     14  C   UNL     1       9.818   0.712  24.103  0.00  0.00    +0.019 A 
ATOM     15  C   UNL     1      10.595   1.692  23.473  0.00  0.00    +0.014 A 
ATOM     16  C   UNL     1      10.217   3.015  23.588  0.00  0.00    +0.041 A 
ATOM     17  C   UNL     1       9.087   3.277  24.340  0.00  0.00    +0.132 A 
ATOM     18  N   UNL     1       8.324   2.344  24.953  0.00  0.00    -0.216 NA
ATOM     19 CL   UNL     1       8.556   4.898  24.544  0.00  0.00    -0.062 Cl
ATOM     20  C   UNL     1       8.669   1.060  24.845  0.00  0.00    +0.163 A 
ATOM     21  N   UNL     1       7.910   0.108  25.422  0.00  0.00    -0.212 NA
ENDROOT
BRANCH   1  22
ATOM     22  C   UNL     1       6.949  -3.719  23.854  0.00  0.00    +0.102 C 
BRANCH  22  23
ATOM     23  C   UNL     1       7.216  -5.074  23.209  0.00  0.00    +0.135 C 
ATOM     24  O   UNL     1       8.336  -5.586  23.214  0.00  0.00    -0.297 OA
BRANCH  23  25
ATOM     25  C   UNL     1       6.075  -5.743  22.473  0.00  0.00    +0.074 C 
BRANCH  25  26
ATOM     26  C   UNL     1       4.774  -4.952  22.615  0.00  0.00    +0.010 C 
BRANCH  26  28
ATOM     27  C   UNL     1       3.225  -4.400  24.565  0.00  0.00    +0.007 C 
ATOM     28  C   UNL     1       3.795  -5.503  23.673  0.00  0.00    -0.017 C 
ATOM     29  C   UNL     1       2.654  -6.254  22.984  0.00  0.00    +0.007 C 
ENDBRANCH  26  28
ENDBRANCH  25  26
ENDBRANCH  23  25
ENDBRANCH  22  23
ENDBRANCH   1  22
TORSDOF 5
ENDMDL
MODEL 5
REMARK VINA RESULT:      -6.5      3.278      6.915
REMARK  Name = 
REMARK  7 active torsions:
REMARK  status: ('A' for Active; 'I' for Inactive)
REMARK    1  A    between atoms: C_1  and  C_2
REMARK    2  A    between atoms: C_2  and  C_3
REMARK    3  A    between atoms: C_2  and  C_4
REMARK    4  A    between atoms: C_4  and  C_5
REMARK    5  A    between atoms: C_5  and  C_6
REMARK    6  A    between atoms: C_6  and  C_8
REMARK    7  A    between atoms: C_8  and  C_9
REMARK                            x       y       z     vdW  Elec       q    Type
REMARK                         _______ _______ _______ _____ _____    ______ ____
ROOT
ATOM      1  C   UNL     1       9.247  -0.296  23.520  0.00  0.00    +0.121 C 
ATOM      2  C   UNL     1       9.382   1.187  23.477  0.00  0.00    -0.014 A 
ATOM      3  C   UNL     1       8.119   1.768  23.476  0.00  0.00    +0.042 A 
ATOM      4  C   UNL     1       7.969   3.137  23.603  0.00  0.00    +0.013 A 
ATOM      5  C   UNL     1       9.133   3.915  23.721  0.00  0.00    +0.001 A 
ATOM      6  C   UNL     1      10.409   3.325  23.677  0.00  0.00    +0.000 A 
ATOM      7  C   UNL     1       7.108   0.684  23.359  0.00  0.00    +0.253 C 
ATOM      8  O   UNL     1       5.916   0.907  23.278  0.00  0.00    -0.270 OA
ATOM      9  C   UNL     1      10.543   1.944  23.548  0.00  0.00    +0.006 A 
ATOM     10  N   UNL     1       7.823  -0.520  23.293  0.00  0.00    -0.244 N 
ATOM     11  C   UNL     1       7.292  -1.821  23.076  0.00  0.00    +0.131 A 
ATOM     12  C   UNL     1       8.169  -2.834  22.686  0.00  0.00    +0.045 A 
ATOM     13  C   UNL     1       7.718  -4.135  22.558  0.00  0.00    +0.015 A 
ATOM     14  C   UNL     1       6.385  -4.407  22.817  0.00  0.00    +0.019 A 
ATOM     15  C   UNL     1       5.916  -5.723  22.727  0.00  0.00    +0.014 A 
ATOM     16  C   UNL     1       4.584  -5.974  22.995  0.00  0.00    +0.041 A 
ATOM     17  C   UNL     1       3.800  -4.886  23.328  0.00  0.00    +0.132 A 
ATOM     18  N   UNL     1       4.236  -3.609  23.422  0.00  0.00    -0.216 NA
ATOM     19 CL   UNL     1       2.131  -5.109  23.664  0.00  0.00    -0.062 Cl
ATOM     20  C   UNL     1       5.522  -3.350  23.175  0.00  0.00    +0.163 A 
ATOM     21  N   UNL     1       5.988  -2.091  23.290  0.00  0.00    -0.212 NA
ENDROOT
BRANCH   1  22
ATOM     22  C   UNL     1       9.741  -0.870  24.856  0.00  0.00    +0.102 C 
BRANCH  22  23
ATOM     23  C   UNL     1       8.703  -0.877  25.971  0.00  0.00    +0.135 C 
ATOM     24  O   UNL     1       8.407   0.146  26.589  0.00  0.00    -0.297 OA
BRANCH  23  25
ATOM     25  C   UNL     1       8.101  -2.208  26.368  0.00  0.00    +0.074 C 
BRANCH  25  26
ATOM     26  C   UNL     1       9.138  -3.331  26.316  0.00  0.00    +0.010 C 
BRANCH  26  28
ATOM     27  C   UNL     1       7.030  -4.767  26.327  0.00  0.00    +0.007 C 
ATOM     28  C   UNL     1       8.555  -4.755  26.428  0.00  0.00    -0.017 C 
ATOM     29  C   UNL     1       9.154  -5.648  25.339  0.00  0.00    +0.007 C 
ENDBRANCH  26  28
ENDBRANCH  25  26
ENDBRANCH  23  25
ENDBRANCH  22  23
ENDBRANCH   1  22
TORSDOF 5
ENDMDL
MODEL 6
REMARK VINA RESULT:      -6.5      2.288      4.111
REMARK  Name = 
REMARK  7 active torsions:
REMARK  status: ('A' for Active; 'I' for Inactive)
REMARK    1  A    between atoms: C_1  and  C_2
REMARK    2  A    between atoms: C_2  and  C_3
REMARK    3  A    between atoms: C_2  and  C_4
REMARK    4  A    between atoms: C_4  and  C_5
REMARK    5  A    between atoms: C_5  and  C_6
REMARK    6  A    between atoms: C_6  and  C_8
REMARK    7  A    between atoms: C_8  and  C_9
REMARK                            x       y       z     vdW  Elec       q    Type
REMARK                         _______ _______ _______ _____ _____    ______ ____
ROOT
ATOM      1  C   UNL     1       7.694  -2.279  25.923  0.00  0.00    +0.121 C 
ATOM      2  C   UNL     1       6.642  -2.875  26.793  0.00  0.00    -0.014 A 
ATOM      3  C   UNL     1       5.754  -1.883  27.193  0.00  0.00    +0.042 A 
ATOM      4  C   UNL     1       4.594  -2.204  27.876  0.00  0.00    +0.013 A 
ATOM      5  C   UNL     1       4.355  -3.560  28.158  0.00  0.00    +0.001 A 
ATOM      6  C   UNL     1       5.280  -4.553  27.789  0.00  0.00    +0.000 A 
ATOM      7  C   UNL     1       6.279  -0.572  26.728  0.00  0.00    +0.253 C 
ATOM      8  O   UNL     1       5.731   0.481  26.986  0.00  0.00    -0.270 OA
ATOM      9  C   UNL     1       6.444  -4.213  27.103  0.00  0.00    +0.006 A 
ATOM     10  N   UNL     1       7.481  -0.842  26.059  0.00  0.00    -0.244 N 
ATOM     11  C   UNL     1       8.396   0.107  25.525  0.00  0.00    +0.131 A 
ATOM     12  C   UNL     1       9.689  -0.322  25.222  0.00  0.00    +0.045 A 
ATOM     13  C   UNL     1      10.583   0.538  24.611  0.00  0.00    +0.015 A 
ATOM     14  C   UNL     1      10.173   1.828  24.317  0.00  0.00    +0.019 A 
ATOM     15  C   UNL     1      11.052   2.703  23.668  0.00  0.00    +0.014 A 
ATOM     16  C   UNL     1      10.621   3.983  23.377  0.00  0.00    +0.041 A 
ATOM     17  C   UNL     1       9.336   4.311  23.765  0.00  0.00    +0.132 A 
ATOM     18  N   UNL     1       8.473   3.478  24.390  0.00  0.00    -0.216 NA
ATOM     19 CL   UNL     1       8.727   5.886  23.453  0.00  0.00    -0.062 Cl
ATOM     20  C   UNL     1       8.869   2.235  24.671  0.00  0.00    +0.163 A 
ATOM     21  N   UNL     1       8.019   1.376  25.267  0.00  0.00    -0.212 NA
ENDROOT
BRANCH   1  22
ATOM     22  C   UNL     1       7.572  -2.771  24.472  0.00  0.00    +0.102 C 
BRANCH  22  23
ATOM     23  C   UNL     1       8.512  -3.913  24.105  0.00  0.00    +0.135 C 
ATOM     24  O   UNL     1       9.732  -3.818  24.236  0.00  0.00    -0.297 OA
BRANCH  23  25
ATOM     25  C   UNL     1       7.907  -5.152  23.481  0.00  0.00    +0.074 C 
BRANCH  25  26
ATOM     26  C   UNL     1       6.416  -5.272  23.802  0.00  0.00    +0.010 C 
BRANCH  26  28
ATOM     27  C   UNL     1       6.074  -5.849  21.340  0.00  0.00    +0.007 C 
ATOM     28  C   UNL     1       5.481  -5.175  22.578  0.00  0.00    -0.017 C 
ATOM     29  C   UNL     1       4.125  -5.802  22.910  0.00  0.00    +0.007 C 
ENDBRANCH  26  28
ENDBRANCH  25  26
ENDBRANCH  23  25
ENDBRANCH  22  23
ENDBRANCH   1  22
TORSDOF 5
ENDMDL
MODEL 7
REMARK VINA RESULT:      -6.4      1.529      2.432
REMARK  Name = 
REMARK  7 active torsions:
REMARK  status: ('A' for Active; 'I' for Inactive)
REMARK    1  A    between atoms: C_1  and  C_2
REMARK    2  A    between atoms: C_2  and  C_3
REMARK    3  A    between atoms: C_2  and  C_4
REMARK    4  A    between atoms: C_4  and  C_5
REMARK    5  A    between atoms: C_5  and  C_6
REMARK    6  A    between atoms: C_6  and  C_8
REMARK    7  A    between atoms: C_8  and  C_9
REMARK                            x       y       z     vdW  Elec       q    Type
REMARK                         _______ _______ _______ _____ _____    ______ ____
ROOT
ATOM      1  C   UNL     1       5.872  -2.357  24.144  0.00  0.00    +0.121 C 
ATOM      2  C   UNL     1       5.823  -3.685  23.470  0.00  0.00    -0.014 A 
ATOM      3  C   UNL     1       6.916  -3.814  22.621  0.00  0.00    +0.042 A 
ATOM      4  C   UNL     1       7.190  -5.019  21.999  0.00  0.00    +0.013 A 
ATOM      5  C   UNL     1       6.324  -6.097  22.248  0.00  0.00    +0.001 A 
ATOM      6  C   UNL     1       5.195  -5.945  23.074  0.00  0.00    +0.000 A 
ATOM      7  C   UNL     1       7.636  -2.514  22.587  0.00  0.00    +0.253 C 
ATOM      8  O   UNL     1       8.606  -2.321  21.879  0.00  0.00    -0.270 OA
ATOM      9  C   UNL     1       4.932  -4.725  23.692  0.00  0.00    +0.006 A 
ATOM     10  N   UNL     1       6.930  -1.647  23.433  0.00  0.00    -0.244 N 
ATOM     11  C   UNL     1       7.182  -0.264  23.645  0.00  0.00    +0.131 A 
ATOM     12  C   UNL     1       6.176   0.507  24.229  0.00  0.00    +0.045 A 
ATOM     13  C   UNL     1       6.409   1.833  24.545  0.00  0.00    +0.015 A 
ATOM     14  C   UNL     1       7.651   2.377  24.263  0.00  0.00    +0.019 A 
ATOM     15  C   UNL     1       7.919   3.708  24.607  0.00  0.00    +0.014 A 
ATOM     16  C   UNL     1       9.166   4.229  24.324  0.00  0.00    +0.041 A 
ATOM     17  C   UNL     1      10.068   3.386  23.703  0.00  0.00    +0.132 A 
ATOM     18  N   UNL     1       9.828   2.098  23.367  0.00  0.00    -0.216 NA
ATOM     19 CL   UNL     1      11.636   3.960  23.305  0.00  0.00    -0.062 Cl
ATOM     20  C   UNL     1       8.631   1.575  23.641  0.00  0.00    +0.163 A 
ATOM     21  N   UNL     1       8.375   0.286  23.343  0.00  0.00    -0.212 NA
ENDROOT
BRANCH   1  22
ATOM     22  C   UNL     1       6.147  -2.497  25.649  0.00  0.00    +0.102 C 
BRANCH  22  23
ATOM     23  C   UNL     1       7.422  -3.256  25.997  0.00  0.00    +0.135 C 
ATOM     24  O   UNL     1       8.538  -2.774  25.803  0.00  0.00    -0.297 OA
BRANCH  23  25
ATOM     25  C   UNL     1       7.282  -4.672  26.511  0.00  0.00    +0.074 C 
BRANCH  25  26
ATOM     26  C   UNL     1       6.234  -4.767  27.620  0.00  0.00    +0.010 C 
BRANCH  26  28
ATOM     27  C   UNL     1       4.921  -6.268  29.211  0.00  0.00    +0.007 C 
ATOM     28  C   UNL     1       5.734  -6.196  27.918  0.00  0.00    -0.017 C 
ATOM     29  C   UNL     1       4.890  -6.705  26.746  0.00  0.00    +0.007 C 
ENDBRANCH  26  28
ENDBRANCH  25  26
ENDBRANCH  23  25
ENDBRANCH  22  23
ENDBRANCH   1  22
TORSDOF 5
ENDMDL
MODEL 8
REMARK VINA RESULT:      -6.4      3.128      6.618
REMARK  Name = 
REMARK  7 active torsions:
REMARK  status: ('A' for Active; 'I' for Inactive)
REMARK    1  A    between atoms: C_1  and  C_2
REMARK    2  A    between atoms: C_2  and  C_3
REMARK    3  A    between atoms: C_2  and  C_4
REMARK    4  A    between atoms: C_4  and  C_5
REMARK    5  A    between atoms: C_5  and  C_6
REMARK    6  A    between atoms: C_6  and  C_8
REMARK    7  A    between atoms: C_8  and  C_9
REMARK                            x       y       z     vdW  Elec       q    Type
REMARK                         _______ _______ _______ _____ _____    ______ ____
ROOT
ATOM      1  C   UNL     1       8.525   1.942  24.837  0.00  0.00    +0.121 C 
ATOM      2  C   UNL     1       8.496   3.331  24.300  0.00  0.00    -0.014 A 
ATOM      3  C   UNL     1       7.993   3.317  23.005  0.00  0.00    +0.042 A 
ATOM      4  C   UNL     1       7.713   4.498  22.341  0.00  0.00    +0.013 A 
ATOM      5  C   UNL     1       7.965   5.705  23.016  0.00  0.00    +0.001 A 
ATOM      6  C   UNL     1       8.516   5.711  24.310  0.00  0.00    +0.000 A 
ATOM      7  C   UNL     1       7.820   1.901  22.587  0.00  0.00    +0.253 C 
ATOM      8  O   UNL     1       7.444   1.587  21.475  0.00  0.00    -0.270 OA
ATOM      9  C   UNL     1       8.793   4.513  24.965  0.00  0.00    +0.006 A 
ATOM     10  N   UNL     1       8.236   1.114  23.671  0.00  0.00    -0.244 N 
ATOM     11  C   UNL     1       8.346  -0.303  23.709  0.00  0.00    +0.131 A 
ATOM     12  C   UNL     1       9.107  -0.877  24.727  0.00  0.00    +0.045 A 
ATOM     13  C   UNL     1       9.164  -2.252  24.864  0.00  0.00    +0.015 A 
ATOM     14  C   UNL     1       8.461  -3.041  23.967  0.00  0.00    +0.019 A 
ATOM     15  C   UNL     1       8.477  -4.434  24.109  0.00  0.00    +0.014 A 
ATOM     16  C   UNL     1       7.765  -5.201  23.209  0.00  0.00    +0.041 A 
ATOM     17  C   UNL     1       7.085  -4.525  22.214  0.00  0.00    +0.132 A 
ATOM     18  N   UNL     1       7.055  -3.181  22.064  0.00  0.00    -0.216 NA
ATOM     19 CL   UNL     1       6.184  -5.405  21.047  0.00  0.00    -0.062 Cl
ATOM     20  C   UNL     1       7.731  -2.423  22.929  0.00  0.00    +0.163 A 
ATOM     21  N   UNL     1       7.695  -1.080  22.820  0.00  0.00    -0.212 NA
ENDROOT
BRANCH   1  22
ATOM     22  C   UNL     1       7.509   1.755  25.975  0.00  0.00    +0.102 C 
BRANCH  22  23
ATOM     23  C   UNL     1       6.053   1.702  25.529  0.00  0.00    +0.135 C 
ATOM     24  O   UNL     1       5.394   2.725  25.340  0.00  0.00    -0.297 OA
BRANCH  23  25
ATOM     25  C   UNL     1       5.401   0.342  25.408  0.00  0.00    +0.074 C 
BRANCH  25  26
ATOM     26  C   UNL     1       5.898  -0.618  26.490  0.00  0.00    +0.010 C 
BRANCH  26  28
ATOM     27  C   UNL     1       4.897  -2.433  25.003  0.00  0.00    +0.007 C 
ATOM     28  C   UNL     1       5.292  -2.036  26.426  0.00  0.00    -0.017 C 
ATOM     29  C   UNL     1       6.287  -3.052  26.990  0.00  0.00    +0.007 C 
ENDBRANCH  26  28
ENDBRANCH  25  26
ENDBRANCH  23  25
ENDBRANCH  22  23
ENDBRANCH   1  22
TORSDOF 5
ENDMDL
MODEL 9
REMARK VINA RESULT:      -6.4      1.824      3.661
REMARK  Name = 
REMARK  7 active torsions:
REMARK  status: ('A' for Active; 'I' for Inactive)
REMARK    1  A    between atoms: C_1  and  C_2
REMARK    2  A    between atoms: C_2  and  C_3
REMARK    3  A    between atoms: C_2  and  C_4
REMARK    4  A    between atoms: C_4  and  C_5
REMARK    5  A    between atoms: C_5  and  C_6
REMARK    6  A    between atoms: C_6  and  C_8
REMARK    7  A    between atoms: C_8  and  C_9
REMARK                            x       y       z     vdW  Elec       q    Type
REMARK                         _______ _______ _______ _____ _____    ______ ____
ROOT
ATOM      1  C   UNL     1       6.841  -1.194  23.564  0.00  0.00    +0.121 C 
ATOM      2  C   UNL     1       7.410  -2.556  23.769  0.00  0.00    -0.014 A 
ATOM      3  C   UNL     1       8.742  -2.449  24.151  0.00  0.00    +0.042 A 
ATOM      4  C   UNL     1       9.454  -3.562  24.559  0.00  0.00    +0.013 A 
ATOM      5  C   UNL     1       8.787  -4.800  24.564  0.00  0.00    +0.001 A 
ATOM      6  C   UNL     1       7.452  -4.907  24.134  0.00  0.00    +0.000 A 
ATOM      7  C   UNL     1       9.140  -1.019  24.057  0.00  0.00    +0.253 C 
ATOM      8  O   UNL     1      10.273  -0.639  24.280  0.00  0.00    -0.270 OA
ATOM      9  C   UNL     1       6.750  -3.776  23.725  0.00  0.00    +0.006 A 
ATOM     10  N   UNL     1       8.008  -0.320  23.614  0.00  0.00    -0.244 N 
ATOM     11  C   UNL     1       7.929   1.059  23.281  0.00  0.00    +0.131 A 
ATOM     12  C   UNL     1       6.838   1.494  22.528  0.00  0.00    +0.045 A 
ATOM     13  C   UNL     1       6.666   2.840  22.262  0.00  0.00    +0.015 A 
ATOM     14  C   UNL     1       7.599   3.740  22.750  0.00  0.00    +0.019 A 
ATOM     15  C   UNL     1       7.426   5.111  22.521  0.00  0.00    +0.014 A 
ATOM     16  C   UNL     1       8.364   5.992  23.021  0.00  0.00    +0.041 A 
ATOM     17  C   UNL     1       9.427   5.444  23.713  0.00  0.00    +0.132 A 
ATOM     18  N   UNL     1       9.610   4.124  23.945  0.00  0.00    -0.216 NA
ATOM     19 CL   UNL     1      10.645   6.469  24.356  0.00  0.00    -0.062 Cl
ATOM     20  C   UNL     1       8.708   3.258  23.477  0.00  0.00    +0.163 A 
ATOM     21  N   UNL     1       8.851   1.941  23.719  0.00  0.00    -0.212 NA
ENDROOT
BRANCH   1  22
ATOM     22  C   UNL     1       5.788  -0.855  24.630  0.00  0.00    +0.102 C 
BRANCH  22  23
ATOM     23  C   UNL     1       6.326  -0.765  26.053  0.00  0.00    +0.135 C 
ATOM     24  O   UNL     1       6.486  -1.767  26.751  0.00  0.00    -0.297 OA
BRANCH  23  25
ATOM     25  C   UNL     1       6.578   0.612  26.627  0.00  0.00    +0.074 C 
BRANCH  25  26
ATOM     26  C   UNL     1       5.491   1.603  26.209  0.00  0.00    +0.010 C 
BRANCH  26  28
ATOM     27  C   UNL     1       4.888   4.071  25.984  0.00  0.00    +0.007 C 
ATOM     28  C   UNL     1       5.998   3.024  25.889  0.00  0.00    -0.017 C 
ATOM     29  C   UNL     1       7.141   3.394  26.838  0.00  0.00    +0.007 C 
ENDBRANCH  26  28
ENDBRANCH  25  26
ENDBRANCH  23  25
ENDBRANCH  22  23
ENDBRANCH   1  22
TORSDOF 5
ENDMDL
