MODEL 1
REMARK VINA RESULT:      -5.0      0.000      0.000
REMARK  Name = 
REMARK  5 active torsions:
REMARK  status: ('A' for Active; 'I' for Inactive)
REMARK    1  A    between atoms: C_2  and  C_3
REMARK    2  A    between atoms: C_3  and  C_4
REMARK    3  A    between atoms: C_4  and  C_5
REMARK    4  A    between atoms: C_5  and  C_6
REMARK    5  A    between atoms: C_6  and  C_7
REMARK                            x       y       z     vdW  Elec       q    Type
REMARK                         _______ _______ _______ _____ _____    ______ ____
ROOT
ATOM      1  C   UNL     1       8.411  -1.537  23.348  0.00  0.00    +0.069 C 
ATOM      2  C   UNL     1       7.052  -2.175  23.740  0.00  0.00    +0.108 C 
ATOM      3  C   UNL     1       7.251  -3.678  23.954  0.00  0.00    +0.105 C 
ATOM      4  N   UNL     1       7.005  -4.211  22.634  0.00  0.00    -0.294 N 
ATOM      5  H   UNL     1       7.010  -5.189  22.375  0.00  0.00    +0.151 HD
ATOM      6  C   UNL     1       6.134  -3.363  21.961  0.00  0.00    +0.300 C 
ATOM      7  O   UNL     1       5.540  -3.610  20.931  0.00  0.00    -0.253 OA
ATOM      8  C   UNL     1       8.603  -3.952  24.573  0.00  0.00    +0.093 C 
ATOM      9  N   UNL     1       6.067  -2.176  22.681  0.00  0.00    -0.294 N 
ATOM     10  H   UNL     1       5.573  -1.377  22.305  0.00  0.00    +0.151 HD
ATOM     11  S   UNL     1       9.700  -2.596  24.101  0.00  0.00    -0.154 S 
ENDROOT
BRANCH   1  12
ATOM     12  C   UNL     1       8.661  -1.346  21.837  0.00  0.00    +0.016 C 
BRANCH  12  13
ATOM     13  C   UNL     1       9.685  -0.250  21.507  0.00  0.00    +0.002 C 
BRANCH  13  14
ATOM     14  C   UNL     1       9.132   1.141  21.825  0.00  0.00    +0.007 C 
BRANCH  14  15
ATOM     15  C   UNL     1      10.200   2.012  22.475  0.00  0.00    +0.071 C 
BRANCH  15  16
ATOM     16  C   UNL     1      10.226   1.781  23.961  0.00  0.00    +0.223 C 
ATOM     17  O   UNL     1      10.962   0.961  24.501  0.00  0.00    -0.301 OA
ENDBRANCH  15  16
ENDBRANCH  14  15
ENDBRANCH  13  14
ENDBRANCH  12  13
ENDBRANCH   1  12
TORSDOF 5
ENDMDL
MODEL 2
REMARK VINA RESULT:      -4.9      2.705      3.259
REMARK  Name = 
REMARK  5 active torsions:
REMARK  status: ('A' for Active; 'I' for Inactive)
REMARK    1  A    between atoms: C_2  and  C_3
REMARK    2  A    between atoms: C_3  and  C_4
REMARK    3  A    between atoms: C_4  and  C_5
REMARK    4  A    between atoms: C_5  and  C_6
REMARK    5  A    between atoms: C_6  and  C_7
REMARK                            x       y       z     vdW  Elec       q    Type
REMARK                         _______ _______ _______ _____ _____    ______ ____
ROOT
ATOM      1  C   UNL     1       8.365  -0.048  25.258  0.00  0.00    +0.069 C 
ATOM      2  C   UNL     1       7.955  -1.142  24.238  0.00  0.00    +0.108 C 
ATOM      3  C   UNL     1       8.426  -2.505  24.753  0.00  0.00    +0.105 C 
ATOM      4  N   UNL     1       9.748  -2.609  24.182  0.00  0.00    -0.294 N 
ATOM      5  H   UNL     1      10.375  -3.399  24.271  0.00  0.00    +0.151 HD
ATOM      6  C   UNL     1       9.789  -1.873  23.004  0.00  0.00    +0.300 C 
ATOM      7  O   UNL     1      10.657  -1.920  22.156  0.00  0.00    -0.253 OA
ATOM      8  C   UNL     1       8.313  -2.569  26.260  0.00  0.00    +0.093 C 
ATOM      9  N   UNL     1       8.655  -1.070  22.974  0.00  0.00    -0.294 N 
ATOM     10  H   UNL     1       8.544  -0.369  22.253  0.00  0.00    +0.151 HD
ATOM     11  S   UNL     1       8.439  -0.879  26.886  0.00  0.00    -0.154 S 
ENDROOT
BRANCH   1  12
ATOM     12  C   UNL     1       9.680   0.704  24.958  0.00  0.00    +0.016 C 
BRANCH  12  13
ATOM     13  C   UNL     1       9.479   2.155  24.499  0.00  0.00    +0.002 C 
BRANCH  13  14
ATOM     14  C   UNL     1      10.436   2.515  23.360  0.00  0.00    +0.007 C 
BRANCH  14  15
ATOM     15  C   UNL     1       9.910   1.995  22.028  0.00  0.00    +0.071 C 
BRANCH  15  16
ATOM     16  C   UNL     1       8.445   2.308  21.888  0.00  0.00    +0.223 C 
ATOM     17  O   UNL     1       7.588   1.448  21.714  0.00  0.00    -0.301 OA
ENDBRANCH  15  16
ENDBRANCH  14  15
ENDBRANCH  13  14
ENDBRANCH  12  13
ENDBRANCH   1  12
TORSDOF 5
ENDMDL
MODEL 3
REMARK VINA RESULT:      -4.9      2.955      5.118
REMARK  Name = 
REMARK  5 active torsions:
REMARK  status: ('A' for Active; 'I' for Inactive)
REMARK    1  A    between atoms: C_2  and  C_3
REMARK    2  A    between atoms: C_3  and  C_4
REMARK    3  A    between atoms: C_4  and  C_5
REMARK    4  A    between atoms: C_5  and  C_6
REMARK    5  A    between atoms: C_6  and  C_7
REMARK                            x       y       z     vdW  Elec       q    Type
REMARK                         _______ _______ _______ _____ _____    ______ ____
ROOT
ATOM      1  C   UNL     1       9.609   2.596  24.127  0.00  0.00    +0.069 C 
ATOM      2  C   UNL     1       9.099   2.811  22.678  0.00  0.00    +0.108 C 
ATOM      3  C   UNL     1       7.652   2.321  22.582  0.00  0.00    +0.105 C 
ATOM      4  N   UNL     1       7.821   0.936  22.210  0.00  0.00    -0.294 N 
ATOM      5  H   UNL     1       7.078   0.276  22.017  0.00  0.00    +0.151 HD
ATOM      6  C   UNL     1       9.012   0.800  21.508  0.00  0.00    +0.300 C 
ATOM      7  O   UNL     1       9.358  -0.165  20.858  0.00  0.00    -0.253 OA
ATOM      8  C   UNL     1       6.908   2.610  23.866  0.00  0.00    +0.093 C 
ATOM      9  N   UNL     1       9.740   1.970  21.691  0.00  0.00    -0.294 N 
ATOM     10  H   UNL     1      10.692   2.037  21.356  0.00  0.00    +0.151 HD
ATOM     11  S   UNL     1       8.127   2.667  25.198  0.00  0.00    -0.154 S 
ENDROOT
BRANCH   1  12
ATOM     12  C   UNL     1      10.417   1.305  24.380  0.00  0.00    +0.016 C 
BRANCH  12  13
ATOM     13  C   UNL     1       9.647   0.229  25.158  0.00  0.00    +0.002 C 
BRANCH  13  14
ATOM     14  C   UNL     1       9.803  -1.146  24.507  0.00  0.00    +0.007 C 
BRANCH  14  15
ATOM     15  C   UNL     1       8.527  -1.964  24.656  0.00  0.00    +0.071 C 
BRANCH  15  16
ATOM     16  C   UNL     1       8.123  -2.544  23.328  0.00  0.00    +0.223 C 
ATOM     17  O   UNL     1       7.238  -2.066  22.626  0.00  0.00    -0.301 OA
ENDBRANCH  15  16
ENDBRANCH  14  15
ENDBRANCH  13  14
ENDBRANCH  12  13
ENDBRANCH   1  12
TORSDOF 5
ENDMDL
MODEL 4
REMARK VINA RESULT:      -4.9      2.896      3.783
REMARK  Name = 
REMARK  5 active torsions:
REMARK  status: ('A' for Active; 'I' for Inactive)
REMARK    1  A    between atoms: C_2  and  C_3
REMARK    2  A    between atoms: C_3  and  C_4
REMARK    3  A    between atoms: C_4  and  C_5
REMARK    4  A    between atoms: C_5  and  C_6
REMARK    5  A    between atoms: C_6  and  C_7
REMARK                            x       y       z     vdW  Elec       q    Type
REMARK                         _______ _______ _______ _____ _____    ______ ____
ROOT
ATOM      1  C   UNL     1       9.074  -2.850  24.768  0.00  0.00    +0.069 C 
ATOM      2  C   UNL     1       9.309  -4.377  24.917  0.00  0.00    +0.108 C 
ATOM      3  C   UNL     1       8.125  -5.125  24.298  0.00  0.00    +0.105 C 
ATOM      4  N   UNL     1       7.224  -5.256  25.419  0.00  0.00    -0.294 N 
ATOM      5  H   UNL     1       6.331  -5.732  25.414  0.00  0.00    +0.151 HD
ATOM      6  C   UNL     1       7.967  -5.276  26.593  0.00  0.00    +0.300 C 
ATOM      7  O   UNL     1       7.565  -5.597  27.693  0.00  0.00    -0.253 OA
ATOM      8  C   UNL     1       7.614  -4.392  23.078  0.00  0.00    +0.093 C 
ATOM      9  N   UNL     1       9.254  -4.857  26.280  0.00  0.00    -0.294 N 
ATOM     10  H   UNL     1       9.930  -4.691  27.014  0.00  0.00    +0.151 HD
ATOM     11  S   UNL     1       8.024  -2.644  23.284  0.00  0.00    -0.154 S 
ENDROOT
BRANCH   1  12
ATOM     12  C   UNL     1       8.457  -2.134  25.989  0.00  0.00    +0.016 C 
BRANCH  12  13
ATOM     13  C   UNL     1       8.605  -0.607  25.959  0.00  0.00    +0.002 C 
BRANCH  13  14
ATOM     14  C   UNL     1       9.919  -0.189  25.296  0.00  0.00    +0.007 C 
BRANCH  14  15
ATOM     15  C   UNL     1       9.695   0.970  24.333  0.00  0.00    +0.071 C 
BRANCH  15  16
ATOM     16  C   UNL     1      10.161   0.596  22.952  0.00  0.00    +0.223 C 
ATOM     17  O   UNL     1      10.117   1.365  21.997  0.00  0.00    -0.301 OA
ENDBRANCH  15  16
ENDBRANCH  14  15
ENDBRANCH  13  14
ENDBRANCH  12  13
ENDBRANCH   1  12
TORSDOF 5
ENDMDL
MODEL 5
REMARK VINA RESULT:      -4.9      2.340      2.991
REMARK  Name = 
REMARK  5 active torsions:
REMARK  status: ('A' for Active; 'I' for Inactive)
REMARK    1  A    between atoms: C_2  and  C_3
REMARK    2  A    between atoms: C_3  and  C_4
REMARK    3  A    between atoms: C_4  and  C_5
REMARK    4  A    between atoms: C_5  and  C_6
REMARK    5  A    between atoms: C_6  and  C_7
REMARK                            x       y       z     vdW  Elec       q    Type
REMARK                         _______ _______ _______ _____ _____    ______ ____
ROOT
ATOM      1  C   UNL     1       9.171  -1.515  24.661  0.00  0.00    +0.069 C 
ATOM      2  C   UNL     1       7.756  -2.150  24.685  0.00  0.00    +0.108 C 
ATOM      3  C   UNL     1       7.172  -2.117  23.270  0.00  0.00    +0.105 C 
ATOM      4  N   UNL     1       6.491  -0.843  23.248  0.00  0.00    -0.294 N 
ATOM      5  H   UNL     1       5.947  -0.472  22.480  0.00  0.00    +0.151 HD
ATOM      6  C   UNL     1       6.100  -0.520  24.541  0.00  0.00    +0.300 C 
ATOM      7  O   UNL     1       5.319   0.354  24.860  0.00  0.00    -0.253 OA
ATOM      8  C   UNL     1       8.258  -2.342  22.242  0.00  0.00    +0.093 C 
ATOM      9  N   UNL     1       6.769  -1.376  25.407  0.00  0.00    -0.294 N 
ATOM     10  H   UNL     1       6.715  -1.238  26.407  0.00  0.00    +0.151 HD
ATOM     11  S   UNL     1       9.816  -1.786  22.969  0.00  0.00    -0.154 S 
ENDROOT
BRANCH   1  12
ATOM     12  C   UNL     1       9.257  -0.026  25.056  0.00  0.00    +0.016 C 
BRANCH  12  13
ATOM     13  C   UNL     1      10.464   0.711  24.459  0.00  0.00    +0.002 C 
BRANCH  13  14
ATOM     14  C   UNL     1      10.035   1.994  23.744  0.00  0.00    +0.007 C 
BRANCH  14  15
ATOM     15  C   UNL     1      10.191   1.850  22.235  0.00  0.00    +0.071 C 
BRANCH  15  16
ATOM     16  C   UNL     1       8.857   1.575  21.597  0.00  0.00    +0.223 C 
ATOM     17  O   UNL     1       7.804   1.544  22.227  0.00  0.00    -0.301 OA
ENDBRANCH  15  16
ENDBRANCH  14  15
ENDBRANCH  13  14
ENDBRANCH  12  13
ENDBRANCH   1  12
TORSDOF 5
ENDMDL
MODEL 6
REMARK VINA RESULT:      -4.9      2.529      5.196
REMARK  Name = 
REMARK  5 active torsions:
REMARK  status: ('A' for Active; 'I' for Inactive)
REMARK    1  A    between atoms: C_2  and  C_3
REMARK    2  A    between atoms: C_3  and  C_4
REMARK    3  A    between atoms: C_4  and  C_5
REMARK    4  A    between atoms: C_5  and  C_6
REMARK    5  A    between atoms: C_6  and  C_7
REMARK                            x       y       z     vdW  Elec       q    Type
REMARK                         _______ _______ _______ _____ _____    ______ ____
ROOT
ATOM      1  C   UNL     1       8.506  -1.477  22.205  0.00  0.00    +0.069 C 
ATOM      2  C   UNL     1       7.978  -0.140  22.789  0.00  0.00    +0.108 C 
ATOM      3  C   UNL     1       8.545   0.045  24.200  0.00  0.00    +0.105 C 
ATOM      4  N   UNL     1       7.542  -0.594  25.020  0.00  0.00    -0.294 N 
ATOM      5  H   UNL     1       7.545  -0.648  26.030  0.00  0.00    +0.151 HD
ATOM      6  C   UNL     1       6.314  -0.512  24.374  0.00  0.00    +0.300 C 
ATOM      7  O   UNL     1       5.227  -0.737  24.865  0.00  0.00    -0.253 OA
ATOM      8  C   UNL     1       9.955  -0.496  24.279  0.00  0.00    +0.093 C 
ATOM      9  N   UNL     1       6.557  -0.129  23.061  0.00  0.00    -0.294 N 
ATOM     10  H   UNL     1       5.806  -0.119  22.384  0.00  0.00    +0.151 HD
ATOM     11  S   UNL     1      10.114  -1.784  23.022  0.00  0.00    -0.154 S 
ENDROOT
BRANCH   1  12
ATOM     12  C   UNL     1       7.570  -2.697  22.343  0.00  0.00    +0.016 C 
BRANCH  12  13
ATOM     13  C   UNL     1       8.085  -3.773  23.308  0.00  0.00    +0.002 C 
BRANCH  13  14
ATOM     14  C   UNL     1       7.156  -4.988  23.333  0.00  0.00    +0.007 C 
BRANCH  14  15
ATOM     15  C   UNL     1       7.339  -5.835  22.080  0.00  0.00    +0.071 C 
BRANCH  15  16
ATOM     16  C   UNL     1       6.054  -5.892  21.299  0.00  0.00    +0.223 C 
ATOM     17  O   UNL     1       5.965  -5.543  20.126  0.00  0.00    -0.301 OA
ENDBRANCH  15  16
ENDBRANCH  14  15
ENDBRANCH  13  14
ENDBRANCH  12  13
ENDBRANCH   1  12
TORSDOF 5
ENDMDL
MODEL 7
REMARK VINA RESULT:      -4.8      3.338      4.652
REMARK  Name = 
REMARK  5 active torsions:
REMARK  status: ('A' for Active; 'I' for Inactive)
REMARK    1  A    between atoms: C_2  and  C_3
REMARK    2  A    between atoms: C_3  and  C_4
REMARK    3  A    between atoms: C_4  and  C_5
REMARK    4  A    between atoms: C_5  and  C_6
REMARK    5  A    between atoms: C_6  and  C_7
REMARK                            x       y       z     vdW  Elec       q    Type
REMARK                         _______ _______ _______ _____ _____    ______ ____
ROOT
ATOM      1  C   UNL     1      10.288   1.182  23.635  0.00  0.00    +0.069 C 
ATOM      2  C   UNL     1      10.316  -0.107  24.499  0.00  0.00    +0.108 C 
ATOM      3  C   UNL     1       9.275  -1.091  23.959  0.00  0.00    +0.105 C 
ATOM      4  N   UNL     1       8.095  -0.733  24.710  0.00  0.00    -0.294 N 
ATOM      5  H   UNL     1       7.193  -1.189  24.657  0.00  0.00    +0.151 HD
ATOM      6  C   UNL     1       8.485  -0.200  25.933  0.00  0.00    +0.300 C 
ATOM      7  O   UNL     1       7.769  -0.005  26.894  0.00  0.00    -0.253 OA
ATOM      8  C   UNL     1       9.193  -1.001  22.451  0.00  0.00    +0.093 C 
ATOM      9  N   UNL     1       9.845   0.075  25.854  0.00  0.00    -0.294 N 
ATOM     10  H   UNL     1      10.309   0.575  26.601  0.00  0.00    +0.151 HD
ATOM     11  S   UNL     1       9.708   0.665  21.978  0.00  0.00    -0.154 S 
ENDROOT
BRANCH   1  12
ATOM     12  C   UNL     1       9.439   2.349  24.182  0.00  0.00    +0.016 C 
BRANCH  12  13
ATOM     13  C   UNL     1       9.871   3.730  23.669  0.00  0.00    +0.002 C 
BRANCH  13  14
ATOM     14  C   UNL     1      11.370   3.766  23.366  0.00  0.00    +0.007 C 
BRANCH  14  15
ATOM     15  C   UNL     1      11.899   5.194  23.419  0.00  0.00    +0.071 C 
BRANCH  15  16
ATOM     16  C   UNL     1      13.345   5.229  23.004  0.00  0.00    +0.223 C 
ATOM     17  O   UNL     1      13.717   5.587  21.891  0.00  0.00    -0.301 OA
ENDBRANCH  15  16
ENDBRANCH  14  15
ENDBRANCH  13  14
ENDBRANCH  12  13
ENDBRANCH   1  12
TORSDOF 5
ENDMDL
MODEL 8
REMARK VINA RESULT:      -4.8      2.707      5.627
REMARK  Name = 
REMARK  5 active torsions:
REMARK  status: ('A' for Active; 'I' for Inactive)
REMARK    1  A    between atoms: C_2  and  C_3
REMARK    2  A    between atoms: C_3  and  C_4
REMARK    3  A    between atoms: C_4  and  C_5
REMARK    4  A    between atoms: C_5  and  C_6
REMARK    5  A    between atoms: C_6  and  C_7
REMARK                            x       y       z     vdW  Elec       q    Type
REMARK                         _______ _______ _______ _____ _____    ______ ____
ROOT
ATOM      1  C   UNL     1       9.312  -0.381  22.679  0.00  0.00    +0.069 C 
ATOM      2  C   UNL     1       9.738   0.906  21.924  0.00  0.00    +0.108 C 
ATOM      3  C   UNL     1      10.087   1.990  22.947  0.00  0.00    +0.105 C 
ATOM      4  N   UNL     1       8.816   2.647  23.144  0.00  0.00    -0.294 N 
ATOM      5  H   UNL     1       8.645   3.452  23.734  0.00  0.00    +0.151 HD
ATOM      6  C   UNL     1       8.058   2.515  21.987  0.00  0.00    +0.300 C 
ATOM      7  O   UNL     1       7.045   3.128  21.716  0.00  0.00    -0.253 OA
ATOM      8  C   UNL     1      10.748   1.380  24.163  0.00  0.00    +0.093 C 
ATOM      9  N   UNL     1       8.668   1.550  21.195  0.00  0.00    -0.294 N 
ATOM     10  H   UNL     1       8.216   1.218  20.354  0.00  0.00    +0.151 HD
ATOM     11  S   UNL     1      10.174  -0.328  24.292  0.00  0.00    -0.154 S 
ENDROOT
BRANCH   1  12
ATOM     12  C   UNL     1       7.793  -0.588  22.867  0.00  0.00    +0.016 C 
BRANCH  12  13
ATOM     13  C   UNL     1       7.414  -1.971  23.413  0.00  0.00    +0.002 C 
BRANCH  13  14
ATOM     14  C   UNL     1       7.928  -3.088  22.502  0.00  0.00    +0.007 C 
BRANCH  14  15
ATOM     15  C   UNL     1       7.194  -4.393  22.778  0.00  0.00    +0.071 C 
BRANCH  15  16
ATOM     16  C   UNL     1       6.344  -4.773  21.596  0.00  0.00    +0.223 C 
ATOM     17  O   UNL     1       5.651  -3.970  20.981  0.00  0.00    -0.301 OA
ENDBRANCH  15  16
ENDBRANCH  14  15
ENDBRANCH  13  14
ENDBRANCH  12  13
ENDBRANCH   1  12
TORSDOF 5
ENDMDL
MODEL 9
REMARK VINA RESULT:      -4.8      3.198      4.711
REMARK  Name = 
REMARK  5 active torsions:
REMARK  status: ('A' for Active; 'I' for Inactive)
REMARK    1  A    between atoms: C_2  and  C_3
REMARK    2  A    between atoms: C_3  and  C_4
REMARK    3  A    between atoms: C_4  and  C_5
REMARK    4  A    between atoms: C_5  and  C_6
REMARK    5  A    between atoms: C_6  and  C_7
REMARK                            x       y       z     vdW  Elec       q    Type
REMARK                         _______ _______ _______ _____ _____    ______ ____
ROOT
ATOM      1  C   UNL     1       6.003  -5.126  25.519  0.00  0.00    +0.069 C 
ATOM      2  C   UNL     1       7.136  -5.124  26.580  0.00  0.00    +0.108 C 
ATOM      3  C   UNL     1       7.606  -3.684  26.802  0.00  0.00    +0.105 C 
ATOM      4  N   UNL     1       8.659  -3.550  25.823  0.00  0.00    -0.294 N 
ATOM      5  H   UNL     1       9.244  -2.736  25.684  0.00  0.00    +0.151 HD
ATOM      6  C   UNL     1       9.217  -4.801  25.588  0.00  0.00    +0.300 C 
ATOM      7  O   UNL     1      10.257  -5.027  25.004  0.00  0.00    -0.253 OA
ATOM      8  C   UNL     1       6.441  -2.725  26.706  0.00  0.00    +0.093 C 
ATOM      9  N   UNL     1       8.364  -5.749  26.139  0.00  0.00    -0.294 N 
ATOM     10  H   UNL     1       8.525  -6.735  25.982  0.00  0.00    +0.151 HD
ATOM     11  S   UNL     1       5.198  -3.487  25.640  0.00  0.00    -0.154 S 
ENDROOT
BRANCH   1  12
ATOM     12  C   UNL     1       6.430  -5.431  24.067  0.00  0.00    +0.016 C 
BRANCH  12  13
ATOM     13  C   UNL     1       6.135  -4.295  23.078  0.00  0.00    +0.002 C 
BRANCH  13  14
ATOM     14  C   UNL     1       7.414  -3.811  22.391  0.00  0.00    +0.007 C 
BRANCH  14  15
ATOM     15  C   UNL     1       7.600  -2.312  22.587  0.00  0.00    +0.071 C 
BRANCH  15  16
ATOM     16  C   UNL     1       9.052  -1.944  22.446  0.00  0.00    +0.223 C 
ATOM     17  O   UNL     1       9.894  -2.190  23.303  0.00  0.00    -0.301 OA
ENDBRANCH  15  16
ENDBRANCH  14  15
ENDBRANCH  13  14
ENDBRANCH  12  13
ENDBRANCH   1  12
TORSDOF 5
ENDMDL
