MODEL 1
REMARK VINA RESULT:      -4.3      0.000      0.000
REMARK  Name = 
REMARK  11 active torsions:
REMARK  status: ('A' for Active; 'I' for Inactive)
REMARK    1  A    between atoms: O_1  and  C_2
REMARK    2  A    between atoms: C_2  and  C_3
REMARK    3  A    between atoms: C_3  and  C_4
REMARK    4  A    between atoms: C_4  and  C_5
REMARK    5  A    between atoms: C_5  and  C_6
REMARK    6  A    between atoms: C_6  and  C_7
REMARK    7  A    between atoms: C_7  and  C_8
REMARK    8  A    between atoms: C_8  and  C_9
REMARK    9  A    between atoms: C_9  and  N_10
REMARK   10  A    between atoms: N_10  and  C_11
REMARK   11  A    between atoms: C_11  and  O_12
REMARK                            x       y       z     vdW  Elec       q    Type
REMARK                         _______ _______ _______ _____ _____    ______ ____
ROOT
ATOM      1  C   UNL     1       9.264   5.188  24.569  0.00  0.00    +0.001 C 
ENDROOT
BRANCH   1   2
ATOM      2  C   UNL     1       8.844   3.786  24.128  0.00  0.00    +0.000 C 
BRANCH   2   3
ATOM      3  C   UNL     1      10.064   2.917  23.813  0.00  0.00    +0.000 C 
BRANCH   3   4
ATOM      4  C   UNL     1       9.855   1.475  24.274  0.00  0.00    +0.002 C 
BRANCH   4   5
ATOM      5  C   UNL     1       9.225   0.625  23.174  0.00  0.00    +0.028 C 
BRANCH   5   6
ATOM      6  C   UNL     1       9.811   0.951  21.807  0.00  0.00    +0.156 C 
BRANCH   6   7
ATOM      7  O   UNL     1       8.762   1.371  20.945  0.00  0.00    -0.395 OA
ATOM      8  H   UNL     1       8.435   2.220  21.289  0.00  0.00    +0.209 HD
ENDBRANCH   6   7
ENDBRANCH   5   6
ENDBRANCH   4   5
ENDBRANCH   3   4
ENDBRANCH   2   3
ENDBRANCH   1   2
BRANCH   1   9
ATOM      9  C   UNL     1      10.500   5.672  23.807  0.00  0.00    +0.015 C 
BRANCH   9  10
ATOM     10  C   UNL     1      11.409   6.501  24.718  0.00  0.00    +0.083 C 
BRANCH  10  11
ATOM     11  N   UNL     1      12.813   6.212  24.423  0.00  0.00    -0.294 NA
ATOM     12  H   UNL     1      13.236   5.748  25.226  0.00  0.00    +0.124 HD
BRANCH  11  13
ATOM     13  C   UNL     1      12.920   5.314  23.298  0.00  0.00    +0.240 C 
BRANCH  13  14
ATOM     14  O   UNL     1      14.286   5.039  23.123  0.00  0.00    -0.380 OA
ATOM     15  H   UNL     1      14.635   5.868  22.753  0.00  0.00    +0.211 HD
ENDBRANCH  13  14
ENDBRANCH  11  13
ENDBRANCH  10  11
ENDBRANCH   9  10
ENDBRANCH   1   9
TORSDOF 11
ENDMDL
MODEL 2
REMARK VINA RESULT:      -4.3      1.842      2.335
REMARK  Name = 
REMARK  11 active torsions:
REMARK  status: ('A' for Active; 'I' for Inactive)
REMARK    1  A    between atoms: O_1  and  C_2
REMARK    2  A    between atoms: C_2  and  C_3
REMARK    3  A    between atoms: C_3  and  C_4
REMARK    4  A    between atoms: C_4  and  C_5
REMARK    5  A    between atoms: C_5  and  C_6
REMARK    6  A    between atoms: C_6  and  C_7
REMARK    7  A    between atoms: C_7  and  C_8
REMARK    8  A    between atoms: C_8  and  C_9
REMARK    9  A    between atoms: C_9  and  N_10
REMARK   10  A    between atoms: N_10  and  C_11
REMARK   11  A    between atoms: C_11  and  O_12
REMARK                            x       y       z     vdW  Elec       q    Type
REMARK                         _______ _______ _______ _____ _____    ______ ____
ROOT
ATOM      1  C   UNL     1       9.993   2.908  23.424  0.00  0.00    +0.001 C 
ENDROOT
BRANCH   1   2
ATOM      2  C   UNL     1       8.584   2.861  22.831  0.00  0.00    +0.000 C 
BRANCH   2   3
ATOM      3  C   UNL     1       8.429   1.679  21.872  0.00  0.00    +0.000 C 
BRANCH   3   4
ATOM      4  C   UNL     1       9.729   0.883  21.752  0.00  0.00    +0.002 C 
BRANCH   4   5
ATOM      5  C   UNL     1       9.454  -0.605  21.552  0.00  0.00    +0.028 C 
BRANCH   5   6
ATOM      6  C   UNL     1      10.233  -1.459  22.543  0.00  0.00    +0.156 C 
BRANCH   6   7
ATOM      7  O   UNL     1      10.201  -0.828  23.816  0.00  0.00    -0.395 OA
ATOM      8  H   UNL     1       9.287  -0.894  24.142  0.00  0.00    +0.209 HD
ENDBRANCH   6   7
ENDBRANCH   5   6
ENDBRANCH   4   5
ENDBRANCH   3   4
ENDBRANCH   2   3
ENDBRANCH   1   2
BRANCH   1   9
ATOM      9  C   UNL     1      10.432   4.343  23.722  0.00  0.00    +0.015 C 
BRANCH   9  10
ATOM     10  C   UNL     1      11.926   4.522  23.444  0.00  0.00    +0.083 C 
BRANCH  10  11
ATOM     11  N   UNL     1      12.120   5.412  22.299  0.00  0.00    -0.294 NA
ATOM     12  H   UNL     1      11.680   6.311  22.494  0.00  0.00    +0.124 HD
BRANCH  11  13
ATOM     13  C   UNL     1      13.526   5.658  22.081  0.00  0.00    +0.240 C 
BRANCH  13  14
ATOM     14  O   UNL     1      14.214   5.088  23.165  0.00  0.00    -0.380 OA
ATOM     15  H   UNL     1      15.095   5.495  23.110  0.00  0.00    +0.211 HD
ENDBRANCH  13  14
ENDBRANCH  11  13
ENDBRANCH  10  11
ENDBRANCH   9  10
ENDBRANCH   1   9
TORSDOF 11
ENDMDL
MODEL 3
REMARK VINA RESULT:      -4.2      1.917      2.653
REMARK  Name = 
REMARK  11 active torsions:
REMARK  status: ('A' for Active; 'I' for Inactive)
REMARK    1  A    between atoms: O_1  and  C_2
REMARK    2  A    between atoms: C_2  and  C_3
REMARK    3  A    between atoms: C_3  and  C_4
REMARK    4  A    between atoms: C_4  and  C_5
REMARK    5  A    between atoms: C_5  and  C_6
REMARK    6  A    between atoms: C_6  and  C_7
REMARK    7  A    between atoms: C_7  and  C_8
REMARK    8  A    between atoms: C_8  and  C_9
REMARK    9  A    between atoms: C_9  and  N_10
REMARK   10  A    between atoms: N_10  and  C_11
REMARK   11  A    between atoms: C_11  and  O_12
REMARK                            x       y       z     vdW  Elec       q    Type
REMARK                         _______ _______ _______ _____ _____    ______ ____
ROOT
ATOM      1  C   UNL     1       9.608   2.099  24.243  0.00  0.00    +0.001 C 
ENDROOT
BRANCH   1   2
ATOM      2  C   UNL     1      10.555   0.932  24.522  0.00  0.00    +0.000 C 
BRANCH   2   3
ATOM      3  C   UNL     1       9.811  -0.239  25.168  0.00  0.00    +0.000 C 
BRANCH   3   4
ATOM      4  C   UNL     1       9.757  -1.449  24.235  0.00  0.00    +0.002 C 
BRANCH   4   5
ATOM      5  C   UNL     1       8.599  -1.338  23.247  0.00  0.00    +0.028 C 
BRANCH   5   6
ATOM      6  C   UNL     1       9.092  -1.281  21.807  0.00  0.00    +0.156 C 
BRANCH   6   7
ATOM      7  O   UNL     1      10.479  -1.590  21.785  0.00  0.00    -0.395 OA
ATOM      8  H   UNL     1      10.553  -2.558  21.729  0.00  0.00    +0.209 HD
ENDBRANCH   6   7
ENDBRANCH   5   6
ENDBRANCH   4   5
ENDBRANCH   3   4
ENDBRANCH   2   3
ENDBRANCH   1   2
BRANCH   1   9
ATOM      9  C   UNL     1      10.129   2.991  23.114  0.00  0.00    +0.015 C 
BRANCH   9  10
ATOM     10  C   UNL     1      10.932   4.166  23.676  0.00  0.00    +0.083 C 
BRANCH  10  11
ATOM     11  N   UNL     1      12.015   4.518  22.758  0.00  0.00    -0.294 NA
ATOM     12  H   UNL     1      11.620   4.938  21.917  0.00  0.00    +0.124 HD
BRANCH  11  13
ATOM     13  C   UNL     1      12.890   5.498  23.359  0.00  0.00    +0.240 C 
BRANCH  13  14
ATOM     14  O   UNL     1      14.207   5.070  23.121  0.00  0.00    -0.380 OA
ATOM     15  H   UNL     1      14.529   5.700  22.454  0.00  0.00    +0.211 HD
ENDBRANCH  13  14
ENDBRANCH  11  13
ENDBRANCH  10  11
ENDBRANCH   9  10
ENDBRANCH   1   9
TORSDOF 11
ENDMDL
MODEL 4
REMARK VINA RESULT:      -4.1      4.269      5.561
REMARK  Name = 
REMARK  11 active torsions:
REMARK  status: ('A' for Active; 'I' for Inactive)
REMARK    1  A    between atoms: O_1  and  C_2
REMARK    2  A    between atoms: C_2  and  C_3
REMARK    3  A    between atoms: C_3  and  C_4
REMARK    4  A    between atoms: C_4  and  C_5
REMARK    5  A    between atoms: C_5  and  C_6
REMARK    6  A    between atoms: C_6  and  C_7
REMARK    7  A    between atoms: C_7  and  C_8
REMARK    8  A    between atoms: C_8  and  C_9
REMARK    9  A    between atoms: C_9  and  N_10
REMARK   10  A    between atoms: N_10  and  C_11
REMARK   11  A    between atoms: C_11  and  O_12
REMARK                            x       y       z     vdW  Elec       q    Type
REMARK                         _______ _______ _______ _____ _____    ______ ____
ROOT
ATOM      1  C   UNL     1      10.939   0.914  24.369  0.00  0.00    +0.001 C 
ENDROOT
BRANCH   1   2
ATOM      2  C   UNL     1      10.303   2.126  23.688  0.00  0.00    +0.000 C 
BRANCH   2   3
ATOM      3  C   UNL     1      10.167   1.903  22.180  0.00  0.00    +0.000 C 
BRANCH   3   4
ATOM      4  C   UNL     1       8.703   1.928  21.742  0.00  0.00    +0.002 C 
BRANCH   4   5
ATOM      5  C   UNL     1       7.807   2.518  22.828  0.00  0.00    +0.028 C 
BRANCH   5   6
ATOM      6  C   UNL     1       6.372   2.024  22.702  0.00  0.00    +0.156 C 
BRANCH   6   7
ATOM      7  O   UNL     1       6.371   0.603  22.733  0.00  0.00    -0.395 OA
ATOM      8  H   UNL     1       6.939   0.302  22.003  0.00  0.00    +0.209 HD
ENDBRANCH   6   7
ENDBRANCH   5   6
ENDBRANCH   4   5
ENDBRANCH   3   4
ENDBRANCH   2   3
ENDBRANCH   1   2
BRANCH   1   9
ATOM      9  C   UNL     1       9.888   0.032  25.047  0.00  0.00    +0.015 C 
BRANCH   9  10
ATOM     10  C   UNL     1       9.732  -1.296  24.303  0.00  0.00    +0.083 C 
BRANCH  10  11
ATOM     11  N   UNL     1       8.653  -1.195  23.319  0.00  0.00    -0.294 NA
ATOM     12  H   UNL     1       8.577  -0.229  23.001  0.00  0.00    +0.124 HD
BRANCH  11  13
ATOM     13  C   UNL     1       8.944  -2.009  22.163  0.00  0.00    +0.240 C 
BRANCH  13  14
ATOM     14  O   UNL     1      10.168  -1.557  21.642  0.00  0.00    -0.380 OA
ATOM     15  H   UNL     1       9.998  -0.617  21.458  0.00  0.00    +0.211 HD
ENDBRANCH  13  14
ENDBRANCH  11  13
ENDBRANCH  10  11
ENDBRANCH   9  10
ENDBRANCH   1   9
TORSDOF 11
ENDMDL
MODEL 5
REMARK VINA RESULT:      -4.1      2.707      5.760
REMARK  Name = 
REMARK  11 active torsions:
REMARK  status: ('A' for Active; 'I' for Inactive)
REMARK    1  A    between atoms: O_1  and  C_2
REMARK    2  A    between atoms: C_2  and  C_3
REMARK    3  A    between atoms: C_3  and  C_4
REMARK    4  A    between atoms: C_4  and  C_5
REMARK    5  A    between atoms: C_5  and  C_6
REMARK    6  A    between atoms: C_6  and  C_7
REMARK    7  A    between atoms: C_7  and  C_8
REMARK    8  A    between atoms: C_8  and  C_9
REMARK    9  A    between atoms: C_9  and  N_10
REMARK   10  A    between atoms: N_10  and  C_11
REMARK   11  A    between atoms: C_11  and  O_12
REMARK                            x       y       z     vdW  Elec       q    Type
REMARK                         _______ _______ _______ _____ _____    ______ ____
ROOT
ATOM      1  C   UNL     1       9.190   2.333  24.586  0.00  0.00    +0.001 C 
ENDROOT
BRANCH   1   2
ATOM      2  C   UNL     1       9.797   2.587  23.206  0.00  0.00    +0.000 C 
BRANCH   2   3
ATOM      3  C   UNL     1      11.093   3.394  23.313  0.00  0.00    +0.000 C 
BRANCH   3   4
ATOM      4  C   UNL     1      10.808   4.876  23.561  0.00  0.00    +0.002 C 
BRANCH   4   5
ATOM      5  C   UNL     1      12.100   5.667  23.750  0.00  0.00    +0.028 C 
BRANCH   5   6
ATOM      6  C   UNL     1      13.076   5.431  22.605  0.00  0.00    +0.156 C 
BRANCH   6   7
ATOM      7  O   UNL     1      14.346   5.098  23.147  0.00  0.00    -0.395 OA
ATOM      8  H   UNL     1      15.016   5.425  22.522  0.00  0.00    +0.209 HD
ENDBRANCH   6   7
ENDBRANCH   5   6
ENDBRANCH   4   5
ENDBRANCH   3   4
ENDBRANCH   2   3
ENDBRANCH   1   2
BRANCH   1   9
ATOM      9  C   UNL     1       8.523   0.958  24.665  0.00  0.00    +0.015 C 
BRANCH   9  10
ATOM     10  C   UNL     1       9.024   0.047  23.542  0.00  0.00    +0.083 C 
BRANCH  10  11
ATOM     11  N   UNL     1       9.985  -0.921  24.072  0.00  0.00    -0.294 NA
ATOM     12  H   UNL     1       9.658  -1.257  24.978  0.00  0.00    +0.124 HD
BRANCH  11  13
ATOM     13  C   UNL     1      10.086  -2.065  23.197  0.00  0.00    +0.240 C 
BRANCH  13  14
ATOM     14  O   UNL     1      10.459  -1.580  21.932  0.00  0.00    -0.380 OA
ATOM     15  H   UNL     1       9.809  -0.877  21.762  0.00  0.00    +0.211 HD
ENDBRANCH  13  14
ENDBRANCH  11  13
ENDBRANCH  10  11
ENDBRANCH   9  10
ENDBRANCH   1   9
TORSDOF 11
ENDMDL
MODEL 6
REMARK VINA RESULT:      -4.1      4.417      6.090
REMARK  Name = 
REMARK  11 active torsions:
REMARK  status: ('A' for Active; 'I' for Inactive)
REMARK    1  A    between atoms: O_1  and  C_2
REMARK    2  A    between atoms: C_2  and  C_3
REMARK    3  A    between atoms: C_3  and  C_4
REMARK    4  A    between atoms: C_4  and  C_5
REMARK    5  A    between atoms: C_5  and  C_6
REMARK    6  A    between atoms: C_6  and  C_7
REMARK    7  A    between atoms: C_7  and  C_8
REMARK    8  A    between atoms: C_8  and  C_9
REMARK    9  A    between atoms: C_9  and  N_10
REMARK   10  A    between atoms: N_10  and  C_11
REMARK   11  A    between atoms: C_11  and  O_12
REMARK                            x       y       z     vdW  Elec       q    Type
REMARK                         _______ _______ _______ _____ _____    ______ ____
ROOT
ATOM      1  C   UNL     1       9.486  -1.598  22.281  0.00  0.00    +0.001 C 
ENDROOT
BRANCH   1   2
ATOM      2  C   UNL     1       9.917  -2.300  23.568  0.00  0.00    +0.000 C 
BRANCH   2   3
ATOM      3  C   UNL     1       8.863  -2.136  24.665  0.00  0.00    +0.000 C 
BRANCH   3   4
ATOM      4  C   UNL     1       7.824  -3.257  24.612  0.00  0.00    +0.002 C 
BRANCH   4   5
ATOM      5  C   UNL     1       8.470  -4.600  24.285  0.00  0.00    +0.028 C 
BRANCH   5   6
ATOM      6  C   UNL     1       8.994  -5.291  25.537  0.00  0.00    +0.156 C 
BRANCH   6   7
ATOM      7  O   UNL     1      10.380  -5.554  25.371  0.00  0.00    -0.395 OA
ATOM      8  H   UNL     1      10.803  -4.709  25.139  0.00  0.00    +0.209 HD
ENDBRANCH   6   7
ENDBRANCH   5   6
ENDBRANCH   4   5
ENDBRANCH   3   4
ENDBRANCH   2   3
ENDBRANCH   1   2
BRANCH   1   9
ATOM      9  C   UNL     1      10.133  -0.217  22.148  0.00  0.00    +0.015 C 
BRANCH   9  10
ATOM     10  C   UNL     1       9.148   0.788  21.547  0.00  0.00    +0.083 C 
BRANCH  10  11
ATOM     11  N   UNL     1       9.712   2.138  21.603  0.00  0.00    -0.294 NA
ATOM     12  H   UNL     1       8.976   2.817  21.409  0.00  0.00    +0.124 HD
BRANCH  11  13
ATOM     13  C   UNL     1      10.222   2.419  22.924  0.00  0.00    +0.240 C 
BRANCH  13  14
ATOM     14  O   UNL     1      11.049   3.549  22.811  0.00  0.00    -0.380 OA
ATOM     15  H   UNL     1      11.130   3.860  23.729  0.00  0.00    +0.211 HD
ENDBRANCH  13  14
ENDBRANCH  11  13
ENDBRANCH  10  11
ENDBRANCH   9  10
ENDBRANCH   1   9
TORSDOF 11
ENDMDL
MODEL 7
REMARK VINA RESULT:      -4.0      4.958      7.532
REMARK  Name = 
REMARK  11 active torsions:
REMARK  status: ('A' for Active; 'I' for Inactive)
REMARK    1  A    between atoms: O_1  and  C_2
REMARK    2  A    between atoms: C_2  and  C_3
REMARK    3  A    between atoms: C_3  and  C_4
REMARK    4  A    between atoms: C_4  and  C_5
REMARK    5  A    between atoms: C_5  and  C_6
REMARK    6  A    between atoms: C_6  and  C_7
REMARK    7  A    between atoms: C_7  and  C_8
REMARK    8  A    between atoms: C_8  and  C_9
REMARK    9  A    between atoms: C_9  and  N_10
REMARK   10  A    between atoms: N_10  and  C_11
REMARK   11  A    between atoms: C_11  and  O_12
REMARK                            x       y       z     vdW  Elec       q    Type
REMARK                         _______ _______ _______ _____ _____    ______ ____
ROOT
ATOM      1  C   UNL     1      10.258  -1.647  22.939  0.00  0.00    +0.001 C 
ENDROOT
BRANCH   1   2
ATOM      2  C   UNL     1       9.375  -1.340  21.729  0.00  0.00    +0.000 C 
BRANCH   2   3
ATOM      3  C   UNL     1       9.069   0.156  21.636  0.00  0.00    +0.000 C 
BRANCH   3   4
ATOM      4  C   UNL     1      10.138   0.990  22.343  0.00  0.00    +0.002 C 
BRANCH   4   5
ATOM      5  C   UNL     1       9.522   2.178  23.077  0.00  0.00    +0.028 C 
BRANCH   5   6
ATOM      6  C   UNL     1       9.279   1.865  24.547  0.00  0.00    +0.156 C 
BRANCH   6   7
ATOM      7  O   UNL     1      10.377   1.111  25.043  0.00  0.00    -0.395 OA
ATOM      8  H   UNL     1      11.148   1.338  24.496  0.00  0.00    +0.209 HD
ENDBRANCH   6   7
ENDBRANCH   5   6
ENDBRANCH   4   5
ENDBRANCH   3   4
ENDBRANCH   2   3
ENDBRANCH   1   2
BRANCH   1   9
ATOM      9  C   UNL     1       9.445  -2.228  24.098  0.00  0.00    +0.015 C 
BRANCH   9  10
ATOM     10  C   UNL     1       8.421  -3.243  23.587  0.00  0.00    +0.083 C 
BRANCH  10  11
ATOM     11  N   UNL     1       8.795  -4.592  24.014  0.00  0.00    -0.294 NA
ATOM     12  H   UNL     1       9.470  -4.978  23.355  0.00  0.00    +0.124 HD
BRANCH  11  13
ATOM     13  C   UNL     1       9.428  -4.555  25.311  0.00  0.00    +0.240 C 
BRANCH  13  14
ATOM     14  O   UNL     1      10.327  -5.633  25.358  0.00  0.00    -0.380 OA
ATOM     15  H   UNL     1      10.361  -5.936  24.435  0.00  0.00    +0.211 HD
ENDBRANCH  13  14
ENDBRANCH  11  13
ENDBRANCH  10  11
ENDBRANCH   9  10
ENDBRANCH   1   9
TORSDOF 11
ENDMDL
MODEL 8
REMARK VINA RESULT:      -4.0      5.322      7.930
REMARK  Name = 
REMARK  11 active torsions:
REMARK  status: ('A' for Active; 'I' for Inactive)
REMARK    1  A    between atoms: O_1  and  C_2
REMARK    2  A    between atoms: C_2  and  C_3
REMARK    3  A    between atoms: C_3  and  C_4
REMARK    4  A    between atoms: C_4  and  C_5
REMARK    5  A    between atoms: C_5  and  C_6
REMARK    6  A    between atoms: C_6  and  C_7
REMARK    7  A    between atoms: C_7  and  C_8
REMARK    8  A    between atoms: C_8  and  C_9
REMARK    9  A    between atoms: C_9  and  N_10
REMARK   10  A    between atoms: N_10  and  C_11
REMARK   11  A    between atoms: C_11  and  O_12
REMARK                            x       y       z     vdW  Elec       q    Type
REMARK                         _______ _______ _______ _____ _____    ______ ____
ROOT
ATOM      1  C   UNL     1       7.827  -1.980  24.272  0.00  0.00    +0.001 C 
ENDROOT
BRANCH   1   2
ATOM      2  C   UNL     1       9.138  -1.390  24.790  0.00  0.00    +0.000 C 
BRANCH   2   3
ATOM      3  C   UNL     1      10.056  -0.985  23.634  0.00  0.00    +0.000 C 
BRANCH   3   4
ATOM      4  C   UNL     1       9.429  -1.321  22.281  0.00  0.00    +0.002 C 
BRANCH   4   5
ATOM      5  C   UNL     1       9.431  -0.111  21.351  0.00  0.00    +0.028 C 
BRANCH   5   6
ATOM      6  C   UNL     1       9.286   1.193  22.125  0.00  0.00    +0.156 C 
BRANCH   6   7
ATOM      7  O   UNL     1      10.148   2.166  21.551  0.00  0.00    -0.395 OA
ATOM      8  H   UNL     1       9.609   2.958  21.381  0.00  0.00    +0.209 HD
ENDBRANCH   6   7
ENDBRANCH   5   6
ENDBRANCH   4   5
ENDBRANCH   3   4
ENDBRANCH   2   3
ENDBRANCH   1   2
BRANCH   1   9
ATOM      9  C   UNL     1       7.473  -3.285  24.989  0.00  0.00    +0.015 C 
BRANCH   9  10
ATOM     10  C   UNL     1       7.432  -4.453  24.001  0.00  0.00    +0.083 C 
BRANCH  10  11
ATOM     11  N   UNL     1       8.693  -5.195  24.048  0.00  0.00    -0.294 NA
ATOM     12  H   UNL     1       9.421  -4.649  23.587  0.00  0.00    +0.124 HD
BRANCH  11  13
ATOM     13  C   UNL     1       9.108  -5.402  25.415  0.00  0.00    +0.240 C 
BRANCH  13  14
ATOM     14  O   UNL     1      10.508  -5.522  25.404  0.00  0.00    -0.380 OA
ATOM     15  H   UNL     1      10.764  -5.231  26.296  0.00  0.00    +0.211 HD
ENDBRANCH  13  14
ENDBRANCH  11  13
ENDBRANCH  10  11
ENDBRANCH   9  10
ENDBRANCH   1   9
TORSDOF 11
ENDMDL
MODEL 9
REMARK VINA RESULT:      -4.0      6.019      8.666
REMARK  Name = 
REMARK  11 active torsions:
REMARK  status: ('A' for Active; 'I' for Inactive)
REMARK    1  A    between atoms: O_1  and  C_2
REMARK    2  A    between atoms: C_2  and  C_3
REMARK    3  A    between atoms: C_3  and  C_4
REMARK    4  A    between atoms: C_4  and  C_5
REMARK    5  A    between atoms: C_5  and  C_6
REMARK    6  A    between atoms: C_6  and  C_7
REMARK    7  A    between atoms: C_7  and  C_8
REMARK    8  A    between atoms: C_8  and  C_9
REMARK    9  A    between atoms: C_9  and  N_10
REMARK   10  A    between atoms: N_10  and  C_11
REMARK   11  A    between atoms: C_11  and  O_12
REMARK                            x       y       z     vdW  Elec       q    Type
REMARK                         _______ _______ _______ _____ _____    ______ ____
ROOT
ATOM      1  C   UNL     1       8.365  -3.148  24.030  0.00  0.00    +0.001 C 
ENDROOT
BRANCH   1   2
ATOM      2  C   UNL     1       9.792  -2.599  23.977  0.00  0.00    +0.000 C 
BRANCH   2   3
ATOM      3  C   UNL     1       9.793  -1.093  23.706  0.00  0.00    +0.000 C 
BRANCH   3   4
ATOM      4  C   UNL     1      10.387  -0.774  22.334  0.00  0.00    +0.002 C 
BRANCH   4   5
ATOM      5  C   UNL     1       9.349  -0.141  21.411  0.00  0.00    +0.028 C 
BRANCH   5   6
ATOM      6  C   UNL     1       9.035   1.293  21.819  0.00  0.00    +0.156 C 
BRANCH   6   7
ATOM      7  O   UNL     1      10.160   2.109  21.526  0.00  0.00    -0.395 OA
ATOM      8  H   UNL     1      10.797   1.554  21.043  0.00  0.00    +0.209 HD
ENDBRANCH   6   7
ENDBRANCH   5   6
ENDBRANCH   4   5
ENDBRANCH   3   4
ENDBRANCH   2   3
ENDBRANCH   1   2
BRANCH   1   9
ATOM      9  C   UNL     1       7.973  -3.562  25.451  0.00  0.00    +0.015 C 
BRANCH   9  10
ATOM     10  C   UNL     1       9.037  -4.477  26.062  0.00  0.00    +0.083 C 
BRANCH  10  11
ATOM     11  N   UNL     1       8.422  -5.722  26.525  0.00  0.00    -0.294 NA
ATOM     12  H   UNL     1       9.004  -6.133  27.254  0.00  0.00    +0.124 HD
BRANCH  11  13
ATOM     13  C   UNL     1       7.124  -5.462  27.102  0.00  0.00    +0.240 C 
BRANCH  13  14
ATOM     14  O   UNL     1       7.084  -6.130  28.336  0.00  0.00    -0.380 OA
ATOM     15  H   UNL     1       7.760  -5.669  28.862  0.00  0.00    +0.211 HD
ENDBRANCH  13  14
ENDBRANCH  11  13
ENDBRANCH  10  11
ENDBRANCH   9  10
ENDBRANCH   1   9
TORSDOF 11
ENDMDL
