MODEL 1
REMARK VINA RESULT:      -6.2      0.000      0.000
REMARK  Name = 
REMARK  3 active torsions:
REMARK  status: ('A' for Active; 'I' for Inactive)
REMARK    1  A    between atoms: N_1  and  C_2
REMARK    2  A    between atoms: C_5  and  S_8
REMARK    3  A    between atoms: S_8  and  N_11
REMARK                            x       y       z     vdW  Elec       q    Type
REMARK                         _______ _______ _______ _____ _____    ______ ____
ROOT
ATOM      1  S   UNL     1       8.972  -3.101  24.064  0.00  0.00    +0.074 S 
ATOM      2  O   UNL     1      10.189  -3.837  24.338  0.00  0.00    -0.150 OA
ATOM      3  O   UNL     1       7.942  -3.691  23.233  0.00  0.00    -0.150 OA
ENDROOT
BRANCH   1   4
ATOM      4  N   UNL     1       8.192  -2.682  25.500  0.00  0.00    -0.194 N 
ATOM      5  H   UNL     1       7.583  -1.899  25.275  0.00  0.00    +0.176 HD
ATOM      6  C   UNL     1       7.512  -3.775  26.075  0.00  0.00    +0.177 A 
ATOM      7  S   UNL     1       5.837  -4.034  25.860  0.00  0.00    -0.059 S 
ATOM      8  C   UNL     1       5.931  -5.377  26.923  0.00  0.00    +0.068 A 
ATOM      9  C   UNL     1       7.212  -5.476  27.425  0.00  0.00    +0.120 A 
ATOM     10  N   UNL     1       8.125  -4.572  26.914  0.00  0.00    -0.232 NA
ENDBRANCH   1   4
BRANCH   1  14
ATOM     11  C   UNL     1       9.887   0.989  22.251  0.00  0.00    +0.025 A 
ATOM     12  C   UNL     1      10.177   0.734  23.596  0.00  0.00    +0.024 A 
ATOM     13  C   UNL     1       9.910  -0.517  24.161  0.00  0.00    +0.030 A 
ATOM     14  C   UNL     1       9.401  -1.536  23.356  0.00  0.00    +0.109 A 
ATOM     15  C   UNL     1       9.153  -1.313  22.001  0.00  0.00    +0.030 A 
ATOM     16  C   UNL     1       9.423  -0.060  21.449  0.00  0.00    +0.024 A 
BRANCH  11  17
ATOM     17  N   UNL     1      10.266   2.202  21.666  0.00  0.00    -0.358 N 
ATOM     18  H   UNL     1       9.579   2.942  21.774  0.00  0.00    +0.142 HD
ATOM     19  H   UNL     1      10.581   2.112  20.706  0.00  0.00    +0.142 HD
ENDBRANCH  11  17
ENDBRANCH   1  14
TORSDOF 3
ENDMDL
MODEL 2
REMARK VINA RESULT:      -6.1      2.760      2.931
REMARK  Name = 
REMARK  3 active torsions:
REMARK  status: ('A' for Active; 'I' for Inactive)
REMARK    1  A    between atoms: N_1  and  C_2
REMARK    2  A    between atoms: C_5  and  S_8
REMARK    3  A    between atoms: S_8  and  N_11
REMARK                            x       y       z     vdW  Elec       q    Type
REMARK                         _______ _______ _______ _____ _____    ______ ____
ROOT
ATOM      1  S   UNL     1       9.082  -2.177  23.762  0.00  0.00    +0.074 S 
ATOM      2  O   UNL     1       8.140  -2.157  24.861  0.00  0.00    -0.150 OA
ATOM      3  O   UNL     1      10.246  -3.037  23.823  0.00  0.00    -0.150 OA
ENDROOT
BRANCH   1   4
ATOM      4  N   UNL     1       8.308  -2.589  22.320  0.00  0.00    -0.194 N 
ATOM      5  H   UNL     1       9.006  -3.054  21.744  0.00  0.00    +0.176 HD
ATOM      6  C   UNL     1       7.153  -3.366  22.538  0.00  0.00    +0.177 A 
ATOM      7  S   UNL     1       7.151  -5.069  22.408  0.00  0.00    -0.059 S 
ATOM      8  C   UNL     1       5.460  -5.068  22.697  0.00  0.00    +0.068 A 
ATOM      9  C   UNL     1       5.012  -3.766  22.789  0.00  0.00    +0.120 A 
ATOM     10  N   UNL     1       5.990  -2.792  22.726  0.00  0.00    -0.232 NA
ENDBRANCH   1   4
BRANCH   1  14
ATOM     11  C   UNL     1      10.360   2.143  23.019  0.00  0.00    +0.025 A 
ATOM     12  C   UNL     1      10.544   1.561  24.278  0.00  0.00    +0.024 A 
ATOM     13  C   UNL     1      10.164   0.236  24.516  0.00  0.00    +0.030 A 
ATOM     14  C   UNL     1       9.650  -0.527  23.468  0.00  0.00    +0.109 A 
ATOM     15  C   UNL     1       9.506   0.024  22.193  0.00  0.00    +0.030 A 
ATOM     16  C   UNL     1       9.887   1.349  21.969  0.00  0.00    +0.024 A 
BRANCH  11  17
ATOM     17  N   UNL     1      10.849   3.428  22.759  0.00  0.00    -0.358 N 
ATOM     18  H   UNL     1      10.143   4.155  22.814  0.00  0.00    +0.142 HD
ATOM     19  H   UNL     1      11.397   3.492  21.906  0.00  0.00    +0.142 HD
ENDBRANCH  11  17
ENDBRANCH   1  14
TORSDOF 3
ENDMDL
MODEL 3
REMARK VINA RESULT:      -6.0      1.075      1.675
REMARK  Name = 
REMARK  3 active torsions:
REMARK  status: ('A' for Active; 'I' for Inactive)
REMARK    1  A    between atoms: N_1  and  C_2
REMARK    2  A    between atoms: C_5  and  S_8
REMARK    3  A    between atoms: S_8  and  N_11
REMARK                            x       y       z     vdW  Elec       q    Type
REMARK                         _______ _______ _______ _____ _____    ______ ____
ROOT
ATOM      1  S   UNL     1       9.089  -2.173  23.570  0.00  0.00    +0.074 S 
ATOM      2  O   UNL     1      10.281  -2.947  23.841  0.00  0.00    -0.150 OA
ATOM      3  O   UNL     1       8.213  -2.552  22.479  0.00  0.00    -0.150 OA
ENDROOT
BRANCH   1   4
ATOM      4  N   UNL     1       8.093  -2.113  24.931  0.00  0.00    -0.194 N 
ATOM      5  H   UNL     1       7.273  -1.575  24.660  0.00  0.00    +0.176 HD
ATOM      6  C   UNL     1       7.785  -3.397  25.422  0.00  0.00    +0.177 A 
ATOM      7  S   UNL     1       6.326  -4.202  25.045  0.00  0.00    -0.059 S 
ATOM      8  C   UNL     1       6.786  -5.480  26.094  0.00  0.00    +0.068 A 
ATOM      9  C   UNL     1       7.976  -5.158  26.714  0.00  0.00    +0.120 A 
ATOM     10  N   UNL     1       8.562  -3.975  26.305  0.00  0.00    -0.232 NA
ENDBRANCH   1   4
BRANCH   1  14
ATOM     11  C   UNL     1      10.468   2.128  22.899  0.00  0.00    +0.025 A 
ATOM     12  C   UNL     1       9.785   1.442  21.889  0.00  0.00    +0.024 A 
ATOM     13  C   UNL     1       9.350   0.127  22.084  0.00  0.00    +0.030 A 
ATOM     14  C   UNL     1       9.551  -0.482  23.323  0.00  0.00    +0.109 A 
ATOM     15  C   UNL     1      10.186   0.206  24.358  0.00  0.00    +0.030 A 
ATOM     16  C   UNL     1      10.617   1.518  24.149  0.00  0.00    +0.024 A 
BRANCH  11  17
ATOM     17  N   UNL     1      10.795   3.479  22.736  0.00  0.00    -0.358 N 
ATOM     18  H   UNL     1      11.703   3.633  22.308  0.00  0.00    +0.142 HD
ATOM     19  H   UNL     1      10.670   4.033  23.577  0.00  0.00    +0.142 HD
ENDBRANCH  11  17
ENDBRANCH   1  14
TORSDOF 3
ENDMDL
MODEL 4
REMARK VINA RESULT:      -6.0      1.747      2.372
REMARK  Name = 
REMARK  3 active torsions:
REMARK  status: ('A' for Active; 'I' for Inactive)
REMARK    1  A    between atoms: N_1  and  C_2
REMARK    2  A    between atoms: C_5  and  S_8
REMARK    3  A    between atoms: S_8  and  N_11
REMARK                            x       y       z     vdW  Elec       q    Type
REMARK                         _______ _______ _______ _____ _____    ______ ____
ROOT
ATOM      1  S   UNL     1       9.116  -2.929  24.406  0.00  0.00    +0.074 S 
ATOM      2  O   UNL     1       8.644  -2.645  25.744  0.00  0.00    -0.150 OA
ATOM      3  O   UNL     1      10.299  -3.744  24.215  0.00  0.00    -0.150 OA
ENDROOT
BRANCH   1   4
ATOM      4  N   UNL     1       7.913  -3.683  23.495  0.00  0.00    -0.194 N 
ATOM      5  H   UNL     1       8.264  -4.612  23.272  0.00  0.00    +0.176 HD
ATOM      6  C   UNL     1       6.672  -3.699  24.162  0.00  0.00    +0.177 A 
ATOM      7  S   UNL     1       6.116  -5.054  25.041  0.00  0.00    -0.059 S 
ATOM      8  C   UNL     1       4.639  -4.231  25.333  0.00  0.00    +0.068 A 
ATOM      9  C   UNL     1       4.649  -3.021  24.670  0.00  0.00    +0.120 A 
ATOM     10  N   UNL     1       5.829  -2.706  24.022  0.00  0.00    -0.232 NA
ENDBRANCH   1   4
BRANCH   1  14
ATOM     11  C   UNL     1       9.984   0.982  22.215  0.00  0.00    +0.025 A 
ATOM     12  C   UNL     1       9.495  -0.125  21.513  0.00  0.00    +0.024 A 
ATOM     13  C   UNL     1       9.218  -1.326  22.173  0.00  0.00    +0.030 A 
ATOM     14  C   UNL     1       9.377  -1.398  23.557  0.00  0.00    +0.109 A 
ATOM     15  C   UNL     1       9.815  -0.287  24.279  0.00  0.00    +0.030 A 
ATOM     16  C   UNL     1      10.090   0.906  23.608  0.00  0.00    +0.024 A 
BRANCH  11  17
ATOM     17  N   UNL     1      10.146   2.212  21.567  0.00  0.00    -0.358 N 
ATOM     18  H   UNL     1       9.673   2.269  20.670  0.00  0.00    +0.142 HD
ATOM     19  H   UNL     1      11.113   2.518  21.509  0.00  0.00    +0.142 HD
ENDBRANCH  11  17
ENDBRANCH   1  14
TORSDOF 3
ENDMDL
MODEL 5
REMARK VINA RESULT:      -5.9      2.060      2.324
REMARK  Name = 
REMARK  3 active torsions:
REMARK  status: ('A' for Active; 'I' for Inactive)
REMARK    1  A    between atoms: N_1  and  C_2
REMARK    2  A    between atoms: C_5  and  S_8
REMARK    3  A    between atoms: S_8  and  N_11
REMARK                            x       y       z     vdW  Elec       q    Type
REMARK                         _______ _______ _______ _____ _____    ______ ____
ROOT
ATOM      1  S   UNL     1       9.510  -1.505  22.883  0.00  0.00    +0.074 S 
ATOM      2  O   UNL     1      10.762  -1.807  22.222  0.00  0.00    -0.150 OA
ATOM      3  O   UNL     1       8.276  -2.087  22.395  0.00  0.00    -0.150 OA
ENDROOT
BRANCH   1   4
ATOM      4  N   UNL     1       9.580  -1.929  24.515  0.00  0.00    -0.194 N 
ATOM      5  H   UNL     1       9.094  -1.192  25.021  0.00  0.00    +0.176 HD
ATOM      6  C   UNL     1       9.054  -3.214  24.755  0.00  0.00    +0.177 A 
ATOM      7  S   UNL     1       7.456  -3.468  25.302  0.00  0.00    -0.059 S 
ATOM      8  C   UNL     1       7.780  -5.150  25.398  0.00  0.00    +0.068 A 
ATOM      9  C   UNL     1       9.104  -5.381  25.085  0.00  0.00    +0.120 A 
ATOM     10  N   UNL     1       9.826  -4.271  24.688  0.00  0.00    -0.232 NA
ENDBRANCH   1   4
BRANCH   1  14
ATOM     11  C   UNL     1       8.764   2.998  23.021  0.00  0.00    +0.025 A 
ATOM     12  C   UNL     1       9.345   2.346  24.115  0.00  0.00    +0.024 A 
ATOM     13  C   UNL     1       9.586   0.969  24.082  0.00  0.00    +0.030 A 
ATOM     14  C   UNL     1       9.296   0.251  22.922  0.00  0.00    +0.109 A 
ATOM     15  C   UNL     1       8.763   0.895  21.804  0.00  0.00    +0.030 A 
ATOM     16  C   UNL     1       8.526   2.270  21.850  0.00  0.00    +0.024 A 
BRANCH  11  17
ATOM     17  N   UNL     1       8.635   4.391  23.018  0.00  0.00    -0.358 N 
ATOM     18  H   UNL     1       9.503   4.884  23.204  0.00  0.00    +0.142 HD
ATOM     19  H   UNL     1       7.872   4.731  23.595  0.00  0.00    +0.142 HD
ENDBRANCH  11  17
ENDBRANCH   1  14
TORSDOF 3
ENDMDL
MODEL 6
REMARK VINA RESULT:      -5.7      2.633      6.058
REMARK  Name = 
REMARK  3 active torsions:
REMARK  status: ('A' for Active; 'I' for Inactive)
REMARK    1  A    between atoms: N_1  and  C_2
REMARK    2  A    between atoms: C_5  and  S_8
REMARK    3  A    between atoms: S_8  and  N_11
REMARK                            x       y       z     vdW  Elec       q    Type
REMARK                         _______ _______ _______ _____ _____    ______ ____
ROOT
ATOM      1  S   UNL     1       9.520  -1.493  23.551  0.00  0.00    +0.074 S 
ATOM      2  O   UNL     1       8.362  -0.910  22.908  0.00  0.00    -0.150 OA
ATOM      3  O   UNL     1      10.609  -2.012  22.749  0.00  0.00    -0.150 OA
ENDROOT
BRANCH   1   4
ATOM      4  N   UNL     1      10.239  -0.386  24.602  0.00  0.00    -0.194 N 
ATOM      5  H   UNL     1      11.234  -0.395  24.389  0.00  0.00    +0.176 HD
ATOM      6  C   UNL     1       9.658   0.894  24.508  0.00  0.00    +0.177 A 
ATOM      7  S   UNL     1      10.338   2.148  23.568  0.00  0.00    -0.059 S 
ATOM      8  C   UNL     1       9.114   3.208  24.137  0.00  0.00    +0.068 A 
ATOM      9  C   UNL     1       8.330   2.549  25.062  0.00  0.00    +0.120 A 
ATOM     10  N   UNL     1       8.627   1.212  25.251  0.00  0.00    -0.232 NA
ENDBRANCH   1   4
BRANCH   1  14
ATOM     11  C   UNL     1       8.277  -4.796  26.449  0.00  0.00    +0.025 A 
ATOM     12  C   UNL     1       7.569  -3.589  26.411  0.00  0.00    +0.024 A 
ATOM     13  C   UNL     1       7.935  -2.573  25.523  0.00  0.00    +0.030 A 
ATOM     14  C   UNL     1       8.981  -2.791  24.627  0.00  0.00    +0.109 A 
ATOM     15  C   UNL     1       9.664  -4.009  24.617  0.00  0.00    +0.030 A 
ATOM     16  C   UNL     1       9.291  -5.015  25.511  0.00  0.00    +0.024 A 
BRANCH  11  17
ATOM     17  N   UNL     1       7.832  -5.848  27.257  0.00  0.00    -0.358 N 
ATOM     18  H   UNL     1       6.887  -5.724  27.609  0.00  0.00    +0.142 HD
ATOM     19  H   UNL     1       8.483  -6.100  27.994  0.00  0.00    +0.142 HD
ENDBRANCH  11  17
ENDBRANCH   1  14
TORSDOF 3
ENDMDL
MODEL 7
REMARK VINA RESULT:      -5.6      3.164      5.812
REMARK  Name = 
REMARK  3 active torsions:
REMARK  status: ('A' for Active; 'I' for Inactive)
REMARK    1  A    between atoms: N_1  and  C_2
REMARK    2  A    between atoms: C_5  and  S_8
REMARK    3  A    between atoms: S_8  and  N_11
REMARK                            x       y       z     vdW  Elec       q    Type
REMARK                         _______ _______ _______ _____ _____    ______ ____
ROOT
ATOM      1  S   UNL     1       8.415  -2.104  24.704  0.00  0.00    +0.074 S 
ATOM      2  O   UNL     1       8.663  -2.710  25.995  0.00  0.00    -0.150 OA
ATOM      3  O   UNL     1       7.638  -0.884  24.615  0.00  0.00    -0.150 OA
ENDROOT
BRANCH   1   4
ATOM      4  N   UNL     1       9.866  -1.757  23.917  0.00  0.00    -0.194 N 
ATOM      5  H   UNL     1       9.906  -2.373  23.108  0.00  0.00    +0.176 HD
ATOM      6  C   UNL     1       9.981  -0.392  23.589  0.00  0.00    +0.177 A 
ATOM      7  S   UNL     1       9.608   0.217  22.037  0.00  0.00    -0.059 S 
ATOM      8  C   UNL     1      10.127   1.771  22.547  0.00  0.00    +0.068 A 
ATOM      9  C   UNL     1      10.621   1.691  23.833  0.00  0.00    +0.120 A 
ATOM     10  N   UNL     1      10.510   0.454  24.439  0.00  0.00    -0.232 NA
ENDBRANCH   1   4
BRANCH   1  14
ATOM     11  C   UNL     1       6.573  -5.148  21.841  0.00  0.00    +0.025 A 
ATOM     12  C   UNL     1       7.450  -5.568  22.847  0.00  0.00    +0.024 A 
ATOM     13  C   UNL     1       8.015  -4.648  23.735  0.00  0.00    +0.030 A 
ATOM     14  C   UNL     1       7.651  -3.303  23.649  0.00  0.00    +0.109 A 
ATOM     15  C   UNL     1       6.738  -2.876  22.683  0.00  0.00    +0.030 A 
ATOM     16  C   UNL     1       6.183  -3.805  21.801  0.00  0.00    +0.024 A 
BRANCH  11  17
ATOM     17  N   UNL     1       5.924  -6.089  21.033  0.00  0.00    -0.358 N 
ATOM     18  H   UNL     1       6.020  -7.045  21.360  0.00  0.00    +0.142 HD
ATOM     19  H   UNL     1       6.142  -5.999  20.046  0.00  0.00    +0.142 HD
ENDBRANCH  11  17
ENDBRANCH   1  14
TORSDOF 3
ENDMDL
MODEL 8
REMARK VINA RESULT:      -5.6      3.098      5.925
REMARK  Name = 
REMARK  3 active torsions:
REMARK  status: ('A' for Active; 'I' for Inactive)
REMARK    1  A    between atoms: N_1  and  C_2
REMARK    2  A    between atoms: C_5  and  S_8
REMARK    3  A    between atoms: S_8  and  N_11
REMARK                            x       y       z     vdW  Elec       q    Type
REMARK                         _______ _______ _______ _____ _____    ______ ____
ROOT
ATOM      1  S   UNL     1       8.850  -2.210  24.355  0.00  0.00    +0.074 S 
ATOM      2  O   UNL     1      10.180  -2.160  23.784  0.00  0.00    -0.150 OA
ATOM      3  O   UNL     1       8.679  -2.483  25.767  0.00  0.00    -0.150 OA
ENDROOT
BRANCH   1   4
ATOM      4  N   UNL     1       8.029  -0.761  24.085  0.00  0.00    -0.194 N 
ATOM      5  H   UNL     1       7.646  -0.479  24.985  0.00  0.00    +0.176 HD
ATOM      6  C   UNL     1       8.855   0.217  23.496  0.00  0.00    +0.177 A 
ATOM      7  S   UNL     1       9.629   1.439  24.405  0.00  0.00    -0.059 S 
ATOM      8  C   UNL     1      10.222   2.118  22.946  0.00  0.00    +0.068 A 
ATOM      9  C   UNL     1       9.718   1.412  21.873  0.00  0.00    +0.120 A 
ATOM     10  N   UNL     1       8.957   0.303  22.193  0.00  0.00    -0.232 NA
ENDBRANCH   1   4
BRANCH   1  14
ATOM     11  C   UNL     1       6.504  -5.258  21.893  0.00  0.00    +0.025 A 
ATOM     12  C   UNL     1       7.371  -5.687  22.905  0.00  0.00    +0.024 A 
ATOM     13  C   UNL     1       8.089  -4.764  23.671  0.00  0.00    +0.030 A 
ATOM     14  C   UNL     1       7.892  -3.399  23.459  0.00  0.00    +0.109 A 
ATOM     15  C   UNL     1       6.993  -2.955  22.488  0.00  0.00    +0.030 A 
ATOM     16  C   UNL     1       6.283  -3.887  21.729  0.00  0.00    +0.024 A 
BRANCH  11  17
ATOM     17  N   UNL     1       5.704  -6.183  21.213  0.00  0.00    -0.358 N 
ATOM     18  H   UNL     1       4.722  -6.142  21.467  0.00  0.00    +0.142 HD
ATOM     19  H   UNL     1       6.066  -7.131  21.237  0.00  0.00    +0.142 HD
ENDBRANCH  11  17
ENDBRANCH   1  14
TORSDOF 3
ENDMDL
MODEL 9
REMARK VINA RESULT:      -5.5      2.065      6.540
REMARK  Name = 
REMARK  3 active torsions:
REMARK  status: ('A' for Active; 'I' for Inactive)
REMARK    1  A    between atoms: N_1  and  C_2
REMARK    2  A    between atoms: C_5  and  S_8
REMARK    3  A    between atoms: S_8  and  N_11
REMARK                            x       y       z     vdW  Elec       q    Type
REMARK                         _______ _______ _______ _____ _____    ______ ____
ROOT
ATOM      1  S   UNL     1       8.687  -3.139  24.685  0.00  0.00    +0.074 S 
ATOM      2  O   UNL     1       9.941  -3.777  24.346  0.00  0.00    -0.150 OA
ATOM      3  O   UNL     1       8.680  -1.957  25.524  0.00  0.00    -0.150 OA
ENDROOT
BRANCH   1   4
ATOM      4  N   UNL     1       7.848  -2.693  23.291  0.00  0.00    -0.194 N 
ATOM      5  H   UNL     1       6.863  -2.669  23.547  0.00  0.00    +0.176 HD
ATOM      6  C   UNL     1       8.317  -1.478  22.754  0.00  0.00    +0.177 A 
ATOM      7  S   UNL     1       7.551   0.019  23.055  0.00  0.00    -0.059 S 
ATOM      8  C   UNL     1       8.663   0.777  21.989  0.00  0.00    +0.068 A 
ATOM      9  C   UNL     1       9.479  -0.180  21.422  0.00  0.00    +0.120 A 
ATOM     10  N   UNL     1       9.297  -1.470  21.884  0.00  0.00    -0.232 NA
ENDBRANCH   1   4
BRANCH   1  14
ATOM     11  C   UNL     1       5.840  -6.081  26.709  0.00  0.00    +0.025 A 
ATOM     12  C   UNL     1       5.718  -5.811  25.341  0.00  0.00    +0.024 A 
ATOM     13  C   UNL     1       6.589  -4.918  24.708  0.00  0.00    +0.030 A 
ATOM     14  C   UNL     1       7.624  -4.337  25.440  0.00  0.00    +0.109 A 
ATOM     15  C   UNL     1       7.790  -4.635  26.794  0.00  0.00    +0.030 A 
ATOM     16  C   UNL     1       6.913  -5.527  27.415  0.00  0.00    +0.024 A 
BRANCH  11  17
ATOM     17  N   UNL     1       5.040  -7.061  27.307  0.00  0.00    -0.358 N 
ATOM     18  H   UNL     1       4.303  -6.687  27.896  0.00  0.00    +0.142 HD
ATOM     19  H   UNL     1       5.570  -7.790  27.775  0.00  0.00    +0.142 HD
ENDBRANCH  11  17
ENDBRANCH   1  14
TORSDOF 3
ENDMDL
