MODEL 1
REMARK VINA RESULT:      -7.2      0.000      0.000
REMARK  Name = 
REMARK  8 active torsions:
REMARK  status: ('A' for Active; 'I' for Inactive)
REMARK    1  A    between atoms: C_9  and  C_11
REMARK    2  A    between atoms: C_13  and  O_14
REMARK    3  A    between atoms: O_14  and  C_15
REMARK    4  A    between atoms: C_16  and  O_17
REMARK    5  A    between atoms: O_17  and  C_18
REMARK    6  A    between atoms: C_19  and  O_20
REMARK    7  A    between atoms: O_20  and  C_21
REMARK    8  A    between atoms: C_32  and  O_34
REMARK                            x       y       z     vdW  Elec       q    Type
REMARK                         _______ _______ _______ _____ _____    ______ ____
ROOT
ATOM      1  C   UNL     1       5.949  -5.749  23.220  0.00  0.00    +0.074 C 
ATOM      2  C   UNL     1       4.887  -6.279  24.155  0.00  0.00    +0.152 C 
ATOM      3  C   UNL     1       5.306  -6.003  25.594  0.00  0.00    -0.011 A 
ATOM      4  C   UNL     1       6.323  -5.036  25.899  0.00  0.00    -0.030 A 
ATOM      5  C   UNL     1       6.763  -4.896  27.234  0.00  0.00    +0.054 A 
ATOM      6  C   UNL     1       6.134  -5.623  28.219  0.00  0.00    +0.167 A 
ATOM      7  O   UNL     1       6.418  -5.578  29.548  0.00  0.00    -0.453 OA
ATOM      8  C   UNL     1       5.492  -6.561  30.056  0.00  0.00    +0.466 C 
ATOM      9  O   UNL     1       4.602  -7.083  29.045  0.00  0.00    -0.453 OA
ATOM     10  C   UNL     1       5.103  -6.480  27.935  0.00  0.00    +0.167 A 
ATOM     11  C   UNL     1       6.965  -4.142  24.803  0.00  0.00    +0.064 C 
ATOM     12  C   UNL     1       4.663  -6.687  26.646  0.00  0.00    +0.056 A 
ATOM     13  C   UNL     1       6.201  -4.279  23.480  0.00  0.00    +0.118 C 
ATOM     14  C   UNL     1       6.922  -3.933  22.207  0.00  0.00    +0.312 C 
ATOM     15  O   UNL     1       7.708  -3.017  22.035  0.00  0.00    -0.250 OA
ATOM     16  O   UNL     1       6.514  -4.780  21.205  0.00  0.00    -0.464 OA
ATOM     17  C   UNL     1       5.637  -5.777  21.749  0.00  0.00    +0.239 C 
ENDROOT
BRANCH  11  18
ATOM     18  C   UNL     1       7.078  -2.669  25.212  0.00  0.00    -0.032 A 
ATOM     19  C   UNL     1       5.930  -1.864  25.266  0.00  0.00    +0.054 A 
ATOM     20  C   UNL     1       6.001  -0.498  25.586  0.00  0.00    +0.165 A 
ATOM     21  C   UNL     1       7.257   0.105  25.785  0.00  0.00    +0.204 A 
ATOM     22  C   UNL     1       8.416  -0.702  25.764  0.00  0.00    +0.165 A 
ATOM     23  C   UNL     1       8.312  -2.076  25.511  0.00  0.00    +0.054 A 
BRANCH  20  24
ATOM     24  O   UNL     1       4.866   0.268  25.665  0.00  0.00    -0.491 OA
ATOM     25  C   UNL     1       4.190   0.233  26.921  0.00  0.00    +0.277 C 
ENDBRANCH  20  24
BRANCH  21  26
ATOM     26  O   UNL     1       7.476   1.427  26.097  0.00  0.00    -0.488 OA
ATOM     27  C   UNL     1       7.446   2.374  25.037  0.00  0.00    +0.277 C 
ENDBRANCH  21  26
BRANCH  22  28
ATOM     28  O   UNL     1       9.619  -0.059  25.945  0.00  0.00    -0.491 OA
ATOM     29  C   UNL     1      10.449   0.098  24.801  0.00  0.00    +0.277 C 
ENDBRANCH  22  28
ENDBRANCH  11  18
BRANCH   2  30
ATOM     30  O   UNL     1       4.773  -7.671  23.877  0.00  0.00    -0.387 OA
ATOM     31  H   UNL     1       3.855  -7.948  24.030  0.00  0.00    +0.210 HD
ENDBRANCH   2  30
TORSDOF 5
ENDMDL
MODEL 2
REMARK VINA RESULT:      -7.0      0.321      2.320
REMARK  Name = 
REMARK  8 active torsions:
REMARK  status: ('A' for Active; 'I' for Inactive)
REMARK    1  A    between atoms: C_9  and  C_11
REMARK    2  A    between atoms: C_13  and  O_14
REMARK    3  A    between atoms: O_14  and  C_15
REMARK    4  A    between atoms: C_16  and  O_17
REMARK    5  A    between atoms: O_17  and  C_18
REMARK    6  A    between atoms: C_19  and  O_20
REMARK    7  A    between atoms: O_20  and  C_21
REMARK    8  A    between atoms: C_32  and  O_34
REMARK                            x       y       z     vdW  Elec       q    Type
REMARK                         _______ _______ _______ _____ _____    ______ ____
ROOT
ATOM      1  C   UNL     1       5.956  -5.713  23.251  0.00  0.00    +0.074 C 
ATOM      2  C   UNL     1       4.890  -6.240  24.182  0.00  0.00    +0.152 C 
ATOM      3  C   UNL     1       5.315  -5.985  25.623  0.00  0.00    -0.011 A 
ATOM      4  C   UNL     1       6.345  -5.034  25.936  0.00  0.00    -0.030 A 
ATOM      5  C   UNL     1       6.789  -4.914  27.272  0.00  0.00    +0.054 A 
ATOM      6  C   UNL     1       6.153  -5.644  28.249  0.00  0.00    +0.167 A 
ATOM      7  O   UNL     1       6.440  -5.617  29.578  0.00  0.00    -0.453 OA
ATOM      8  C   UNL     1       5.504  -6.594  30.078  0.00  0.00    +0.466 C 
ATOM      9  O   UNL     1       4.605  -7.094  29.064  0.00  0.00    -0.453 OA
ATOM     10  C   UNL     1       5.111  -6.485  27.958  0.00  0.00    +0.167 A 
ATOM     11  C   UNL     1       6.996  -4.136  24.848  0.00  0.00    +0.064 C 
ATOM     12  C   UNL     1       4.666  -6.673  26.668  0.00  0.00    +0.056 A 
ATOM     13  C   UNL     1       6.226  -4.250  23.526  0.00  0.00    +0.118 C 
ATOM     14  C   UNL     1       6.949  -3.898  22.255  0.00  0.00    +0.312 C 
ATOM     15  O   UNL     1       7.746  -2.990  22.091  0.00  0.00    -0.250 OA
ATOM     16  O   UNL     1       6.529  -4.729  21.245  0.00  0.00    -0.464 OA
ATOM     17  C   UNL     1       5.640  -5.721  21.780  0.00  0.00    +0.239 C 
ENDROOT
BRANCH  11  18
ATOM     18  C   UNL     1       7.127  -2.669  25.273  0.00  0.00    -0.032 A 
ATOM     19  C   UNL     1       8.395  -2.080  25.388  0.00  0.00    +0.054 A 
ATOM     20  C   UNL     1       8.556  -0.755  25.824  0.00  0.00    +0.165 A 
ATOM     21  C   UNL     1       7.430  -0.015  26.231  0.00  0.00    +0.204 A 
ATOM     22  C   UNL     1       6.146  -0.587  26.090  0.00  0.00    +0.165 A 
ATOM     23  C   UNL     1       6.007  -1.887  25.586  0.00  0.00    +0.054 A 
BRANCH  20  24
ATOM     24  O   UNL     1       9.801  -0.184  25.901  0.00  0.00    -0.491 OA
ATOM     25  C   UNL     1      10.404   0.140  24.650  0.00  0.00    +0.277 C 
ENDBRANCH  20  24
BRANCH  21  26
ATOM     26  O   UNL     1       7.440   1.284  26.685  0.00  0.00    -0.488 OA
ATOM     27  C   UNL     1       7.526   2.325  25.720  0.00  0.00    +0.277 C 
ENDBRANCH  21  26
BRANCH  22  28
ATOM     28  O   UNL     1       5.082   0.172  26.522  0.00  0.00    -0.491 OA
ATOM     29  C   UNL     1       3.941  -0.527  27.003  0.00  0.00    +0.277 C 
ENDBRANCH  22  28
ENDBRANCH  11  18
BRANCH   2  30
ATOM     30  O   UNL     1       4.758  -7.628  23.889  0.00  0.00    -0.387 OA
ATOM     31  H   UNL     1       3.815  -7.845  23.812  0.00  0.00    +0.210 HD
ENDBRANCH   2  30
TORSDOF 5
ENDMDL
MODEL 3
REMARK VINA RESULT:      -6.6      3.165      6.808
REMARK  Name = 
REMARK  8 active torsions:
REMARK  status: ('A' for Active; 'I' for Inactive)
REMARK    1  A    between atoms: C_9  and  C_11
REMARK    2  A    between atoms: C_13  and  O_14
REMARK    3  A    between atoms: O_14  and  C_15
REMARK    4  A    between atoms: C_16  and  O_17
REMARK    5  A    between atoms: O_17  and  C_18
REMARK    6  A    between atoms: C_19  and  O_20
REMARK    7  A    between atoms: O_20  and  C_21
REMARK    8  A    between atoms: C_32  and  O_34
REMARK                            x       y       z     vdW  Elec       q    Type
REMARK                         _______ _______ _______ _____ _____    ______ ____
ROOT
ATOM      1  C   UNL     1       8.853   2.165  23.567  0.00  0.00    +0.074 C 
ATOM      2  C   UNL     1       8.633   2.419  25.040  0.00  0.00    +0.152 C 
ATOM      3  C   UNL     1       7.337   1.745  25.475  0.00  0.00    -0.011 A 
ATOM      4  C   UNL     1       6.725   0.723  24.671  0.00  0.00    -0.030 A 
ATOM      5  C   UNL     1       5.466   0.208  25.051  0.00  0.00    +0.054 A 
ATOM      6  C   UNL     1       4.907   0.634  26.235  0.00  0.00    +0.167 A 
ATOM      7  O   UNL     1       3.722   0.214  26.753  0.00  0.00    -0.453 OA
ATOM      8  C   UNL     1       3.646   1.021  27.946  0.00  0.00    +0.466 C 
ATOM      9  O   UNL     1       4.831   1.814  28.175  0.00  0.00    -0.453 OA
ATOM     10  C   UNL     1       5.535   1.545  27.043  0.00  0.00    +0.167 A 
ATOM     11  C   UNL     1       7.402   0.168  23.387  0.00  0.00    +0.064 C 
ATOM     12  C   UNL     1       6.744   2.110  26.700  0.00  0.00    +0.056 A 
ATOM     13  C   UNL     1       8.844   0.680  23.276  0.00  0.00    +0.118 C 
ATOM     14  C   UNL     1       9.484   0.700  21.916  0.00  0.00    +0.312 C 
ATOM     15  O   UNL     1       9.367  -0.136  21.037  0.00  0.00    -0.250 OA
ATOM     16  O   UNL     1      10.303   1.798  21.812  0.00  0.00    -0.464 OA
ATOM     17  C   UNL     1      10.168   2.608  22.989  0.00  0.00    +0.239 C 
ENDROOT
BRANCH  11  18
ATOM     18  C   UNL     1       7.362  -1.361  23.294  0.00  0.00    -0.032 A 
ATOM     19  C   UNL     1       6.221  -2.005  22.792  0.00  0.00    +0.054 A 
ATOM     20  C   UNL     1       6.128  -3.406  22.740  0.00  0.00    +0.165 A 
ATOM     21  C   UNL     1       7.168  -4.192  23.271  0.00  0.00    +0.204 A 
ATOM     22  C   UNL     1       8.334  -3.555  23.749  0.00  0.00    +0.165 A 
ATOM     23  C   UNL     1       8.431  -2.157  23.726  0.00  0.00    +0.054 A 
BRANCH  20  24
ATOM     24  O   UNL     1       5.018  -4.020  22.218  0.00  0.00    -0.491 OA
ATOM     25  C   UNL     1       4.065  -4.478  23.176  0.00  0.00    +0.277 C 
ENDBRANCH  20  24
BRANCH  21  26
ATOM     26  O   UNL     1       7.207  -5.567  23.293  0.00  0.00    -0.488 OA
ATOM     27  C   UNL     1       7.294  -6.250  22.049  0.00  0.00    +0.277 C 
ENDBRANCH  21  26
BRANCH  22  28
ATOM     28  O   UNL     1       9.311  -4.369  24.275  0.00  0.00    -0.491 OA
ATOM     29  C   UNL     1       9.327  -4.533  25.687  0.00  0.00    +0.277 C 
ENDBRANCH  22  28
ENDBRANCH  11  18
BRANCH   2  30
ATOM     30  O   UNL     1       8.592   3.833  25.197  0.00  0.00    -0.387 OA
ATOM     31  H   UNL     1       7.672   4.106  25.349  0.00  0.00    +0.210 HD
ENDBRANCH   2  30
TORSDOF 5
ENDMDL
MODEL 4
REMARK VINA RESULT:      -6.5      3.158      7.124
REMARK  Name = 
REMARK  8 active torsions:
REMARK  status: ('A' for Active; 'I' for Inactive)
REMARK    1  A    between atoms: C_9  and  C_11
REMARK    2  A    between atoms: C_13  and  O_14
REMARK    3  A    between atoms: O_14  and  C_15
REMARK    4  A    between atoms: C_16  and  O_17
REMARK    5  A    between atoms: O_17  and  C_18
REMARK    6  A    between atoms: C_19  and  O_20
REMARK    7  A    between atoms: O_20  and  C_21
REMARK    8  A    between atoms: C_32  and  O_34
REMARK                            x       y       z     vdW  Elec       q    Type
REMARK                         _______ _______ _______ _____ _____    ______ ____
ROOT
ATOM      1  C   UNL     1       8.890   2.096  23.490  0.00  0.00    +0.074 C 
ATOM      2  C   UNL     1       8.762   2.436  24.956  0.00  0.00    +0.152 C 
ATOM      3  C   UNL     1       7.470   1.835  25.497  0.00  0.00    -0.011 A 
ATOM      4  C   UNL     1       6.780   0.796  24.786  0.00  0.00    -0.030 A 
ATOM      5  C   UNL     1       5.527   0.350  25.262  0.00  0.00    +0.054 A 
ATOM      6  C   UNL     1       5.050   0.859  26.449  0.00  0.00    +0.167 A 
ATOM      7  O   UNL     1       3.882   0.513  27.053  0.00  0.00    -0.453 OA
ATOM      8  C   UNL     1       3.902   1.384  28.202  0.00  0.00    +0.466 C 
ATOM      9  O   UNL     1       5.125   2.143  28.321  0.00  0.00    -0.453 OA
ATOM     10  C   UNL     1       5.755   1.787  27.170  0.00  0.00    +0.167 A 
ATOM     11  C   UNL     1       7.364   0.149  23.500  0.00  0.00    +0.064 C 
ATOM     12  C   UNL     1       6.960   2.288  26.731  0.00  0.00    +0.056 A 
ATOM     13  C   UNL     1       8.814   0.599  23.282  0.00  0.00    +0.118 C 
ATOM     14  C   UNL     1       9.377   0.522  21.890  0.00  0.00    +0.312 C 
ATOM     15  O   UNL     1       9.181  -0.355  21.066  0.00  0.00    -0.250 OA
ATOM     16  O   UNL     1      10.226   1.582  21.681  0.00  0.00    -0.464 OA
ATOM     17  C   UNL     1      10.186   2.458  22.817  0.00  0.00    +0.239 C 
ENDROOT
BRANCH  11  18
ATOM     18  C   UNL     1       7.265  -1.381  23.493  0.00  0.00    -0.032 A 
ATOM     19  C   UNL     1       8.359  -2.158  23.903  0.00  0.00    +0.054 A 
ATOM     20  C   UNL     1       8.323  -3.562  23.860  0.00  0.00    +0.165 A 
ATOM     21  C   UNL     1       7.196  -4.213  23.325  0.00  0.00    +0.204 A 
ATOM     22  C   UNL     1       6.077  -3.441  22.940  0.00  0.00    +0.165 A 
ATOM     23  C   UNL     1       6.112  -2.046  23.057  0.00  0.00    +0.054 A 
BRANCH  20  24
ATOM     24  O   UNL     1       9.389  -4.308  24.294  0.00  0.00    -0.491 OA
ATOM     25  C   UNL     1       9.344  -4.702  25.664  0.00  0.00    +0.277 C 
ENDBRANCH  20  24
BRANCH  21  26
ATOM     26  O   UNL     1       7.028  -5.574  23.217  0.00  0.00    -0.488 OA
ATOM     27  C   UNL     1       7.347  -6.187  21.975  0.00  0.00    +0.277 C 
ENDBRANCH  21  26
BRANCH  22  28
ATOM     28  O   UNL     1       5.010  -4.126  22.405  0.00  0.00    -0.491 OA
ATOM     29  C   UNL     1       3.952  -4.472  23.289  0.00  0.00    +0.277 C 
ENDBRANCH  22  28
ENDBRANCH  11  18
BRANCH   2  30
ATOM     30  O   UNL     1       8.779   3.858  25.036  0.00  0.00    -0.387 OA
ATOM     31  H   UNL     1       8.637   4.225  24.148  0.00  0.00    +0.210 HD
ENDBRANCH   2  30
TORSDOF 5
ENDMDL
MODEL 5
REMARK VINA RESULT:      -6.3      2.975      5.439
REMARK  Name = 
REMARK  8 active torsions:
REMARK  status: ('A' for Active; 'I' for Inactive)
REMARK    1  A    between atoms: C_9  and  C_11
REMARK    2  A    between atoms: C_13  and  O_14
REMARK    3  A    between atoms: O_14  and  C_15
REMARK    4  A    between atoms: C_16  and  O_17
REMARK    5  A    between atoms: O_17  and  C_18
REMARK    6  A    between atoms: C_19  and  O_20
REMARK    7  A    between atoms: O_20  and  C_21
REMARK    8  A    between atoms: C_32  and  O_34
REMARK                            x       y       z     vdW  Elec       q    Type
REMARK                         _______ _______ _______ _____ _____    ______ ____
ROOT
ATOM      1  C   UNL     1       9.865   0.351  23.051  0.00  0.00    +0.074 C 
ATOM      2  C   UNL     1       9.406  -1.022  22.623  0.00  0.00    +0.152 C 
ATOM      3  C   UNL     1       8.951  -1.803  23.851  0.00  0.00    -0.011 A 
ATOM      4  C   UNL     1       8.648  -1.134  25.085  0.00  0.00    -0.030 A 
ATOM      5  C   UNL     1       8.345  -1.905  26.230  0.00  0.00    +0.054 A 
ATOM      6  C   UNL     1       8.255  -3.272  26.103  0.00  0.00    +0.167 A 
ATOM      7  O   UNL     1       7.945  -4.147  27.097  0.00  0.00    -0.453 OA
ATOM      8  C   UNL     1       8.048  -5.403  26.396  0.00  0.00    +0.466 C 
ATOM      9  O   UNL     1       8.302  -5.248  24.982  0.00  0.00    -0.453 OA
ATOM     10  C   UNL     1       8.460  -3.900  24.902  0.00  0.00    +0.167 A 
ATOM     11  C   UNL     1       8.650   0.415  25.206  0.00  0.00    +0.064 C 
ATOM     12  C   UNL     1       8.800  -3.202  23.764  0.00  0.00    +0.056 A 
ATOM     13  C   UNL     1       8.773   1.062  23.821  0.00  0.00    +0.118 C 
ATOM     14  C   UNL     1       9.301   2.467  23.741  0.00  0.00    +0.312 C 
ATOM     15  O   UNL     1       9.066   3.384  24.509  0.00  0.00    -0.250 OA
ATOM     16  O   UNL     1      10.064   2.605  22.607  0.00  0.00    -0.464 OA
ATOM     17  C   UNL     1      10.193   1.332  21.959  0.00  0.00    +0.239 C 
ENDROOT
BRANCH  11  18
ATOM     18  C   UNL     1       7.432   0.965  25.955  0.00  0.00    -0.032 A 
ATOM     19  C   UNL     1       6.217   1.156  25.279  0.00  0.00    +0.054 A 
ATOM     20  C   UNL     1       5.095   1.707  25.920  0.00  0.00    +0.165 A 
ATOM     21  C   UNL     1       5.203   2.152  27.250  0.00  0.00    +0.204 A 
ATOM     22  C   UNL     1       6.411   1.936  27.950  0.00  0.00    +0.165 A 
ATOM     23  C   UNL     1       7.494   1.321  27.309  0.00  0.00    +0.054 A 
BRANCH  20  24
ATOM     24  O   UNL     1       3.906   1.858  25.253  0.00  0.00    -0.491 OA
ATOM     25  C   UNL     1       3.830   2.987  24.385  0.00  0.00    +0.277 C 
ENDBRANCH  20  24
BRANCH  21  26
ATOM     26  O   UNL     1       4.193   2.715  27.996  0.00  0.00    -0.488 OA
ATOM     27  C   UNL     1       3.236   1.843  28.584  0.00  0.00    +0.277 C 
ENDBRANCH  21  26
BRANCH  22  28
ATOM     28  O   UNL     1       6.469   2.409  29.241  0.00  0.00    -0.491 OA
ATOM     29  C   UNL     1       7.491   1.884  30.078  0.00  0.00    +0.277 C 
ENDBRANCH  22  28
ENDBRANCH  11  18
BRANCH   2  30
ATOM     30  O   UNL     1      10.518  -1.627  21.971  0.00  0.00    -0.387 OA
ATOM     31  H   UNL     1      10.699  -2.485  22.390  0.00  0.00    +0.210 HD
ENDBRANCH   2  30
TORSDOF 5
ENDMDL
MODEL 6
REMARK VINA RESULT:      -6.3      2.959      5.605
REMARK  Name = 
REMARK  8 active torsions:
REMARK  status: ('A' for Active; 'I' for Inactive)
REMARK    1  A    between atoms: C_9  and  C_11
REMARK    2  A    between atoms: C_13  and  O_14
REMARK    3  A    between atoms: O_14  and  C_15
REMARK    4  A    between atoms: C_16  and  O_17
REMARK    5  A    between atoms: O_17  and  C_18
REMARK    6  A    between atoms: C_19  and  O_20
REMARK    7  A    between atoms: O_20  and  C_21
REMARK    8  A    between atoms: C_32  and  O_34
REMARK                            x       y       z     vdW  Elec       q    Type
REMARK                         _______ _______ _______ _____ _____    ______ ____
ROOT
ATOM      1  C   UNL     1       9.819   0.367  23.143  0.00  0.00    +0.074 C 
ATOM      2  C   UNL     1       9.373  -0.999  22.678  0.00  0.00    +0.152 C 
ATOM      3  C   UNL     1       8.932  -1.818  23.886  0.00  0.00    -0.011 A 
ATOM      4  C   UNL     1       8.625  -1.187  25.139  0.00  0.00    -0.030 A 
ATOM      5  C   UNL     1       8.335  -1.991  26.264  0.00  0.00    +0.054 A 
ATOM      6  C   UNL     1       8.260  -3.356  26.100  0.00  0.00    +0.167 A 
ATOM      7  O   UNL     1       7.963  -4.260  27.071  0.00  0.00    -0.453 OA
ATOM      8  C   UNL     1       8.078  -5.495  26.335  0.00  0.00    +0.466 C 
ATOM      9  O   UNL     1       8.325  -5.300  24.926  0.00  0.00    -0.453 OA
ATOM     10  C   UNL     1       8.467  -3.948  24.882  0.00  0.00    +0.167 A 
ATOM     11  C   UNL     1       8.610   0.358  25.302  0.00  0.00    +0.064 C 
ATOM     12  C   UNL     1       8.796  -3.215  23.762  0.00  0.00    +0.056 A 
ATOM     13  C   UNL     1       8.721   1.044  23.934  0.00  0.00    +0.118 C 
ATOM     14  C   UNL     1       9.232   2.457  23.891  0.00  0.00    +0.312 C 
ATOM     15  O   UNL     1       8.990   3.351  24.685  0.00  0.00    -0.250 OA
ATOM     16  O   UNL     1       9.991   2.635  22.759  0.00  0.00    -0.464 OA
ATOM     17  C   UNL     1      10.132   1.381  22.077  0.00  0.00    +0.239 C 
ENDROOT
BRANCH  11  18
ATOM     18  C   UNL     1       7.388   0.875  26.069  0.00  0.00    -0.032 A 
ATOM     19  C   UNL     1       7.429   0.985  27.467  0.00  0.00    +0.054 A 
ATOM     20  C   UNL     1       6.311   1.405  28.207  0.00  0.00    +0.165 A 
ATOM     21  C   UNL     1       5.093   1.650  27.548  0.00  0.00    +0.204 A 
ATOM     22  C   UNL     1       5.049   1.573  26.138  0.00  0.00    +0.165 A 
ATOM     23  C   UNL     1       6.197   1.220  25.417  0.00  0.00    +0.054 A 
BRANCH  20  24
ATOM     24  O   UNL     1       6.378   1.537  29.571  0.00  0.00    -0.491 OA
ATOM     25  C   UNL     1       7.692   1.501  30.126  0.00  0.00    +0.277 C 
ENDBRANCH  20  24
BRANCH  21  26
ATOM     26  O   UNL     1       3.922   2.059  28.144  0.00  0.00    -0.488 OA
ATOM     27  C   UNL     1       3.795   3.432  28.489  0.00  0.00    +0.277 C 
ENDBRANCH  21  26
BRANCH  22  28
ATOM     28  O   UNL     1       3.828   1.803  25.546  0.00  0.00    -0.491 OA
ATOM     29  C   UNL     1       3.729   2.924  24.677  0.00  0.00    +0.277 C 
ENDBRANCH  22  28
ENDBRANCH  11  18
BRANCH   2  30
ATOM     30  O   UNL     1      10.490  -1.574  22.008  0.00  0.00    -0.387 OA
ATOM     31  H   UNL     1      10.789  -2.353  22.505  0.00  0.00    +0.210 HD
ENDBRANCH   2  30
TORSDOF 5
ENDMDL
MODEL 7
REMARK VINA RESULT:      -6.2      2.223      5.435
REMARK  Name = 
REMARK  8 active torsions:
REMARK  status: ('A' for Active; 'I' for Inactive)
REMARK    1  A    between atoms: C_9  and  C_11
REMARK    2  A    between atoms: C_13  and  O_14
REMARK    3  A    between atoms: O_14  and  C_15
REMARK    4  A    between atoms: C_16  and  O_17
REMARK    5  A    between atoms: O_17  and  C_18
REMARK    6  A    between atoms: C_19  and  O_20
REMARK    7  A    between atoms: O_20  and  C_21
REMARK    8  A    between atoms: C_32  and  O_34
REMARK                            x       y       z     vdW  Elec       q    Type
REMARK                         _______ _______ _______ _____ _____    ______ ____
ROOT
ATOM      1  C   UNL     1       4.963  -2.215  26.539  0.00  0.00    +0.074 C 
ATOM      2  C   UNL     1       5.471  -3.611  26.265  0.00  0.00    +0.152 C 
ATOM      3  C   UNL     1       5.692  -3.777  24.766  0.00  0.00    -0.011 A 
ATOM      4  C   UNL     1       5.784  -2.636  23.898  0.00  0.00    -0.030 A 
ATOM      5  C   UNL     1       5.870  -2.836  22.502  0.00  0.00    +0.054 A 
ATOM      6  C   UNL     1       5.961  -4.123  22.023  0.00  0.00    +0.167 A 
ATOM      7  O   UNL     1       6.080  -4.481  20.716  0.00  0.00    -0.453 OA
ATOM      8  C   UNL     1       6.083  -5.919  20.828  0.00  0.00    +0.466 C 
ATOM      9  O   UNL     1       6.084  -6.386  22.194  0.00  0.00    -0.453 OA
ATOM     10  C   UNL     1       5.962  -5.207  22.862  0.00  0.00    +0.167 A 
ATOM     11  C   UNL     1       5.783  -1.182  24.446  0.00  0.00    +0.064 C 
ATOM     12  C   UNL     1       5.836  -5.071  24.227  0.00  0.00    +0.056 A 
ATOM     13  C   UNL     1       5.914  -1.182  25.974  0.00  0.00    +0.118 C 
ATOM     14  C   UNL     1       5.429   0.026  26.726  0.00  0.00    +0.312 C 
ATOM     15  O   UNL     1       5.538   1.192  26.390  0.00  0.00    -0.250 OA
ATOM     16  O   UNL     1       4.878  -0.370  27.920  0.00  0.00    -0.464 OA
ATOM     17  C   UNL     1       4.846  -1.804  27.981  0.00  0.00    +0.239 C 
ENDROOT
BRANCH  11  18
ATOM     18  C   UNL     1       6.859  -0.295  23.810  0.00  0.00    -0.032 A 
ATOM     19  C   UNL     1       8.217  -0.568  24.031  0.00  0.00    +0.054 A 
ATOM     20  C   UNL     1       9.229   0.254  23.508  0.00  0.00    +0.165 A 
ATOM     21  C   UNL     1       8.883   1.423  22.807  0.00  0.00    +0.204 A 
ATOM     22  C   UNL     1       7.520   1.691  22.552  0.00  0.00    +0.165 A 
ATOM     23  C   UNL     1       6.531   0.819  23.025  0.00  0.00    +0.054 A 
BRANCH  20  24
ATOM     24  O   UNL     1      10.553  -0.045  23.707  0.00  0.00    -0.491 OA
ATOM     25  C   UNL     1      11.116   0.447  24.922  0.00  0.00    +0.277 C 
ENDBRANCH  20  24
BRANCH  21  26
ATOM     26  O   UNL     1       9.765   2.319  22.248  0.00  0.00    -0.488 OA
ATOM     27  C   UNL     1      10.336   3.307  23.096  0.00  0.00    +0.277 C 
ENDBRANCH  21  26
BRANCH  22  28
ATOM     28  O   UNL     1       7.236   2.859  21.880  0.00  0.00    -0.491 OA
ATOM     29  C   UNL     1       6.555   3.875  22.606  0.00  0.00    +0.277 C 
ENDBRANCH  22  28
ENDBRANCH  11  18
BRANCH   2  30
ATOM     30  O   UNL     1       4.482  -4.500  26.773  0.00  0.00    -0.387 OA
ATOM     31  H   UNL     1       3.912  -4.015  27.393  0.00  0.00    +0.210 HD
ENDBRANCH   2  30
TORSDOF 5
ENDMDL
MODEL 8
REMARK VINA RESULT:      -6.2      1.786      6.440
REMARK  Name = 
REMARK  8 active torsions:
REMARK  status: ('A' for Active; 'I' for Inactive)
REMARK    1  A    between atoms: C_9  and  C_11
REMARK    2  A    between atoms: C_13  and  O_14
REMARK    3  A    between atoms: O_14  and  C_15
REMARK    4  A    between atoms: C_16  and  O_17
REMARK    5  A    between atoms: O_17  and  C_18
REMARK    6  A    between atoms: C_19  and  O_20
REMARK    7  A    between atoms: O_20  and  C_21
REMARK    8  A    between atoms: C_32  and  O_34
REMARK                            x       y       z     vdW  Elec       q    Type
REMARK                         _______ _______ _______ _____ _____    ______ ____
ROOT
ATOM      1  C   UNL     1       8.486  -0.723  24.038  0.00  0.00    +0.074 C 
ATOM      2  C   UNL     1       8.640  -0.262  25.468  0.00  0.00    +0.152 C 
ATOM      3  C   UNL     1       7.287  -0.335  26.165  0.00  0.00    -0.011 A 
ATOM      4  C   UNL     1       6.210  -1.113  25.617  0.00  0.00    -0.030 A 
ATOM      5  C   UNL     1       4.939  -1.059  26.231  0.00  0.00    +0.054 A 
ATOM      6  C   UNL     1       4.795  -0.337  27.394  0.00  0.00    +0.167 A 
ATOM      7  O   UNL     1       3.652  -0.212  28.118  0.00  0.00    -0.453 OA
ATOM      8  C   UNL     1       4.092   0.672  29.170  0.00  0.00    +0.466 C 
ATOM      9  O   UNL     1       5.506   0.961  29.118  0.00  0.00    -0.453 OA
ATOM     10  C   UNL     1       5.848   0.332  27.962  0.00  0.00    +0.167 A 
ATOM     11  C   UNL     1       6.396  -2.008  24.361  0.00  0.00    +0.064 C 
ATOM     12  C   UNL     1       7.098   0.348  27.383  0.00  0.00    +0.056 A 
ATOM     13  C   UNL     1       7.881  -2.109  23.987  0.00  0.00    +0.118 C 
ATOM     14  C   UNL     1       8.230  -2.471  22.571  0.00  0.00    +0.312 C 
ATOM     15  O   UNL     1       7.659  -3.276  21.856  0.00  0.00    -0.250 OA
ATOM     16  O   UNL     1       9.363  -1.791  22.192  0.00  0.00    -0.464 OA
ATOM     17  C   UNL     1       9.747  -0.883  23.233  0.00  0.00    +0.239 C 
ENDROOT
BRANCH  11  18
ATOM     18  C   UNL     1       5.780  -3.403  24.514  0.00  0.00    -0.032 A 
ATOM     19  C   UNL     1       6.262  -4.280  25.497  0.00  0.00    +0.054 A 
ATOM     20  C   UNL     1       5.757  -5.584  25.633  0.00  0.00    +0.165 A 
ATOM     21  C   UNL     1       4.799  -6.057  24.719  0.00  0.00    +0.204 A 
ATOM     22  C   UNL     1       4.284  -5.173  23.745  0.00  0.00    +0.165 A 
ATOM     23  C   UNL     1       4.754  -3.855  23.674  0.00  0.00    +0.054 A 
BRANCH  20  24
ATOM     24  O   UNL     1       6.217  -6.419  26.620  0.00  0.00    -0.491 OA
ATOM     25  C   UNL     1       6.098  -5.919  27.950  0.00  0.00    +0.277 C 
ENDBRANCH  20  24
BRANCH  21  26
ATOM     26  O   UNL     1       4.225  -7.308  24.728  0.00  0.00    -0.488 OA
ATOM     27  C   UNL     1       3.163  -7.546  25.643  0.00  0.00    +0.277 C 
ENDBRANCH  21  26
BRANCH  22  28
ATOM     28  O   UNL     1       3.364  -5.693  22.863  0.00  0.00    -0.491 OA
ATOM     29  C   UNL     1       1.996  -5.385  23.097  0.00  0.00    +0.277 C 
ENDBRANCH  22  28
ENDBRANCH  11  18
BRANCH   2  30
ATOM     30  O   UNL     1       9.150   1.066  25.404  0.00  0.00    -0.387 OA
ATOM     31  H   UNL     1       9.455   1.328  26.288  0.00  0.00    +0.210 HD
ENDBRANCH   2  30
TORSDOF 5
ENDMDL
MODEL 9
REMARK VINA RESULT:      -6.1      2.172      4.985
REMARK  Name = 
REMARK  8 active torsions:
REMARK  status: ('A' for Active; 'I' for Inactive)
REMARK    1  A    between atoms: C_9  and  C_11
REMARK    2  A    between atoms: C_13  and  O_14
REMARK    3  A    between atoms: O_14  and  C_15
REMARK    4  A    between atoms: C_16  and  O_17
REMARK    5  A    between atoms: O_17  and  C_18
REMARK    6  A    between atoms: C_19  and  O_20
REMARK    7  A    between atoms: O_20  and  C_21
REMARK    8  A    between atoms: C_32  and  O_34
REMARK                            x       y       z     vdW  Elec       q    Type
REMARK                         _______ _______ _______ _____ _____    ______ ____
ROOT
ATOM      1  C   UNL     1       4.749  -2.602  26.797  0.00  0.00    +0.074 C 
ATOM      2  C   UNL     1       5.281  -3.971  26.445  0.00  0.00    +0.152 C 
ATOM      3  C   UNL     1       5.544  -4.035  24.945  0.00  0.00    -0.011 A 
ATOM      4  C   UNL     1       5.645  -2.838  24.158  0.00  0.00    -0.030 A 
ATOM      5  C   UNL     1       5.772  -2.945  22.755  0.00  0.00    +0.054 A 
ATOM      6  C   UNL     1       5.892  -4.196  22.194  0.00  0.00    +0.167 A 
ATOM      7  O   UNL     1       6.050  -4.465  20.871  0.00  0.00    -0.453 OA
ATOM      8  C   UNL     1       6.068  -5.907  20.887  0.00  0.00    +0.466 C 
ATOM      9  O   UNL     1       6.037  -6.463  22.219  0.00  0.00    -0.453 OA
ATOM     10  C   UNL     1       5.883  -5.333  22.959  0.00  0.00    +0.167 A 
ATOM     11  C   UNL     1       5.612  -1.424  24.800  0.00  0.00    +0.064 C 
ATOM     12  C   UNL     1       5.719  -5.289  24.326  0.00  0.00    +0.056 A 
ATOM     13  C   UNL     1       5.702  -1.524  26.328  0.00  0.00    +0.118 C 
ATOM     14  C   UNL     1       5.181  -0.374  27.144  0.00  0.00    +0.312 C 
ATOM     15  O   UNL     1       5.285   0.814  26.889  0.00  0.00    -0.250 OA
ATOM     16  O   UNL     1       4.603  -0.854  28.294  0.00  0.00    -0.464 OA
ATOM     17  C   UNL     1       4.588  -2.288  28.259  0.00  0.00    +0.239 C 
ENDROOT
BRANCH  11  18
ATOM     18  C   UNL     1       6.694  -0.485  24.254  0.00  0.00    -0.032 A 
ATOM     19  C   UNL     1       6.340   0.768  23.733  0.00  0.00    +0.054 A 
ATOM     20  C   UNL     1       7.298   1.633  23.177  0.00  0.00    +0.165 A 
ATOM     21  C   UNL     1       8.636   1.210  23.067  0.00  0.00    +0.204 A 
ATOM     22  C   UNL     1       9.008  -0.037  23.617  0.00  0.00    +0.165 A 
ATOM     23  C   UNL     1       8.046  -0.851  24.229  0.00  0.00    +0.054 A 
BRANCH  20  24
ATOM     24  O   UNL     1       6.941   2.868  22.700  0.00  0.00    -0.491 OA
ATOM     25  C   UNL     1       5.538   3.099  22.590  0.00  0.00    +0.277 C 
ENDBRANCH  20  24
BRANCH  21  26
ATOM     26  O   UNL     1       9.673   1.946  22.541  0.00  0.00    -0.488 OA
ATOM     27  C   UNL     1      10.243   2.964  23.352  0.00  0.00    +0.277 C 
ENDBRANCH  21  26
BRANCH  22  28
ATOM     28  O   UNL     1      10.324  -0.410  23.464  0.00  0.00    -0.491 OA
ATOM     29  C   UNL     1      10.589  -1.516  22.611  0.00  0.00    +0.277 C 
ENDBRANCH  22  28
ENDBRANCH  11  18
BRANCH   2  30
ATOM     30  O   UNL     1       4.289  -4.902  26.866  0.00  0.00    -0.387 OA
ATOM     31  H   UNL     1       3.912  -5.335  26.083  0.00  0.00    +0.210 HD
ENDBRANCH   2  30
TORSDOF 5
ENDMDL
