MODEL 1
REMARK VINA RESULT:      -4.6      0.000      0.000
REMARK  Name = 
REMARK  7 active torsions:
REMARK  status: ('A' for Active; 'I' for Inactive)
REMARK    1  A    between atoms: O_1  and  C_2
REMARK    2  A    between atoms: C_2  and  C_4
REMARK    3  A    between atoms: C_2  and  C_10
REMARK    4  A    between atoms: C_4  and  C_5
REMARK    5  A    between atoms: C_5  and  C_7
REMARK    6  A    between atoms: C_10  and  O_12
REMARK    7  A    between atoms: C_10  and  C_13
REMARK                            x       y       z     vdW  Elec       q    Type
REMARK                         _______ _______ _______ _____ _____    ______ ____
ROOT
ATOM      1  C   UNL     1       7.071  -5.062  26.770  0.00  0.00    +0.156 C 
ENDROOT
BRANCH   1   2
ATOM      2  O   UNL     1       8.221  -5.761  27.333  0.00  0.00    -0.388 OA
ATOM      3  H   UNL     1       8.451  -6.425  26.645  0.00  0.00    +0.210 HD
ENDBRANCH   1   2
BRANCH   1   4
ATOM      4  C   UNL     1       5.831  -5.742  27.368  0.00  0.00    +0.189 C 
BRANCH   4   5
ATOM      5  C   UNL     1       6.068  -6.343  28.780  0.00  0.00    +0.073 C 
ATOM      6  O   UNL     1       6.095  -7.611  28.829  0.00  0.00    -0.547 OA
ATOM      7  O   UNL     1       6.186  -5.517  29.733  0.00  0.00    -0.547 OA
ENDBRANCH   4   5
BRANCH   4   8
ATOM      8  O   UNL     1       5.407  -6.782  26.428  0.00  0.00    -0.383 OA
ATOM      9  H   UNL     1       5.466  -7.593  26.970  0.00  0.00    +0.210 HD
ENDBRANCH   4   8
ENDBRANCH   1   4
BRANCH   1  10
ATOM     10  C   UNL     1       7.128  -5.120  25.238  0.00  0.00    +0.115 C 
BRANCH  10  11
ATOM     11  C   UNL     1       8.526  -4.836  24.727  0.00  0.00    +0.181 C 
ATOM     12  O   UNL     1       9.382  -5.715  24.565  0.00  0.00    -0.291 OA
BRANCH  11  13
ATOM     13  C   UNL     1       8.882  -3.410  24.286  0.00  0.00    +0.107 C 
ATOM     14  O   UNL     1       7.945  -2.544  24.253  0.00  0.00    -0.542 OA
ATOM     15  O   UNL     1      10.105  -3.200  24.011  0.00  0.00    -0.542 OA
ENDBRANCH  11  13
ENDBRANCH  10  11
ENDBRANCH   1  10
TORSDOF 7
ENDMDL
MODEL 2
REMARK VINA RESULT:      -4.6      4.232      7.317
REMARK  Name = 
REMARK  7 active torsions:
REMARK  status: ('A' for Active; 'I' for Inactive)
REMARK    1  A    between atoms: O_1  and  C_2
REMARK    2  A    between atoms: C_2  and  C_4
REMARK    3  A    between atoms: C_2  and  C_10
REMARK    4  A    between atoms: C_4  and  C_5
REMARK    5  A    between atoms: C_5  and  C_7
REMARK    6  A    between atoms: C_10  and  O_12
REMARK    7  A    between atoms: C_10  and  C_13
REMARK                            x       y       z     vdW  Elec       q    Type
REMARK                         _______ _______ _______ _____ _____    ______ ____
ROOT
ATOM      1  C   UNL     1       9.225  -0.361  21.556  0.00  0.00    +0.156 C 
ENDROOT
BRANCH   1   2
ATOM      2  O   UNL     1      10.235  -1.409  21.451  0.00  0.00    -0.388 OA
ATOM      3  H   UNL     1      10.226  -1.648  20.498  0.00  0.00    +0.210 HD
ENDBRANCH   1   2
BRANCH   1   4
ATOM      4  C   UNL     1       9.987   0.923  21.916  0.00  0.00    +0.189 C 
BRANCH   4   5
ATOM      5  C   UNL     1      10.226   1.102  23.440  0.00  0.00    +0.073 C 
ATOM      6  O   UNL     1       9.627   2.089  23.968  0.00  0.00    -0.547 OA
ATOM      7  O   UNL     1      11.003   0.269  23.992  0.00  0.00    -0.547 OA
ENDBRANCH   4   5
BRANCH   4   8
ATOM      8  O   UNL     1       9.223   2.050  21.377  0.00  0.00    -0.383 OA
ATOM      9  H   UNL     1       9.719   2.270  20.563  0.00  0.00    +0.210 HD
ENDBRANCH   4   8
ENDBRANCH   1   4
BRANCH   1  10
ATOM     10  C   UNL     1       8.167  -0.762  22.592  0.00  0.00    +0.115 C 
BRANCH  10  11
ATOM     11  C   UNL     1       8.245  -2.241  22.916  0.00  0.00    +0.181 C 
ATOM     12  O   UNL     1       7.781  -3.122  22.182  0.00  0.00    -0.291 OA
BRANCH  11  13
ATOM     13  C   UNL     1       9.025  -2.690  24.159  0.00  0.00    +0.107 C 
ATOM     14  O   UNL     1       8.435  -2.626  25.289  0.00  0.00    -0.542 OA
ATOM     15  O   UNL     1      10.203  -3.119  23.954  0.00  0.00    -0.542 OA
ENDBRANCH  11  13
ENDBRANCH  10  11
ENDBRANCH   1  10
TORSDOF 7
ENDMDL
MODEL 3
REMARK VINA RESULT:      -4.5      5.020      8.332
REMARK  Name = 
REMARK  7 active torsions:
REMARK  status: ('A' for Active; 'I' for Inactive)
REMARK    1  A    between atoms: O_1  and  C_2
REMARK    2  A    between atoms: C_2  and  C_4
REMARK    3  A    between atoms: C_2  and  C_10
REMARK    4  A    between atoms: C_4  and  C_5
REMARK    5  A    between atoms: C_5  and  C_7
REMARK    6  A    between atoms: C_10  and  O_12
REMARK    7  A    between atoms: C_10  and  C_13
REMARK                            x       y       z     vdW  Elec       q    Type
REMARK                         _______ _______ _______ _____ _____    ______ ____
ROOT
ATOM      1  C   UNL     1       9.457   1.149  22.536  0.00  0.00    +0.156 C 
ENDROOT
BRANCH   1   2
ATOM      2  O   UNL     1       9.688   2.084  21.441  0.00  0.00    -0.388 OA
ATOM      3  H   UNL     1      10.525   2.536  21.692  0.00  0.00    +0.210 HD
ENDBRANCH   1   2
BRANCH   1   4
ATOM      4  C   UNL     1       9.853   1.895  23.818  0.00  0.00    +0.189 C 
BRANCH   4   5
ATOM      5  C   UNL     1      10.237   3.381  23.583  0.00  0.00    +0.073 C 
ATOM      6  O   UNL     1       9.266   4.198  23.599  0.00  0.00    -0.547 OA
ATOM      7  O   UNL     1      11.463   3.622  23.380  0.00  0.00    -0.547 OA
ENDBRANCH   4   5
BRANCH   4   8
ATOM      8  O   UNL     1      10.967   1.162  24.423  0.00  0.00    -0.383 OA
ATOM      9  H   UNL     1      11.275   0.599  23.686  0.00  0.00    +0.210 HD
ENDBRANCH   4   8
ENDBRANCH   1   4
BRANCH   1  10
ATOM     10  C   UNL     1      10.258  -0.137  22.297  0.00  0.00    +0.115 C 
BRANCH  10  11
ATOM     11  C   UNL     1       9.444  -1.368  22.644  0.00  0.00    +0.181 C 
ATOM     12  O   UNL     1       8.673  -1.917  21.848  0.00  0.00    -0.291 OA
BRANCH  11  13
ATOM     13  C   UNL     1       9.653  -2.038  24.008  0.00  0.00    +0.107 C 
ATOM     14  O   UNL     1       9.329  -1.380  25.052  0.00  0.00    -0.542 OA
ATOM     15  O   UNL     1      10.115  -3.221  23.984  0.00  0.00    -0.542 OA
ENDBRANCH  11  13
ENDBRANCH  10  11
ENDBRANCH   1  10
TORSDOF 7
ENDMDL
MODEL 4
REMARK VINA RESULT:      -4.4      6.088      8.322
REMARK  Name = 
REMARK  7 active torsions:
REMARK  status: ('A' for Active; 'I' for Inactive)
REMARK    1  A    between atoms: O_1  and  C_2
REMARK    2  A    between atoms: C_2  and  C_4
REMARK    3  A    between atoms: C_2  and  C_10
REMARK    4  A    between atoms: C_4  and  C_5
REMARK    5  A    between atoms: C_5  and  C_7
REMARK    6  A    between atoms: C_10  and  O_12
REMARK    7  A    between atoms: C_10  and  C_13
REMARK                            x       y       z     vdW  Elec       q    Type
REMARK                         _______ _______ _______ _____ _____    ______ ____
ROOT
ATOM      1  C   UNL     1       9.507   2.095  24.148  0.00  0.00    +0.156 C 
ENDROOT
BRANCH   1   2
ATOM      2  O   UNL     1       8.260   1.374  24.381  0.00  0.00    -0.388 OA
ATOM      3  H   UNL     1       7.610   1.842  23.811  0.00  0.00    +0.210 HD
ENDBRANCH   1   2
BRANCH   1   4
ATOM      4  C   UNL     1       9.278   2.935  22.884  0.00  0.00    +0.189 C 
BRANCH   4   5
ATOM      5  C   UNL     1       7.815   2.894  22.363  0.00  0.00    +0.073 C 
ATOM      6  O   UNL     1       7.581   2.008  21.485  0.00  0.00    -0.547 OA
ATOM      7  O   UNL     1       7.020   3.754  22.843  0.00  0.00    -0.547 OA
ENDBRANCH   4   5
BRANCH   4   8
ATOM      8  O   UNL     1      10.205   2.449  21.861  0.00  0.00    -0.383 OA
ATOM      9  H   UNL     1       9.601   2.152  21.152  0.00  0.00    +0.210 HD
ENDBRANCH   4   8
ENDBRANCH   1   4
BRANCH   1  10
ATOM     10  C   UNL     1      10.666   1.097  24.024  0.00  0.00    +0.115 C 
BRANCH  10  11
ATOM     11  C   UNL     1      10.161  -0.330  23.948  0.00  0.00    +0.181 C 
ATOM     12  O   UNL     1       9.656  -0.923  24.909  0.00  0.00    -0.291 OA
BRANCH  11  13
ATOM     13  C   UNL     1      10.174  -1.053  22.595  0.00  0.00    +0.107 C 
ATOM     14  O   UNL     1       9.818  -0.393  21.562  0.00  0.00    -0.542 OA
ATOM     15  O   UNL     1      10.568  -2.260  22.611  0.00  0.00    -0.542 OA
ENDBRANCH  11  13
ENDBRANCH  10  11
ENDBRANCH   1  10
TORSDOF 7
ENDMDL
MODEL 5
REMARK VINA RESULT:      -4.4      2.138      3.910
REMARK  Name = 
REMARK  7 active torsions:
REMARK  status: ('A' for Active; 'I' for Inactive)
REMARK    1  A    between atoms: O_1  and  C_2
REMARK    2  A    between atoms: C_2  and  C_4
REMARK    3  A    between atoms: C_2  and  C_10
REMARK    4  A    between atoms: C_4  and  C_5
REMARK    5  A    between atoms: C_5  and  C_7
REMARK    6  A    between atoms: C_10  and  O_12
REMARK    7  A    between atoms: C_10  and  C_13
REMARK                            x       y       z     vdW  Elec       q    Type
REMARK                         _______ _______ _______ _____ _____    ______ ____
ROOT
ATOM      1  C   UNL     1       8.401  -4.031  23.978  0.00  0.00    +0.156 C 
ENDROOT
BRANCH   1   2
ATOM      2  O   UNL     1       7.168  -3.529  24.577  0.00  0.00    -0.388 OA
ATOM      3  H   UNL     1       6.654  -4.344  24.772  0.00  0.00    +0.210 HD
ENDBRANCH   1   2
BRANCH   1   4
ATOM      4  C   UNL     1       8.867  -5.182  24.880  0.00  0.00    +0.189 C 
BRANCH   4   5
ATOM      5  C   UNL     1       8.264  -5.141  26.310  0.00  0.00    +0.073 C 
ATOM      6  O   UNL     1       8.804  -4.306  27.100  0.00  0.00    -0.547 OA
ATOM      7  O   UNL     1       7.321  -5.951  26.549  0.00  0.00    -0.547 OA
ENDBRANCH   4   5
BRANCH   4   8
ATOM      8  O   UNL     1      10.330  -5.130  24.934  0.00  0.00    -0.383 OA
ATOM      9  H   UNL     1      10.495  -4.262  25.353  0.00  0.00    +0.210 HD
ENDBRANCH   4   8
ENDBRANCH   1   4
BRANCH   1  10
ATOM     10  C   UNL     1       9.419  -2.890  23.856  0.00  0.00    +0.115 C 
BRANCH  10  11
ATOM     11  C   UNL     1       9.053  -1.942  22.732  0.00  0.00    +0.181 C 
ATOM     12  O   UNL     1       8.052  -2.087  22.020  0.00  0.00    -0.291 OA
BRANCH  11  13
ATOM     13  C   UNL     1       9.897  -0.678  22.521  0.00  0.00    +0.107 C 
ATOM     14  O   UNL     1       9.795  -0.073  21.401  0.00  0.00    -0.542 OA
ATOM     15  O   UNL     1      10.619  -0.319  23.502  0.00  0.00    -0.542 OA
ENDBRANCH  11  13
ENDBRANCH  10  11
ENDBRANCH   1  10
TORSDOF 7
ENDMDL
MODEL 6
REMARK VINA RESULT:      -4.4      1.899      3.106
REMARK  Name = 
REMARK  7 active torsions:
REMARK  status: ('A' for Active; 'I' for Inactive)
REMARK    1  A    between atoms: O_1  and  C_2
REMARK    2  A    between atoms: C_2  and  C_4
REMARK    3  A    between atoms: C_2  and  C_10
REMARK    4  A    between atoms: C_4  and  C_5
REMARK    5  A    between atoms: C_5  and  C_7
REMARK    6  A    between atoms: C_10  and  O_12
REMARK    7  A    between atoms: C_10  and  C_13
REMARK                            x       y       z     vdW  Elec       q    Type
REMARK                         _______ _______ _______ _____ _____    ______ ____
ROOT
ATOM      1  C   UNL     1       7.180  -4.866  24.376  0.00  0.00    +0.156 C 
ENDROOT
BRANCH   1   2
ATOM      2  O   UNL     1       6.671  -3.764  25.184  0.00  0.00    -0.388 OA
ATOM      3  H   UNL     1       7.201  -3.814  26.011  0.00  0.00    +0.210 HD
ENDBRANCH   1   2
BRANCH   1   4
ATOM      4  C   UNL     1       8.146  -5.641  25.284  0.00  0.00    +0.189 C 
BRANCH   4   5
ATOM      5  C   UNL     1       8.246  -5.069  26.724  0.00  0.00    +0.073 C 
ATOM      6  O   UNL     1       7.522  -5.653  27.588  0.00  0.00    -0.547 OA
ATOM      7  O   UNL     1       9.014  -4.075  26.885  0.00  0.00    -0.547 OA
ENDBRANCH   4   5
BRANCH   4   8
ATOM      8  O   UNL     1       9.457  -5.636  24.633  0.00  0.00    -0.383 OA
ATOM      9  H   UNL     1       9.793  -6.533  24.826  0.00  0.00    +0.210 HD
ENDBRANCH   4   8
ENDBRANCH   1   4
BRANCH   1  10
ATOM     10  C   UNL     1       7.836  -4.316  23.104  0.00  0.00    +0.115 C 
BRANCH  10  11
ATOM     11  C   UNL     1       8.004  -2.812  23.175  0.00  0.00    +0.181 C 
ATOM     12  O   UNL     1       7.064  -2.017  23.050  0.00  0.00    -0.291 OA
BRANCH  11  13
ATOM     13  C   UNL     1       9.382  -2.233  23.521  0.00  0.00    +0.107 C 
ATOM     14  O   UNL     1       9.541  -0.970  23.422  0.00  0.00    -0.542 OA
ATOM     15  O   UNL     1      10.258  -3.068  23.907  0.00  0.00    -0.542 OA
ENDBRANCH  11  13
ENDBRANCH  10  11
ENDBRANCH   1  10
TORSDOF 7
ENDMDL
MODEL 7
REMARK VINA RESULT:      -4.4      4.841      7.063
REMARK  Name = 
REMARK  7 active torsions:
REMARK  status: ('A' for Active; 'I' for Inactive)
REMARK    1  A    between atoms: O_1  and  C_2
REMARK    2  A    between atoms: C_2  and  C_4
REMARK    3  A    between atoms: C_2  and  C_10
REMARK    4  A    between atoms: C_4  and  C_5
REMARK    5  A    between atoms: C_5  and  C_7
REMARK    6  A    between atoms: C_10  and  O_12
REMARK    7  A    between atoms: C_10  and  C_13
REMARK                            x       y       z     vdW  Elec       q    Type
REMARK                         _______ _______ _______ _____ _____    ______ ____
ROOT
ATOM      1  C   UNL     1       8.631  -0.136  22.160  0.00  0.00    +0.156 C 
ENDROOT
BRANCH   1   2
ATOM      2  O   UNL     1       8.112  -0.044  23.521  0.00  0.00    -0.388 OA
ATOM      3  H   UNL     1       7.269  -0.549  23.485  0.00  0.00    +0.210 HD
ENDBRANCH   1   2
BRANCH   1   4
ATOM      4  C   UNL     1       9.063  -1.597  21.973  0.00  0.00    +0.189 C 
BRANCH   4   5
ATOM      5  C   UNL     1       8.809  -2.489  23.218  0.00  0.00    +0.073 C 
ATOM      6  O   UNL     1       7.650  -3.002  23.286  0.00  0.00    -0.547 OA
ATOM      7  O   UNL     1       9.764  -2.595  24.041  0.00  0.00    -0.547 OA
ENDBRANCH   4   5
BRANCH   4   8
ATOM      8  O   UNL     1      10.485  -1.590  21.623  0.00  0.00    -0.383 OA
ATOM      9  H   UNL     1      10.466  -1.419  20.661  0.00  0.00    +0.210 HD
ENDBRANCH   4   8
ENDBRANCH   1   4
BRANCH   1  10
ATOM     10  C   UNL     1       9.769   0.875  21.971  0.00  0.00    +0.115 C 
BRANCH  10  11
ATOM     11  C   UNL     1      10.364   1.293  23.300  0.00  0.00    +0.181 C 
ATOM     12  O   UNL     1      10.994   0.522  24.034  0.00  0.00    -0.291 OA
BRANCH  11  13
ATOM     13  C   UNL     1      10.278   2.765  23.724  0.00  0.00    +0.107 C 
ATOM     14  O   UNL     1       9.270   3.129  24.418  0.00  0.00    -0.542 OA
ATOM     15  O   UNL     1      11.244   3.507  23.365  0.00  0.00    -0.542 OA
ENDBRANCH  11  13
ENDBRANCH  10  11
ENDBRANCH   1  10
TORSDOF 7
ENDMDL
MODEL 8
REMARK VINA RESULT:      -4.4      5.845      8.927
REMARK  Name = 
REMARK  7 active torsions:
REMARK  status: ('A' for Active; 'I' for Inactive)
REMARK    1  A    between atoms: O_1  and  C_2
REMARK    2  A    between atoms: C_2  and  C_4
REMARK    3  A    between atoms: C_2  and  C_10
REMARK    4  A    between atoms: C_4  and  C_5
REMARK    5  A    between atoms: C_5  and  C_7
REMARK    6  A    between atoms: C_10  and  O_12
REMARK    7  A    between atoms: C_10  and  C_13
REMARK                            x       y       z     vdW  Elec       q    Type
REMARK                         _______ _______ _______ _____ _____    ______ ____
ROOT
ATOM      1  C   UNL     1       9.884   1.936  24.166  0.00  0.00    +0.156 C 
ENDROOT
BRANCH   1   2
ATOM      2  O   UNL     1       8.602   1.853  23.474  0.00  0.00    -0.388 OA
ATOM      3  H   UNL     1       7.984   2.336  24.066  0.00  0.00    +0.210 HD
ENDBRANCH   1   2
BRANCH   1   4
ATOM      4  C   UNL     1      10.848   2.620  23.187  0.00  0.00    +0.189 C 
BRANCH   4   5
ATOM      5  C   UNL     1      11.049   4.135  23.462  0.00  0.00    +0.073 C 
ATOM      6  O   UNL     1       9.994   4.773  23.764  0.00  0.00    -0.547 OA
ATOM      7  O   UNL     1      12.227   4.580  23.337  0.00  0.00    -0.547 OA
ENDBRANCH   4   5
BRANCH   4   8
ATOM      8  O   UNL     1      10.324   2.405  21.836  0.00  0.00    -0.383 OA
ATOM      9  H   UNL     1      10.829   1.625  21.535  0.00  0.00    +0.210 HD
ENDBRANCH   4   8
ENDBRANCH   1   4
BRANCH   1  10
ATOM     10  C   UNL     1      10.332   0.534  24.596  0.00  0.00    +0.115 C 
BRANCH  10  11
ATOM     11  C   UNL     1       9.525  -0.542  23.897  0.00  0.00    +0.181 C 
ATOM     12  O   UNL     1       8.431  -0.947  24.310  0.00  0.00    -0.291 OA
BRANCH  11  13
ATOM     13  C   UNL     1      10.026  -1.094  22.556  0.00  0.00    +0.107 C 
ATOM     14  O   UNL     1      10.671  -2.196  22.567  0.00  0.00    -0.542 OA
ATOM     15  O   UNL     1       9.730  -0.411  21.527  0.00  0.00    -0.542 OA
ENDBRANCH  11  13
ENDBRANCH  10  11
ENDBRANCH   1  10
TORSDOF 7
ENDMDL
MODEL 9
REMARK VINA RESULT:      -4.4      3.894      4.761
REMARK  Name = 
REMARK  7 active torsions:
REMARK  status: ('A' for Active; 'I' for Inactive)
REMARK    1  A    between atoms: O_1  and  C_2
REMARK    2  A    between atoms: C_2  and  C_4
REMARK    3  A    between atoms: C_2  and  C_10
REMARK    4  A    between atoms: C_4  and  C_5
REMARK    5  A    between atoms: C_5  and  C_7
REMARK    6  A    between atoms: C_10  and  O_12
REMARK    7  A    between atoms: C_10  and  C_13
REMARK                            x       y       z     vdW  Elec       q    Type
REMARK                         _______ _______ _______ _____ _____    ______ ____
ROOT
ATOM      1  C   UNL     1       6.971  -3.774  24.179  0.00  0.00    +0.156 C 
ENDROOT
BRANCH   1   2
ATOM      2  O   UNL     1       7.647  -4.614  23.196  0.00  0.00    -0.388 OA
ATOM      3  H   UNL     1       7.147  -4.452  22.366  0.00  0.00    +0.210 HD
ENDBRANCH   1   2
BRANCH   1   4
ATOM      4  C   UNL     1       5.688  -3.278  23.496  0.00  0.00    +0.189 C 
BRANCH   4   5
ATOM      5  C   UNL     1       5.316  -4.071  22.213  0.00  0.00    +0.073 C 
ATOM      6  O   UNL     1       4.713  -5.169  22.414  0.00  0.00    -0.547 OA
ATOM      7  O   UNL     1       5.667  -3.558  21.111  0.00  0.00    -0.547 OA
ENDBRANCH   4   5
BRANCH   4   8
ATOM      8  O   UNL     1       5.878  -1.858  23.190  0.00  0.00    -0.383 OA
ATOM      9  H   UNL     1       4.963  -1.554  23.026  0.00  0.00    +0.210 HD
ENDBRANCH   4   8
ENDBRANCH   1   4
BRANCH   1  10
ATOM     10  C   UNL     1       7.907  -2.646  24.629  0.00  0.00    +0.115 C 
BRANCH  10  11
ATOM     11  C   UNL     1       9.245  -2.723  23.920  0.00  0.00    +0.181 C 
ATOM     12  O   UNL     1      10.121  -3.546  24.212  0.00  0.00    -0.291 OA
BRANCH  11  13
ATOM     13  C   UNL     1       9.501  -1.811  22.713  0.00  0.00    +0.107 C 
ATOM     14  O   UNL     1       8.517  -1.141  22.252  0.00  0.00    -0.542 OA
ATOM     15  O   UNL     1      10.695  -1.779  22.281  0.00  0.00    -0.542 OA
ENDBRANCH  11  13
ENDBRANCH  10  11
ENDBRANCH   1  10
TORSDOF 7
ENDMDL
