MODEL 1
REMARK VINA RESULT:      -4.4      0.000      0.000
REMARK  Name = 
REMARK  9 active torsions:
REMARK  status: ('A' for Active; 'I' for Inactive)
REMARK    1  A    between atoms: O_1  and  C_2
REMARK    2  A    between atoms: C_2  and  C_4
REMARK    3  A    between atoms: C_4  and  C_5
REMARK    4  A    between atoms: C_5  and  O_6
REMARK    5  A    between atoms: C_5  and  C_7
REMARK    6  A    between atoms: C_5  and  C_11
REMARK    7  A    between atoms: C_7  and  C_8
REMARK    8  A    between atoms: C_8  and  O_9
REMARK    9  A    between atoms: C_11  and  O_12
REMARK                            x       y       z     vdW  Elec       q    Type
REMARK                         _______ _______ _______ _____ _____    ______ ____
ROOT
ATOM      1  C   UNL     1       9.589  -0.504  23.649  0.00  0.00    +0.182 C 
ENDROOT
BRANCH   1   2
ATOM      2  C   UNL     1      10.112  -1.809  23.054  0.00  0.00    +0.338 C 
ATOM      3  O   UNL     1      10.230  -2.853  23.684  0.00  0.00    -0.248 OA
BRANCH   2   4
ATOM      4  O   UNL     1      10.389  -1.704  21.732  0.00  0.00    -0.479 OA
ATOM      5  H   UNL     1       9.566  -1.426  21.264  0.00  0.00    +0.295 HD
ENDBRANCH   2   4
ENDBRANCH   1   2
BRANCH   1   6
ATOM      6  O   UNL     1      10.678   0.037  24.433  0.00  0.00    -0.376 OA
ATOM      7  H   UNL     1      11.369  -0.646  24.534  0.00  0.00    +0.211 HD
ENDBRANCH   1   6
BRANCH   1   8
ATOM      8  C   UNL     1       9.161   0.469  22.543  0.00  0.00    +0.167 C 
BRANCH   8   9
ATOM      9  C   UNL     1       9.677   1.881  22.689  0.00  0.00    +0.308 C 
ATOM     10  O   UNL     1       9.474   2.555  23.685  0.00  0.00    -0.251 OA
BRANCH   9  11
ATOM     11  O   UNL     1      10.317   2.373  21.608  0.00  0.00    -0.481 OA
ATOM     12  H   UNL     1      10.306   1.820  20.791  0.00  0.00    +0.295 HD
ENDBRANCH   9  11
ENDBRANCH   8   9
ENDBRANCH   1   8
BRANCH   1  13
ATOM     13  C   UNL     1       8.459  -0.830  24.629  0.00  0.00    +0.167 C 
BRANCH  13  14
ATOM     14  C   UNL     1       8.652  -0.251  26.001  0.00  0.00    +0.308 C 
ATOM     15  O   UNL     1       8.995  -0.866  26.995  0.00  0.00    -0.251 OA
BRANCH  14  16
ATOM     16  O   UNL     1       8.369   1.059  26.053  0.00  0.00    -0.481 OA
ATOM     17  H   UNL     1       7.388   1.109  26.064  0.00  0.00    +0.295 HD
ENDBRANCH  14  16
ENDBRANCH  13  14
ENDBRANCH   1  13
TORSDOF 9
ENDMDL
MODEL 2
REMARK VINA RESULT:      -4.3      1.251      3.685
REMARK  Name = 
REMARK  9 active torsions:
REMARK  status: ('A' for Active; 'I' for Inactive)
REMARK    1  A    between atoms: O_1  and  C_2
REMARK    2  A    between atoms: C_2  and  C_4
REMARK    3  A    between atoms: C_4  and  C_5
REMARK    4  A    between atoms: C_5  and  O_6
REMARK    5  A    between atoms: C_5  and  C_7
REMARK    6  A    between atoms: C_5  and  C_11
REMARK    7  A    between atoms: C_7  and  C_8
REMARK    8  A    between atoms: C_8  and  O_9
REMARK    9  A    between atoms: C_11  and  O_12
REMARK                            x       y       z     vdW  Elec       q    Type
REMARK                         _______ _______ _______ _____ _____    ______ ____
ROOT
ATOM      1  C   UNL     1       9.652  -0.280  23.437  0.00  0.00    +0.182 C 
ENDROOT
BRANCH   1   2
ATOM      2  C   UNL     1      10.099  -1.593  22.800  0.00  0.00    +0.338 C 
ATOM      3  O   UNL     1      10.323  -2.621  23.429  0.00  0.00    -0.248 OA
BRANCH   2   4
ATOM      4  O   UNL     1      10.176  -1.517  21.449  0.00  0.00    -0.479 OA
ATOM      5  H   UNL     1       9.780  -0.659  21.164  0.00  0.00    +0.295 HD
ENDBRANCH   2   4
ENDBRANCH   1   2
BRANCH   1   6
ATOM      6  O   UNL     1       8.210  -0.259  23.328  0.00  0.00    -0.376 OA
ATOM      7  H   UNL     1       7.913   0.664  23.203  0.00  0.00    +0.211 HD
ENDBRANCH   1   6
BRANCH   1   8
ATOM      8  C   UNL     1      10.102  -0.201  24.902  0.00  0.00    +0.167 C 
BRANCH   8   9
ATOM      9  C   UNL     1       9.013  -0.418  25.926  0.00  0.00    +0.308 C 
ATOM     10  O   UNL     1       8.683  -1.528  26.309  0.00  0.00    -0.251 OA
BRANCH   9  11
ATOM     11  O   UNL     1       8.378   0.700  26.335  0.00  0.00    -0.481 OA
ATOM     12  H   UNL     1       8.920   1.373  26.812  0.00  0.00    +0.295 HD
ENDBRANCH   9  11
ENDBRANCH   8   9
ENDBRANCH   1   8
BRANCH   1  13
ATOM     13  C   UNL     1      10.176   0.881  22.588  0.00  0.00    +0.167 C 
BRANCH  13  14
ATOM     14  C   UNL     1       9.098   1.706  21.947  0.00  0.00    +0.308 C 
ATOM     15  O   UNL     1       8.569   2.692  22.429  0.00  0.00    -0.251 OA
BRANCH  14  16
ATOM     16  O   UNL     1       8.721   1.224  20.753  0.00  0.00    -0.481 OA
ATOM     17  H   UNL     1       9.143   0.339  20.690  0.00  0.00    +0.295 HD
ENDBRANCH  14  16
ENDBRANCH  13  14
ENDBRANCH   1  13
TORSDOF 9
ENDMDL
MODEL 3
REMARK VINA RESULT:      -4.3      1.176      3.326
REMARK  Name = 
REMARK  9 active torsions:
REMARK  status: ('A' for Active; 'I' for Inactive)
REMARK    1  A    between atoms: O_1  and  C_2
REMARK    2  A    between atoms: C_2  and  C_4
REMARK    3  A    between atoms: C_4  and  C_5
REMARK    4  A    between atoms: C_5  and  O_6
REMARK    5  A    between atoms: C_5  and  C_7
REMARK    6  A    between atoms: C_5  and  C_11
REMARK    7  A    between atoms: C_7  and  C_8
REMARK    8  A    between atoms: C_8  and  O_9
REMARK    9  A    between atoms: C_11  and  O_12
REMARK                            x       y       z     vdW  Elec       q    Type
REMARK                         _______ _______ _______ _____ _____    ______ ____
ROOT
ATOM      1  C   UNL     1       9.045   0.167  24.076  0.00  0.00    +0.182 C 
ENDROOT
BRANCH   1   2
ATOM      2  C   UNL     1       8.738   0.256  25.568  0.00  0.00    +0.338 C 
ATOM      3  O   UNL     1       8.965  -0.641  26.371  0.00  0.00    -0.248 OA
BRANCH   2   4
ATOM      4  O   UNL     1       8.228   1.460  25.924  0.00  0.00    -0.479 OA
ATOM      5  H   UNL     1       8.804   2.165  25.542  0.00  0.00    +0.295 HD
ENDBRANCH   2   4
ENDBRANCH   1   2
BRANCH   1   6
ATOM      6  O   UNL     1       8.023  -0.689  23.513  0.00  0.00    -0.376 OA
ATOM      7  H   UNL     1       8.281  -0.940  22.605  0.00  0.00    +0.211 HD
ENDBRANCH   1   6
BRANCH   1   8
ATOM      8  C   UNL     1       9.027   1.558  23.428  0.00  0.00    +0.167 C 
BRANCH   8   9
ATOM      9  C   UNL     1       9.404   1.596  21.966  0.00  0.00    +0.308 C 
ATOM     10  O   UNL     1       8.904   0.852  21.139  0.00  0.00    -0.251 OA
BRANCH   9  11
ATOM     11  O   UNL     1      10.389   2.462  21.650  0.00  0.00    -0.481 OA
ATOM     12  H   UNL     1      10.990   2.207  20.910  0.00  0.00    +0.295 HD
ENDBRANCH   9  11
ENDBRANCH   8   9
ENDBRANCH   1   8
BRANCH   1  13
ATOM     13  C   UNL     1      10.379  -0.561  23.891  0.00  0.00    +0.167 C 
BRANCH  13  14
ATOM     14  C   UNL     1      10.266  -1.875  23.173  0.00  0.00    +0.308 C 
ATOM     15  O   UNL     1      10.157  -2.969  23.696  0.00  0.00    -0.251 OA
BRANCH  14  16
ATOM     16  O   UNL     1      10.335  -1.741  21.840  0.00  0.00    -0.481 OA
ATOM     17  H   UNL     1      11.186  -1.279  21.673  0.00  0.00    +0.295 HD
ENDBRANCH  14  16
ENDBRANCH  13  14
ENDBRANCH   1  13
TORSDOF 9
ENDMDL
MODEL 4
REMARK VINA RESULT:      -4.3      1.703      2.929
REMARK  Name = 
REMARK  9 active torsions:
REMARK  status: ('A' for Active; 'I' for Inactive)
REMARK    1  A    between atoms: O_1  and  C_2
REMARK    2  A    between atoms: C_2  and  C_4
REMARK    3  A    between atoms: C_4  and  C_5
REMARK    4  A    between atoms: C_5  and  O_6
REMARK    5  A    between atoms: C_5  and  C_7
REMARK    6  A    between atoms: C_5  and  C_11
REMARK    7  A    between atoms: C_7  and  C_8
REMARK    8  A    between atoms: C_8  and  O_9
REMARK    9  A    between atoms: C_11  and  O_12
REMARK                            x       y       z     vdW  Elec       q    Type
REMARK                         _______ _______ _______ _____ _____    ______ ____
ROOT
ATOM      1  C   UNL     1       9.652  -0.638  23.442  0.00  0.00    +0.182 C 
ENDROOT
BRANCH   1   2
ATOM      2  C   UNL     1      10.350   0.166  24.535  0.00  0.00    +0.338 C 
ATOM      3  O   UNL     1      11.337   0.868  24.348  0.00  0.00    -0.248 OA
BRANCH   2   4
ATOM      4  O   UNL     1       9.730   0.062  25.736  0.00  0.00    -0.479 OA
ATOM      5  H   UNL     1       8.890   0.579  25.696  0.00  0.00    +0.295 HD
ENDBRANCH   2   4
ENDBRANCH   1   2
BRANCH   1   6
ATOM      6  O   UNL     1       8.237  -0.545  23.725  0.00  0.00    -0.376 OA
ATOM      7  H   UNL     1       7.848  -1.442  23.708  0.00  0.00    +0.211 HD
ENDBRANCH   1   6
BRANCH   1   8
ATOM      8  C   UNL     1       9.981  -0.076  22.053  0.00  0.00    +0.167 C 
BRANCH   8   9
ATOM      9  C   UNL     1       9.386   1.279  21.747  0.00  0.00    +0.308 C 
ATOM     10  O   UNL     1       8.201   1.436  21.504  0.00  0.00    -0.251 OA
BRANCH   9  11
ATOM     11  O   UNL     1      10.272   2.295  21.688  0.00  0.00    -0.481 OA
ATOM     12  H   UNL     1      10.661   2.600  22.542  0.00  0.00    +0.295 HD
ENDBRANCH   9  11
ENDBRANCH   8   9
ENDBRANCH   1   8
BRANCH   1  13
ATOM     13  C   UNL     1      10.037  -2.112  23.596  0.00  0.00    +0.167 C 
BRANCH  13  14
ATOM     14  C   UNL     1       8.937  -2.979  24.138  0.00  0.00    +0.308 C 
ATOM     15  O   UNL     1       8.188  -3.679  23.482  0.00  0.00    -0.251 OA
BRANCH  14  16
ATOM     16  O   UNL     1       8.819  -2.886  25.472  0.00  0.00    -0.481 OA
ATOM     17  H   UNL     1       9.491  -3.507  25.832  0.00  0.00    +0.295 HD
ENDBRANCH  14  16
ENDBRANCH  13  14
ENDBRANCH   1  13
TORSDOF 9
ENDMDL
MODEL 5
REMARK VINA RESULT:      -4.3      4.031      6.437
REMARK  Name = 
REMARK  9 active torsions:
REMARK  status: ('A' for Active; 'I' for Inactive)
REMARK    1  A    between atoms: O_1  and  C_2
REMARK    2  A    between atoms: C_2  and  C_4
REMARK    3  A    between atoms: C_4  and  C_5
REMARK    4  A    between atoms: C_5  and  O_6
REMARK    5  A    between atoms: C_5  and  C_7
REMARK    6  A    between atoms: C_5  and  C_11
REMARK    7  A    between atoms: C_7  and  C_8
REMARK    8  A    between atoms: C_8  and  O_9
REMARK    9  A    between atoms: C_11  and  O_12
REMARK                            x       y       z     vdW  Elec       q    Type
REMARK                         _______ _______ _______ _____ _____    ______ ____
ROOT
ATOM      1  C   UNL     1       7.849  -4.338  24.088  0.00  0.00    +0.182 C 
ENDROOT
BRANCH   1   2
ATOM      2  C   UNL     1       8.749  -3.210  23.591  0.00  0.00    +0.338 C 
ATOM      3  O   UNL     1       8.374  -2.309  22.850  0.00  0.00    -0.248 OA
BRANCH   2   4
ATOM      4  O   UNL     1      10.003  -3.281  24.099  0.00  0.00    -0.479 OA
ATOM      5  H   UNL     1      10.269  -4.231  24.135  0.00  0.00    +0.295 HD
ENDBRANCH   2   4
ENDBRANCH   1   2
BRANCH   1   6
ATOM      6  O   UNL     1       8.601  -5.559  23.891  0.00  0.00    -0.376 OA
ATOM      7  H   UNL     1       8.414  -5.908  22.998  0.00  0.00    +0.211 HD
ENDBRANCH   1   6
BRANCH   1   8
ATOM      8  C   UNL     1       7.487  -4.139  25.566  0.00  0.00    +0.167 C 
BRANCH   8   9
ATOM      9  C   UNL     1       8.148  -5.097  26.529  0.00  0.00    +0.308 C 
ATOM     10  O   UNL     1       7.514  -5.870  27.227  0.00  0.00    -0.251 OA
BRANCH   9  11
ATOM     11  O   UNL     1       9.491  -4.989  26.616  0.00  0.00    -0.481 OA
ATOM     12  H   UNL     1      10.023  -5.461  25.933  0.00  0.00    +0.295 HD
ENDBRANCH   9  11
ENDBRANCH   8   9
ENDBRANCH   1   8
BRANCH   1  13
ATOM     13  C   UNL     1       6.621  -4.425  23.179  0.00  0.00    +0.167 C 
BRANCH  13  14
ATOM     14  C   UNL     1       6.605  -5.630  22.285  0.00  0.00    +0.308 C 
ATOM     15  O   UNL     1       7.234  -5.763  21.251  0.00  0.00    -0.251 OA
BRANCH  14  16
ATOM     16  O   UNL     1       5.770  -6.586  22.723  0.00  0.00    -0.481 OA
ATOM     17  H   UNL     1       6.173  -7.432  22.426  0.00  0.00    +0.295 HD
ENDBRANCH  14  16
ENDBRANCH  13  14
ENDBRANCH   1  13
TORSDOF 9
ENDMDL
MODEL 6
REMARK VINA RESULT:      -4.2      1.001      3.854
REMARK  Name = 
REMARK  9 active torsions:
REMARK  status: ('A' for Active; 'I' for Inactive)
REMARK    1  A    between atoms: O_1  and  C_2
REMARK    2  A    between atoms: C_2  and  C_4
REMARK    3  A    between atoms: C_4  and  C_5
REMARK    4  A    between atoms: C_5  and  O_6
REMARK    5  A    between atoms: C_5  and  C_7
REMARK    6  A    between atoms: C_5  and  C_11
REMARK    7  A    between atoms: C_7  and  C_8
REMARK    8  A    between atoms: C_8  and  O_9
REMARK    9  A    between atoms: C_11  and  O_12
REMARK                            x       y       z     vdW  Elec       q    Type
REMARK                         _______ _______ _______ _____ _____    ______ ____
ROOT
ATOM      1  C   UNL     1       9.391   0.371  24.169  0.00  0.00    +0.182 C 
ENDROOT
BRANCH   1   2
ATOM      2  C   UNL     1       8.890   0.259  25.606  0.00  0.00    +0.338 C 
ATOM      3  O   UNL     1       9.051  -0.727  26.315  0.00  0.00    -0.248 OA
BRANCH   2   4
ATOM      4  O   UNL     1       8.286   1.393  26.037  0.00  0.00    -0.479 OA
ATOM      5  H   UNL     1       8.878   1.829  26.696  0.00  0.00    +0.295 HD
ENDBRANCH   2   4
ENDBRANCH   1   2
BRANCH   1   6
ATOM      6  O   UNL     1      10.834   0.306  24.247  0.00  0.00    -0.376 OA
ATOM      7  H   UNL     1      11.192   1.214  24.298  0.00  0.00    +0.211 HD
ENDBRANCH   1   6
BRANCH   1   8
ATOM      8  C   UNL     1       8.828  -0.765  23.304  0.00  0.00    +0.167 C 
BRANCH   8   9
ATOM      9  C   UNL     1       9.807  -1.385  22.334  0.00  0.00    +0.308 C 
ATOM     10  O   UNL     1      10.581  -2.270  22.658  0.00  0.00    -0.251 OA
BRANCH   9  11
ATOM     11  O   UNL     1       9.815  -0.840  21.100  0.00  0.00    -0.481 OA
ATOM     12  H   UNL     1      10.322  -0.001  20.984  0.00  0.00    +0.295 HD
ENDBRANCH   9  11
ENDBRANCH   8   9
ENDBRANCH   1   8
BRANCH   1  13
ATOM     13  C   UNL     1       9.040   1.761  23.632  0.00  0.00    +0.167 C 
BRANCH  13  14
ATOM     14  C   UNL     1      10.171   2.447  22.924  0.00  0.00    +0.308 C 
ATOM     15  O   UNL     1      10.954   3.236  23.421  0.00  0.00    -0.251 OA
BRANCH  14  16
ATOM     16  O   UNL     1      10.231   2.131  21.621  0.00  0.00    -0.481 OA
ATOM     17  H   UNL     1      10.567   1.208  21.597  0.00  0.00    +0.295 HD
ENDBRANCH  14  16
ENDBRANCH  13  14
ENDBRANCH   1  13
TORSDOF 9
ENDMDL
MODEL 7
REMARK VINA RESULT:      -4.2      4.276      5.955
REMARK  Name = 
REMARK  9 active torsions:
REMARK  status: ('A' for Active; 'I' for Inactive)
REMARK    1  A    between atoms: O_1  and  C_2
REMARK    2  A    between atoms: C_2  and  C_4
REMARK    3  A    between atoms: C_4  and  C_5
REMARK    4  A    between atoms: C_5  and  O_6
REMARK    5  A    between atoms: C_5  and  C_7
REMARK    6  A    between atoms: C_5  and  C_11
REMARK    7  A    between atoms: C_7  and  C_8
REMARK    8  A    between atoms: C_8  and  O_9
REMARK    9  A    between atoms: C_11  and  O_12
REMARK                            x       y       z     vdW  Elec       q    Type
REMARK                         _______ _______ _______ _____ _____    ______ ____
ROOT
ATOM      1  C   UNL     1       7.850  -4.624  23.921  0.00  0.00    +0.182 C 
ENDROOT
BRANCH   1   2
ATOM      2  C   UNL     1       8.492  -3.337  23.409  0.00  0.00    +0.338 C 
ATOM      3  O   UNL     1       9.644  -2.999  23.654  0.00  0.00    -0.248 OA
BRANCH   2   4
ATOM      4  O   UNL     1       7.663  -2.624  22.608  0.00  0.00    -0.479 OA
ATOM      5  H   UNL     1       8.208  -1.983  22.092  0.00  0.00    +0.295 HD
ENDBRANCH   2   4
ENDBRANCH   1   2
BRANCH   1   6
ATOM      6  O   UNL     1       6.697  -4.211  24.691  0.00  0.00    -0.376 OA
ATOM      7  H   UNL     1       6.990  -3.937  25.582  0.00  0.00    +0.211 HD
ENDBRANCH   1   6
BRANCH   1   8
ATOM      8  C   UNL     1       7.445  -5.535  22.755  0.00  0.00    +0.167 C 
BRANCH   8   9
ATOM      9  C   UNL     1       5.966  -5.576  22.450  0.00  0.00    +0.308 C 
ATOM     10  O   UNL     1       5.398  -4.691  21.831  0.00  0.00    -0.251 OA
BRANCH   9  11
ATOM     11  O   UNL     1       5.301  -6.627  22.973  0.00  0.00    -0.481 OA
ATOM     12  H   UNL     1       5.105  -6.597  23.939  0.00  0.00    +0.295 HD
ENDBRANCH   9  11
ENDBRANCH   8   9
ENDBRANCH   1   8
BRANCH   1  13
ATOM     13  C   UNL     1       8.815  -5.299  24.899  0.00  0.00    +0.167 C 
BRANCH  13  14
ATOM     14  C   UNL     1       8.538  -4.993  26.342  0.00  0.00    +0.308 C 
ATOM     15  O   UNL     1       8.844  -3.971  26.929  0.00  0.00    -0.251 OA
BRANCH  14  16
ATOM     16  O   UNL     1       7.923  -6.004  26.975  0.00  0.00    -0.481 OA
ATOM     17  H   UNL     1       7.320  -6.396  26.305  0.00  0.00    +0.295 HD
ENDBRANCH  14  16
ENDBRANCH  13  14
ENDBRANCH   1  13
TORSDOF 9
ENDMDL
MODEL 8
REMARK VINA RESULT:      -4.2      4.156      6.178
REMARK  Name = 
REMARK  9 active torsions:
REMARK  status: ('A' for Active; 'I' for Inactive)
REMARK    1  A    between atoms: O_1  and  C_2
REMARK    2  A    between atoms: C_2  and  C_4
REMARK    3  A    between atoms: C_4  and  C_5
REMARK    4  A    between atoms: C_5  and  O_6
REMARK    5  A    between atoms: C_5  and  C_7
REMARK    6  A    between atoms: C_5  and  C_11
REMARK    7  A    between atoms: C_7  and  C_8
REMARK    8  A    between atoms: C_8  and  O_9
REMARK    9  A    between atoms: C_11  and  O_12
REMARK                            x       y       z     vdW  Elec       q    Type
REMARK                         _______ _______ _______ _____ _____    ______ ____
ROOT
ATOM      1  C   UNL     1       7.644  -4.860  24.387  0.00  0.00    +0.182 C 
ENDROOT
BRANCH   1   2
ATOM      2  C   UNL     1       8.390  -5.518  25.545  0.00  0.00    +0.338 C 
ATOM      3  O   UNL     1       7.875  -5.805  26.619  0.00  0.00    -0.248 OA
BRANCH   2   4
ATOM      4  O   UNL     1       9.681  -5.798  25.241  0.00  0.00    -0.479 OA
ATOM      5  H   UNL     1      10.257  -5.150  25.713  0.00  0.00    +0.295 HD
ENDBRANCH   2   4
ENDBRANCH   1   2
BRANCH   1   6
ATOM      6  O   UNL     1       8.292  -5.332  23.182  0.00  0.00    -0.376 OA
ATOM      7  H   UNL     1       9.233  -5.508  23.373  0.00  0.00    +0.211 HD
ENDBRANCH   1   6
BRANCH   1   8
ATOM      8  C   UNL     1       6.158  -5.240  24.407  0.00  0.00    +0.167 C 
BRANCH   8   9
ATOM      9  C   UNL     1       5.522  -5.435  23.051  0.00  0.00    +0.308 C 
ATOM     10  O   UNL     1       4.836  -4.579  22.518  0.00  0.00    -0.251 OA
BRANCH   9  11
ATOM     11  O   UNL     1       5.706  -6.653  22.500  0.00  0.00    -0.481 OA
ATOM     12  H   UNL     1       5.397  -7.431  23.021  0.00  0.00    +0.295 HD
ENDBRANCH   9  11
ENDBRANCH   8   9
ENDBRANCH   1   8
BRANCH   1  13
ATOM     13  C   UNL     1       7.875  -3.348  24.449  0.00  0.00    +0.167 C 
BRANCH  13  14
ATOM     14  C   UNL     1       8.886  -2.842  23.461  0.00  0.00    +0.308 C 
ATOM     15  O   UNL     1       8.640  -2.339  22.380  0.00  0.00    -0.251 OA
BRANCH  14  16
ATOM     16  O   UNL     1      10.149  -3.030  23.874  0.00  0.00    -0.481 OA
ATOM     17  H   UNL     1      10.123  -2.893  24.846  0.00  0.00    +0.295 HD
ENDBRANCH  14  16
ENDBRANCH  13  14
ENDBRANCH   1  13
TORSDOF 9
ENDMDL
MODEL 9
REMARK VINA RESULT:      -4.1      1.251      3.343
REMARK  Name = 
REMARK  9 active torsions:
REMARK  status: ('A' for Active; 'I' for Inactive)
REMARK    1  A    between atoms: O_1  and  C_2
REMARK    2  A    between atoms: C_2  and  C_4
REMARK    3  A    between atoms: C_4  and  C_5
REMARK    4  A    between atoms: C_5  and  O_6
REMARK    5  A    between atoms: C_5  and  C_7
REMARK    6  A    between atoms: C_5  and  C_11
REMARK    7  A    between atoms: C_7  and  C_8
REMARK    8  A    between atoms: C_8  and  O_9
REMARK    9  A    between atoms: C_11  and  O_12
REMARK                            x       y       z     vdW  Elec       q    Type
REMARK                         _______ _______ _______ _____ _____    ______ ____
ROOT
ATOM      1  C   UNL     1       9.543   0.781  23.444  0.00  0.00    +0.182 C 
ENDROOT
BRANCH   1   2
ATOM      2  C   UNL     1      10.028   2.069  22.785  0.00  0.00    +0.338 C 
ATOM      3  O   UNL     1      10.582   2.982  23.387  0.00  0.00    -0.248 OA
BRANCH   2   4
ATOM      4  O   UNL     1       9.825   2.077  21.446  0.00  0.00    -0.479 OA
ATOM      5  H   UNL     1      10.232   1.262  21.066  0.00  0.00    +0.295 HD
ENDBRANCH   2   4
ENDBRANCH   1   2
BRANCH   1   6
ATOM      6  O   UNL     1       8.399   0.348  22.671  0.00  0.00    -0.376 OA
ATOM      7  H   UNL     1       8.652   0.296  21.729  0.00  0.00    +0.211 HD
ENDBRANCH   1   6
BRANCH   1   8
ATOM      8  C   UNL     1      10.648  -0.283  23.447  0.00  0.00    +0.167 C 
BRANCH   8   9
ATOM      9  C   UNL     1      10.284  -1.596  22.795  0.00  0.00    +0.308 C 
ATOM     10  O   UNL     1      10.170  -2.634  23.426  0.00  0.00    -0.251 OA
BRANCH   9  11
ATOM     11  O   UNL     1      10.165  -1.556  21.452  0.00  0.00    -0.481 OA
ATOM     12  H   UNL     1      10.962  -1.797  20.924  0.00  0.00    +0.295 HD
ENDBRANCH   9  11
ENDBRANCH   8   9
ENDBRANCH   1   8
BRANCH   1  13
ATOM     13  C   UNL     1       9.027   1.110  24.848  0.00  0.00    +0.167 C 
BRANCH  13  14
ATOM     14  C   UNL     1       8.540  -0.083  25.617  0.00  0.00    +0.308 C 
ATOM     15  O   UNL     1       7.611  -0.806  25.305  0.00  0.00    -0.251 OA
BRANCH  14  16
ATOM     16  O   UNL     1       9.225  -0.278  26.754  0.00  0.00    -0.481 OA
ATOM     17  H   UNL     1       9.827   0.495  26.826  0.00  0.00    +0.295 HD
ENDBRANCH  14  16
ENDBRANCH  13  14
ENDBRANCH   1  13
TORSDOF 9
ENDMDL
