MODEL 1
REMARK VINA RESULT:      -6.1      0.000      0.000
REMARK  Name = 
REMARK  17 active torsions:
REMARK  status: ('A' for Active; 'I' for Inactive)
REMARK    1  A    between atoms: C_1  and  C_2
REMARK    2  A    between atoms: C_2  and  C_3
REMARK    3  A    between atoms: C_2  and  N_4
REMARK    4  A    between atoms: N_4  and  C_5
REMARK    5  A    between atoms: C_5  and  C_6
REMARK    6  A    between atoms: C_6  and  O_7
REMARK    7  A    between atoms: C_6  and  C_8
REMARK    8  A    between atoms: C_8  and  O_9
REMARK    9  A    between atoms: O_9  and  C_10
REMARK   10  A    between atoms: C_13  and  C_14
REMARK   11  A    between atoms: C_14  and  O_15
REMARK   12  A    between atoms: O_15  and  C_16
REMARK   13  A    between atoms: C_16  and  C_17
REMARK   14  A    between atoms: C_17  and  O_18
REMARK   15  A    between atoms: O_18  and  C_19
REMARK   16  A    between atoms: C_19  and  C_20
REMARK   17  A    between atoms: C_19  and  C_21
REMARK                            x       y       z     vdW  Elec       q    Type
REMARK                         _______ _______ _______ _____ _____    ______ ____
ROOT
ATOM      1  C   UNL     1      10.358   2.269  23.432  0.00  0.00    +0.121 A 
ATOM      2  C   UNL     1       9.932   1.868  22.163  0.00  0.00    +0.046 A 
ATOM      3  C   UNL     1       9.782   0.506  21.859  0.00  0.00    +0.009 A 
ATOM      4  C   UNL     1      10.056  -0.469  22.826  0.00  0.00    -0.022 A 
ATOM      5  C   UNL     1      10.472  -0.057  24.096  0.00  0.00    +0.009 A 
ATOM      6  C   UNL     1      10.615   1.294  24.400  0.00  0.00    +0.046 A 
ENDROOT
BRANCH   1   7
ATOM      7  O   UNL     1      10.495   3.622  23.628  0.00  0.00    -0.489 OA
BRANCH   7   8
ATOM      8  C   UNL     1      11.797   4.144  23.319  0.00  0.00    +0.261 C 
BRANCH   8   9
ATOM      9  C   UNL     1      11.832   5.664  23.501  0.00  0.00    +0.166 C 
BRANCH   9  10
ATOM     10  O   UNL     1      12.887   6.033  24.399  0.00  0.00    -0.387 OA
ATOM     11  H   UNL     1      13.360   6.774  23.976  0.00  0.00    +0.210 HD
ENDBRANCH   9  10
BRANCH   9  12
ATOM     12  C   UNL     1      10.484   6.190  24.022  0.00  0.00    +0.115 C 
BRANCH  12  13
ATOM     13  N   UNL     1       9.509   6.236  22.925  0.00  0.00    -0.311 NA
ATOM     14  H   UNL     1       9.646   7.117  22.421  0.00  0.00    +0.122 HD
BRANCH  13  16
ATOM     15  C   UNL     1       7.451   5.001  22.571  0.00  0.00    +0.023 C 
ATOM     16  C   UNL     1       8.121   6.113  23.379  0.00  0.00    +0.048 C 
ATOM     17  C   UNL     1       8.038   5.784  24.872  0.00  0.00    +0.023 C 
ENDBRANCH  13  16
ENDBRANCH  12  13
ENDBRANCH   9  12
ENDBRANCH   8   9
ENDBRANCH   7   8
ENDBRANCH   1   7
BRANCH   4  18
ATOM     18  C   UNL     1       9.925  -1.941  22.543  0.00  0.00    +0.195 C 
BRANCH  18  19
ATOM     19  O   UNL     1      10.096  -2.635  23.775  0.00  0.00    -0.373 OA
BRANCH  19  20
ATOM     20  C   UNL     1       8.908  -3.293  24.202  0.00  0.00    +0.188 C 
BRANCH  20  21
ATOM     21  C   UNL     1       8.044  -3.555  22.973  0.00  0.00    +0.188 C 
BRANCH  21  22
ATOM     22  O   UNL     1       7.357  -4.796  23.116  0.00  0.00    -0.375 OA
BRANCH  22  23
ATOM     23  C   UNL     1       6.077  -4.818  22.472  0.00  0.00    +0.112 C 
ATOM     24  C   UNL     1       6.253  -5.563  21.154  0.00  0.00    +0.037 C 
ATOM     25  C   UNL     1       5.551  -3.409  22.207  0.00  0.00    +0.037 C 
ENDBRANCH  22  23
ENDBRANCH  21  22
ENDBRANCH  20  21
ENDBRANCH  19  20
ENDBRANCH  18  19
ENDBRANCH   4  18
TORSDOF 13
ENDMDL
MODEL 2
REMARK VINA RESULT:      -6.0      1.768      2.605
REMARK  Name = 
REMARK  17 active torsions:
REMARK  status: ('A' for Active; 'I' for Inactive)
REMARK    1  A    between atoms: C_1  and  C_2
REMARK    2  A    between atoms: C_2  and  C_3
REMARK    3  A    between atoms: C_2  and  N_4
REMARK    4  A    between atoms: N_4  and  C_5
REMARK    5  A    between atoms: C_5  and  C_6
REMARK    6  A    between atoms: C_6  and  O_7
REMARK    7  A    between atoms: C_6  and  C_8
REMARK    8  A    between atoms: C_8  and  O_9
REMARK    9  A    between atoms: O_9  and  C_10
REMARK   10  A    between atoms: C_13  and  C_14
REMARK   11  A    between atoms: C_14  and  O_15
REMARK   12  A    between atoms: O_15  and  C_16
REMARK   13  A    between atoms: C_16  and  C_17
REMARK   14  A    between atoms: C_17  and  O_18
REMARK   15  A    between atoms: O_18  and  C_19
REMARK   16  A    between atoms: C_19  and  C_20
REMARK   17  A    between atoms: C_19  and  C_21
REMARK                            x       y       z     vdW  Elec       q    Type
REMARK                         _______ _______ _______ _____ _____    ______ ____
ROOT
ATOM      1  C   UNL     1      10.403   2.309  23.486  0.00  0.00    +0.121 A 
ATOM      2  C   UNL     1       9.953   2.059  22.187  0.00  0.00    +0.046 A 
ATOM      3  C   UNL     1       9.750   0.742  21.745  0.00  0.00    +0.009 A 
ATOM      4  C   UNL     1       9.995  -0.337  22.603  0.00  0.00    -0.022 A 
ATOM      5  C   UNL     1      10.435  -0.076  23.904  0.00  0.00    +0.009 A 
ATOM      6  C   UNL     1      10.631   1.230  24.344  0.00  0.00    +0.046 A 
ENDROOT
BRANCH   1   7
ATOM      7  O   UNL     1      10.592   3.628  23.820  0.00  0.00    -0.489 OA
BRANCH   7   8
ATOM      8  C   UNL     1      11.819   4.199  23.339  0.00  0.00    +0.261 C 
BRANCH   8   9
ATOM      9  C   UNL     1      11.827   5.718  23.535  0.00  0.00    +0.166 C 
BRANCH   9  10
ATOM     10  O   UNL     1      12.834   6.092  24.485  0.00  0.00    -0.387 OA
ATOM     11  H   UNL     1      13.337   5.280  24.684  0.00  0.00    +0.210 HD
ENDBRANCH   9  10
BRANCH   9  12
ATOM     12  C   UNL     1      10.450   6.224  23.996  0.00  0.00    +0.115 C 
BRANCH  12  13
ATOM     13  N   UNL     1       9.489   6.129  22.890  0.00  0.00    -0.311 NA
ATOM     14  H   UNL     1       9.634   6.936  22.277  0.00  0.00    +0.122 HD
BRANCH  13  16
ATOM     15  C   UNL     1       7.356   5.053  22.464  0.00  0.00    +0.023 C 
ATOM     16  C   UNL     1       8.095   6.068  23.338  0.00  0.00    +0.048 C 
ATOM     17  C   UNL     1       7.988   5.653  24.808  0.00  0.00    +0.023 C 
ENDBRANCH  13  16
ENDBRANCH  12  13
ENDBRANCH   9  12
ENDBRANCH   8   9
ENDBRANCH   7   8
ENDBRANCH   1   7
BRANCH   4  18
ATOM     18  C   UNL     1       9.807  -1.767  22.169  0.00  0.00    +0.195 C 
BRANCH  18  19
ATOM     19  O   UNL     1       8.847  -2.359  23.040  0.00  0.00    -0.373 OA
BRANCH  19  20
ATOM     20  C   UNL     1       7.534  -2.357  22.488  0.00  0.00    +0.188 C 
BRANCH  20  21
ATOM     21  C   UNL     1       6.589  -1.747  23.517  0.00  0.00    +0.188 C 
BRANCH  21  22
ATOM     22  O   UNL     1       6.538  -0.332  23.354  0.00  0.00    -0.375 OA
BRANCH  22  23
ATOM     23  C   UNL     1       6.391   0.381  24.588  0.00  0.00    +0.112 C 
ATOM     24  C   UNL     1       6.882   1.804  24.344  0.00  0.00    +0.037 C 
ATOM     25  C   UNL     1       7.200  -0.262  25.713  0.00  0.00    +0.037 C 
ENDBRANCH  22  23
ENDBRANCH  21  22
ENDBRANCH  20  21
ENDBRANCH  19  20
ENDBRANCH  18  19
ENDBRANCH   4  18
TORSDOF 13
ENDMDL
MODEL 3
REMARK VINA RESULT:      -6.0      1.206      2.227
REMARK  Name = 
REMARK  17 active torsions:
REMARK  status: ('A' for Active; 'I' for Inactive)
REMARK    1  A    between atoms: C_1  and  C_2
REMARK    2  A    between atoms: C_2  and  C_3
REMARK    3  A    between atoms: C_2  and  N_4
REMARK    4  A    between atoms: N_4  and  C_5
REMARK    5  A    between atoms: C_5  and  C_6
REMARK    6  A    between atoms: C_6  and  O_7
REMARK    7  A    between atoms: C_6  and  C_8
REMARK    8  A    between atoms: C_8  and  O_9
REMARK    9  A    between atoms: O_9  and  C_10
REMARK   10  A    between atoms: C_13  and  C_14
REMARK   11  A    between atoms: C_14  and  O_15
REMARK   12  A    between atoms: O_15  and  C_16
REMARK   13  A    between atoms: C_16  and  C_17
REMARK   14  A    between atoms: C_17  and  O_18
REMARK   15  A    between atoms: O_18  and  C_19
REMARK   16  A    between atoms: C_19  and  C_20
REMARK   17  A    between atoms: C_19  and  C_21
REMARK                            x       y       z     vdW  Elec       q    Type
REMARK                         _______ _______ _______ _____ _____    ______ ____
ROOT
ATOM      1  C   UNL     1      10.374   2.269  23.354  0.00  0.00    +0.121 A 
ATOM      2  C   UNL     1      10.600   1.337  24.371  0.00  0.00    +0.046 A 
ATOM      3  C   UNL     1      10.428  -0.036  24.130  0.00  0.00    +0.009 A 
ATOM      4  C   UNL     1      10.029  -0.487  22.866  0.00  0.00    -0.022 A 
ATOM      5  C   UNL     1       9.816   0.453  21.853  0.00  0.00    +0.009 A 
ATOM      6  C   UNL     1       9.992   1.813  22.089  0.00  0.00    +0.046 A 
ENDROOT
BRANCH   1   7
ATOM      7  O   UNL     1      10.548   3.590  23.691  0.00  0.00    -0.489 OA
BRANCH   7   8
ATOM      8  C   UNL     1      11.799   4.157  23.268  0.00  0.00    +0.261 C 
BRANCH   8   9
ATOM      9  C   UNL     1      11.805   5.675  23.471  0.00  0.00    +0.166 C 
BRANCH   9  10
ATOM     10  O   UNL     1      12.857   6.052  24.369  0.00  0.00    -0.387 OA
ATOM     11  H   UNL     1      13.296   5.224  24.639  0.00  0.00    +0.210 HD
ENDBRANCH   9  10
BRANCH   9  12
ATOM     12  C   UNL     1      10.450   6.167  24.007  0.00  0.00    +0.115 C 
BRANCH  12  13
ATOM     13  N   UNL     1       9.469   6.212  22.915  0.00  0.00    -0.311 NA
ATOM     14  H   UNL     1       9.578   7.108  22.432  0.00  0.00    +0.122 HD
BRANCH  13  16
ATOM     15  C   UNL     1       7.466   4.883  22.582  0.00  0.00    +0.023 C 
ATOM     16  C   UNL     1       8.088   6.037  23.371  0.00  0.00    +0.048 C 
ATOM     17  C   UNL     1       8.017   5.731  24.869  0.00  0.00    +0.023 C 
ENDBRANCH  13  16
ENDBRANCH  12  13
ENDBRANCH   9  12
ENDBRANCH   8   9
ENDBRANCH   7   8
ENDBRANCH   1   7
BRANCH   4  18
ATOM     18  C   UNL     1       9.816  -1.947  22.564  0.00  0.00    +0.195 C 
BRANCH  18  19
ATOM     19  O   UNL     1       8.552  -2.074  21.920  0.00  0.00    -0.373 OA
BRANCH  19  20
ATOM     20  C   UNL     1       7.592  -2.746  22.729  0.00  0.00    +0.188 C 
BRANCH  20  21
ATOM     21  C   UNL     1       8.338  -3.695  23.660  0.00  0.00    +0.188 C 
BRANCH  21  22
ATOM     22  O   UNL     1       7.414  -4.376  24.505  0.00  0.00    -0.375 OA
BRANCH  22  23
ATOM     23  C   UNL     1       8.043  -5.186  25.506  0.00  0.00    +0.112 C 
ATOM     24  C   UNL     1       7.615  -4.634  26.861  0.00  0.00    +0.037 C 
ATOM     25  C   UNL     1       9.565  -5.152  25.387  0.00  0.00    +0.037 C 
ENDBRANCH  22  23
ENDBRANCH  21  22
ENDBRANCH  20  21
ENDBRANCH  19  20
ENDBRANCH  18  19
ENDBRANCH   4  18
TORSDOF 13
ENDMDL
MODEL 4
REMARK VINA RESULT:      -5.9      3.369      7.553
REMARK  Name = 
REMARK  17 active torsions:
REMARK  status: ('A' for Active; 'I' for Inactive)
REMARK    1  A    between atoms: C_1  and  C_2
REMARK    2  A    between atoms: C_2  and  C_3
REMARK    3  A    between atoms: C_2  and  N_4
REMARK    4  A    between atoms: N_4  and  C_5
REMARK    5  A    between atoms: C_5  and  C_6
REMARK    6  A    between atoms: C_6  and  O_7
REMARK    7  A    between atoms: C_6  and  C_8
REMARK    8  A    between atoms: C_8  and  O_9
REMARK    9  A    between atoms: O_9  and  C_10
REMARK   10  A    between atoms: C_13  and  C_14
REMARK   11  A    between atoms: C_14  and  O_15
REMARK   12  A    between atoms: O_15  and  C_16
REMARK   13  A    between atoms: C_16  and  C_17
REMARK   14  A    between atoms: C_17  and  O_18
REMARK   15  A    between atoms: O_18  and  C_19
REMARK   16  A    between atoms: C_19  and  C_20
REMARK   17  A    between atoms: C_19  and  C_21
REMARK                            x       y       z     vdW  Elec       q    Type
REMARK                         _______ _______ _______ _____ _____    ______ ____
ROOT
ATOM      1  C   UNL     1       9.828  -2.015  23.480  0.00  0.00    +0.121 A 
ATOM      2  C   UNL     1       9.516  -1.767  22.140  0.00  0.00    +0.046 A 
ATOM      3  C   UNL     1       9.524  -0.456  21.638  0.00  0.00    +0.009 A 
ATOM      4  C   UNL     1       9.847   0.619  22.475  0.00  0.00    -0.022 A 
ATOM      5  C   UNL     1      10.168   0.359  23.811  0.00  0.00    +0.009 A 
ATOM      6  C   UNL     1      10.166  -0.941  24.307  0.00  0.00    +0.046 A 
ENDROOT
BRANCH   1   7
ATOM      7  O   UNL     1       9.774  -3.327  23.883  0.00  0.00    -0.489 OA
BRANCH   7   8
ATOM      8  C   UNL     1       9.160  -3.536  25.165  0.00  0.00    +0.261 C 
BRANCH   8   9
ATOM      9  C   UNL     1       8.717  -4.993  25.327  0.00  0.00    +0.166 C 
BRANCH   9  10
ATOM     10  O   UNL     1       9.587  -5.862  24.589  0.00  0.00    -0.387 OA
ATOM     11  H   UNL     1      10.423  -5.374  24.468  0.00  0.00    +0.210 HD
ENDBRANCH   9  10
BRANCH   9  12
ATOM     12  C   UNL     1       7.262  -5.184  24.866  0.00  0.00    +0.115 C 
BRANCH  12  13
ATOM     13  N   UNL     1       6.882  -4.098  23.954  0.00  0.00    -0.311 NA
ATOM     14  H   UNL     1       6.252  -3.470  24.460  0.00  0.00    +0.122 HD
BRANCH  13  16
ATOM     15  C   UNL     1       5.902  -3.356  21.863  0.00  0.00    +0.023 C 
ATOM     16  C   UNL     1       6.253  -4.573  22.719  0.00  0.00    +0.048 C 
ATOM     17  C   UNL     1       7.178  -5.504  21.931  0.00  0.00    +0.023 C 
ENDBRANCH  13  16
ENDBRANCH  12  13
ENDBRANCH   9  12
ENDBRANCH   8   9
ENDBRANCH   7   8
ENDBRANCH   1   7
BRANCH   4  18
ATOM     18  C   UNL     1       9.853   2.043  21.986  0.00  0.00    +0.195 C 
BRANCH  18  19
ATOM     19  O   UNL     1       8.801   2.733  22.653  0.00  0.00    -0.373 OA
BRANCH  19  20
ATOM     20  C   UNL     1       7.593   2.748  21.899  0.00  0.00    +0.188 C 
BRANCH  20  21
ATOM     21  C   UNL     1       6.517   2.042  22.714  0.00  0.00    +0.188 C 
BRANCH  21  22
ATOM     22  O   UNL     1       6.845   2.088  24.101  0.00  0.00    -0.375 OA
BRANCH  22  23
ATOM     23  C   UNL     1       6.397   0.942  24.834  0.00  0.00    +0.112 C 
ATOM     24  C   UNL     1       7.295   0.815  26.059  0.00  0.00    +0.037 C 
ATOM     25  C   UNL     1       6.476  -0.333  23.996  0.00  0.00    +0.037 C 
ENDBRANCH  22  23
ENDBRANCH  21  22
ENDBRANCH  20  21
ENDBRANCH  19  20
ENDBRANCH  18  19
ENDBRANCH   4  18
TORSDOF 13
ENDMDL
MODEL 5
REMARK VINA RESULT:      -5.8      2.241      3.861
REMARK  Name = 
REMARK  17 active torsions:
REMARK  status: ('A' for Active; 'I' for Inactive)
REMARK    1  A    between atoms: C_1  and  C_2
REMARK    2  A    between atoms: C_2  and  C_3
REMARK    3  A    between atoms: C_2  and  N_4
REMARK    4  A    between atoms: N_4  and  C_5
REMARK    5  A    between atoms: C_5  and  C_6
REMARK    6  A    between atoms: C_6  and  O_7
REMARK    7  A    between atoms: C_6  and  C_8
REMARK    8  A    between atoms: C_8  and  O_9
REMARK    9  A    between atoms: O_9  and  C_10
REMARK   10  A    between atoms: C_13  and  C_14
REMARK   11  A    between atoms: C_14  and  O_15
REMARK   12  A    between atoms: O_15  and  C_16
REMARK   13  A    between atoms: C_16  and  C_17
REMARK   14  A    between atoms: C_17  and  O_18
REMARK   15  A    between atoms: O_18  and  C_19
REMARK   16  A    between atoms: C_19  and  C_20
REMARK   17  A    between atoms: C_19  and  C_21
REMARK                            x       y       z     vdW  Elec       q    Type
REMARK                         _______ _______ _______ _____ _____    ______ ____
ROOT
ATOM      1  C   UNL     1       9.063  -1.129  23.933  0.00  0.00    +0.121 A 
ATOM      2  C   UNL     1       9.686  -2.349  23.656  0.00  0.00    +0.046 A 
ATOM      3  C   UNL     1       9.507  -3.450  24.510  0.00  0.00    +0.009 A 
ATOM      4  C   UNL     1       8.701  -3.337  25.649  0.00  0.00    -0.022 A 
ATOM      5  C   UNL     1       8.075  -2.115  25.911  0.00  0.00    +0.009 A 
ATOM      6  C   UNL     1       8.247  -1.025  25.063  0.00  0.00    +0.046 A 
ENDROOT
BRANCH   1   7
ATOM      7  O   UNL     1       9.315  -0.105  23.052  0.00  0.00    -0.489 OA
BRANCH   7   8
ATOM      8  C   UNL     1      10.267   0.866  23.515  0.00  0.00    +0.261 C 
BRANCH   8   9
ATOM      9  C   UNL     1       9.953   2.252  22.946  0.00  0.00    +0.166 C 
BRANCH   9  10
ATOM     10  O   UNL     1      10.227   2.286  21.539  0.00  0.00    -0.387 OA
ATOM     11  H   UNL     1       9.462   1.869  21.102  0.00  0.00    +0.210 HD
ENDBRANCH   9  10
BRANCH   9  12
ATOM     12  C   UNL     1      10.760   3.343  23.670  0.00  0.00    +0.115 C 
BRANCH  12  13
ATOM     13  N   UNL     1      11.541   4.114  22.694  0.00  0.00    -0.311 NA
ATOM     14  H   UNL     1      11.981   3.451  22.050  0.00  0.00    +0.122 HD
BRANCH  13  16
ATOM     15  C   UNL     1      13.373   5.625  22.199  0.00  0.00    +0.023 C 
ATOM     16  C   UNL     1      12.551   4.976  23.314  0.00  0.00    +0.048 C 
ATOM     17  C   UNL     1      11.914   6.065  24.182  0.00  0.00    +0.023 C 
ENDBRANCH  13  16
ENDBRANCH  12  13
ENDBRANCH   9  12
ENDBRANCH   8   9
ENDBRANCH   7   8
ENDBRANCH   1   7
BRANCH   4  18
ATOM     18  C   UNL     1       8.492  -4.484  26.602  0.00  0.00    +0.195 C 
BRANCH  18  19
ATOM     19  O   UNL     1       7.822  -5.520  25.889  0.00  0.00    -0.373 OA
BRANCH  19  20
ATOM     20  C   UNL     1       6.406  -5.429  25.998  0.00  0.00    +0.188 C 
BRANCH  20  21
ATOM     21  C   UNL     1       5.843  -5.127  24.614  0.00  0.00    +0.188 C 
BRANCH  21  22
ATOM     22  O   UNL     1       6.750  -5.576  23.610  0.00  0.00    -0.375 OA
BRANCH  22  23
ATOM     23  C   UNL     1       6.769  -4.745  22.443  0.00  0.00    +0.112 C 
ATOM     24  C   UNL     1       5.899  -3.531  22.744  0.00  0.00    +0.037 C 
ATOM     25  C   UNL     1       6.232  -5.479  21.216  0.00  0.00    +0.037 C 
ENDBRANCH  22  23
ENDBRANCH  21  22
ENDBRANCH  20  21
ENDBRANCH  19  20
ENDBRANCH  18  19
ENDBRANCH   4  18
TORSDOF 13
ENDMDL
MODEL 6
REMARK VINA RESULT:      -5.8      2.602      8.895
REMARK  Name = 
REMARK  17 active torsions:
REMARK  status: ('A' for Active; 'I' for Inactive)
REMARK    1  A    between atoms: C_1  and  C_2
REMARK    2  A    between atoms: C_2  and  C_3
REMARK    3  A    between atoms: C_2  and  N_4
REMARK    4  A    between atoms: N_4  and  C_5
REMARK    5  A    between atoms: C_5  and  C_6
REMARK    6  A    between atoms: C_6  and  O_7
REMARK    7  A    between atoms: C_6  and  C_8
REMARK    8  A    between atoms: C_8  and  O_9
REMARK    9  A    between atoms: O_9  and  C_10
REMARK   10  A    between atoms: C_13  and  C_14
REMARK   11  A    between atoms: C_14  and  O_15
REMARK   12  A    between atoms: O_15  and  C_16
REMARK   13  A    between atoms: C_16  and  C_17
REMARK   14  A    between atoms: C_17  and  O_18
REMARK   15  A    between atoms: O_18  and  C_19
REMARK   16  A    between atoms: C_19  and  C_20
REMARK   17  A    between atoms: C_19  and  C_21
REMARK                            x       y       z     vdW  Elec       q    Type
REMARK                         _______ _______ _______ _____ _____    ______ ____
ROOT
ATOM      1  C   UNL     1       9.939  -1.747  23.305  0.00  0.00    +0.121 A 
ATOM      2  C   UNL     1      10.150  -0.825  24.334  0.00  0.00    +0.046 A 
ATOM      3  C   UNL     1      10.192   0.551  24.061  0.00  0.00    +0.009 A 
ATOM      4  C   UNL     1      10.021   1.017  22.752  0.00  0.00    -0.022 A 
ATOM      5  C   UNL     1       9.800   0.087  21.730  0.00  0.00    +0.009 A 
ATOM      6  C   UNL     1       9.753  -1.277  22.002  0.00  0.00    +0.046 A 
ENDROOT
BRANCH   1   7
ATOM      7  O   UNL     1       9.935  -3.072  23.667  0.00  0.00    -0.489 OA
BRANCH   7   8
ATOM      8  C   UNL     1       9.084  -3.387  24.781  0.00  0.00    +0.261 C 
BRANCH   8   9
ATOM      9  C   UNL     1       8.683  -4.865  24.760  0.00  0.00    +0.166 C 
BRANCH   9  10
ATOM     10  O   UNL     1       9.848  -5.697  24.830  0.00  0.00    -0.387 OA
ATOM     11  H   UNL     1       9.910  -6.004  25.753  0.00  0.00    +0.210 HD
ENDBRANCH   9  10
BRANCH   9  12
ATOM     12  C   UNL     1       7.867  -5.198  23.499  0.00  0.00    +0.115 C 
BRANCH  12  13
ATOM     13  N   UNL     1       7.086  -4.026  23.087  0.00  0.00    -0.311 NA
ATOM     14  H   UNL     1       6.739  -3.566  23.933  0.00  0.00    +0.122 HD
BRANCH  13  16
ATOM     15  C   UNL     1       6.374  -5.585  21.370  0.00  0.00    +0.023 C 
ATOM     16  C   UNL     1       5.975  -4.357  22.190  0.00  0.00    +0.048 C 
ATOM     17  C   UNL     1       4.688  -4.652  22.964  0.00  0.00    +0.023 C 
ENDBRANCH  13  16
ENDBRANCH  12  13
ENDBRANCH   9  12
ENDBRANCH   8   9
ENDBRANCH   7   8
ENDBRANCH   1   7
BRANCH   4  18
ATOM     18  C   UNL     1      10.074   2.482  22.407  0.00  0.00    +0.195 C 
BRANCH  18  19
ATOM     19  O   UNL     1       9.058   3.139  23.160  0.00  0.00    -0.373 OA
BRANCH  19  20
ATOM     20  C   UNL     1       9.589   3.934  24.215  0.00  0.00    +0.188 C 
BRANCH  20  21
ATOM     21  C   UNL     1       9.352   5.399  23.869  0.00  0.00    +0.188 C 
BRANCH  21  22
ATOM     22  O   UNL     1      10.508   5.944  23.236  0.00  0.00    -0.375 OA
BRANCH  22  23
ATOM     23  C   UNL     1      11.740   5.523  23.835  0.00  0.00    +0.112 C 
ATOM     24  C   UNL     1      12.150   6.609  24.824  0.00  0.00    +0.037 C 
ATOM     25  C   UNL     1      12.838   5.327  22.793  0.00  0.00    +0.037 C 
ENDBRANCH  22  23
ENDBRANCH  21  22
ENDBRANCH  20  21
ENDBRANCH  19  20
ENDBRANCH  18  19
ENDBRANCH   4  18
TORSDOF 13
ENDMDL
MODEL 7
REMARK VINA RESULT:      -5.8      2.971      8.582
REMARK  Name = 
REMARK  17 active torsions:
REMARK  status: ('A' for Active; 'I' for Inactive)
REMARK    1  A    between atoms: C_1  and  C_2
REMARK    2  A    between atoms: C_2  and  C_3
REMARK    3  A    between atoms: C_2  and  N_4
REMARK    4  A    between atoms: N_4  and  C_5
REMARK    5  A    between atoms: C_5  and  C_6
REMARK    6  A    between atoms: C_6  and  O_7
REMARK    7  A    between atoms: C_6  and  C_8
REMARK    8  A    between atoms: C_8  and  O_9
REMARK    9  A    between atoms: O_9  and  C_10
REMARK   10  A    between atoms: C_13  and  C_14
REMARK   11  A    between atoms: C_14  and  O_15
REMARK   12  A    between atoms: O_15  and  C_16
REMARK   13  A    between atoms: C_16  and  C_17
REMARK   14  A    between atoms: C_17  and  O_18
REMARK   15  A    between atoms: O_18  and  C_19
REMARK   16  A    between atoms: C_19  and  C_20
REMARK   17  A    between atoms: C_19  and  C_21
REMARK                            x       y       z     vdW  Elec       q    Type
REMARK                         _______ _______ _______ _____ _____    ______ ____
ROOT
ATOM      1  C   UNL     1       9.899  -2.031  23.578  0.00  0.00    +0.121 A 
ATOM      2  C   UNL     1       9.935  -1.010  24.532  0.00  0.00    +0.046 A 
ATOM      3  C   UNL     1       9.973   0.336  24.134  0.00  0.00    +0.009 A 
ATOM      4  C   UNL     1       9.973   0.671  22.775  0.00  0.00    -0.022 A 
ATOM      5  C   UNL     1       9.926  -0.357  21.828  0.00  0.00    +0.009 A 
ATOM      6  C   UNL     1       9.883  -1.691  22.222  0.00  0.00    +0.046 A 
ENDROOT
BRANCH   1   7
ATOM      7  O   UNL     1       9.885  -3.316  24.063  0.00  0.00    -0.489 OA
BRANCH   7   8
ATOM      8  C   UNL     1       9.192  -3.479  25.311  0.00  0.00    +0.261 C 
BRANCH   8   9
ATOM      9  C   UNL     1       8.765  -4.936  25.511  0.00  0.00    +0.166 C 
BRANCH   9  10
ATOM     10  O   UNL     1       9.834  -5.821  25.154  0.00  0.00    -0.387 OA
ATOM     11  H   UNL     1      10.295  -5.404  24.403  0.00  0.00    +0.210 HD
ENDBRANCH   9  10
BRANCH   9  12
ATOM     12  C   UNL     1       7.508  -5.262  24.686  0.00  0.00    +0.115 C 
BRANCH  12  13
ATOM     13  N   UNL     1       7.777  -5.038  23.260  0.00  0.00    -0.311 NA
ATOM     14  H   UNL     1       8.409  -4.237  23.182  0.00  0.00    +0.122 HD
BRANCH  13  16
ATOM     15  C   UNL     1       6.537  -3.346  22.042  0.00  0.00    +0.023 C 
ATOM     16  C   UNL     1       6.563  -4.814  22.471  0.00  0.00    +0.048 C 
ATOM     17  C   UNL     1       6.516  -5.711  21.232  0.00  0.00    +0.023 C 
ENDBRANCH  13  16
ENDBRANCH  12  13
ENDBRANCH   9  12
ENDBRANCH   8   9
ENDBRANCH   7   8
ENDBRANCH   1   7
BRANCH   4  18
ATOM     18  C   UNL     1      10.028   2.099  22.300  0.00  0.00    +0.195 C 
BRANCH  18  19
ATOM     19  O   UNL     1       8.944   2.797  22.906  0.00  0.00    -0.373 OA
BRANCH  19  20
ATOM     20  C   UNL     1       7.790   2.844  22.073  0.00  0.00    +0.188 C 
BRANCH  20  21
ATOM     21  C   UNL     1       7.061   4.154  22.346  0.00  0.00    +0.188 C 
BRANCH  21  22
ATOM     22  O   UNL     1       7.569   4.757  23.534  0.00  0.00    -0.375 OA
BRANCH  22  23
ATOM     23  C   UNL     1       7.892   6.144  23.378  0.00  0.00    +0.112 C 
ATOM     24  C   UNL     1       7.398   6.566  21.999  0.00  0.00    +0.037 C 
ATOM     25  C   UNL     1       9.395   6.392  23.491  0.00  0.00    +0.037 C 
ENDBRANCH  22  23
ENDBRANCH  21  22
ENDBRANCH  20  21
ENDBRANCH  19  20
ENDBRANCH  18  19
ENDBRANCH   4  18
TORSDOF 13
ENDMDL
MODEL 8
REMARK VINA RESULT:      -5.7      3.055      7.845
REMARK  Name = 
REMARK  17 active torsions:
REMARK  status: ('A' for Active; 'I' for Inactive)
REMARK    1  A    between atoms: C_1  and  C_2
REMARK    2  A    between atoms: C_2  and  C_3
REMARK    3  A    between atoms: C_2  and  N_4
REMARK    4  A    between atoms: N_4  and  C_5
REMARK    5  A    between atoms: C_5  and  C_6
REMARK    6  A    between atoms: C_6  and  O_7
REMARK    7  A    between atoms: C_6  and  C_8
REMARK    8  A    between atoms: C_8  and  O_9
REMARK    9  A    between atoms: O_9  and  C_10
REMARK   10  A    between atoms: C_13  and  C_14
REMARK   11  A    between atoms: C_14  and  O_15
REMARK   12  A    between atoms: O_15  and  C_16
REMARK   13  A    between atoms: C_16  and  C_17
REMARK   14  A    between atoms: C_17  and  O_18
REMARK   15  A    between atoms: O_18  and  C_19
REMARK   16  A    between atoms: C_19  and  C_20
REMARK   17  A    between atoms: C_19  and  C_21
REMARK                            x       y       z     vdW  Elec       q    Type
REMARK                         _______ _______ _______ _____ _____    ______ ____
ROOT
ATOM      1  C   UNL     1       9.742  -1.467  23.546  0.00  0.00    +0.121 A 
ATOM      2  C   UNL     1       9.901  -0.703  24.706  0.00  0.00    +0.046 A 
ATOM      3  C   UNL     1      10.138   0.678  24.622  0.00  0.00    +0.009 A 
ATOM      4  C   UNL     1      10.216   1.307  23.373  0.00  0.00    -0.022 A 
ATOM      5  C   UNL     1      10.045   0.536  22.220  0.00  0.00    +0.009 A 
ATOM      6  C   UNL     1       9.805  -0.833  22.303  0.00  0.00    +0.046 A 
ENDROOT
BRANCH   1   7
ATOM      7  O   UNL     1       9.535  -2.813  23.729  0.00  0.00    -0.489 OA
BRANCH   7   8
ATOM      8  C   UNL     1       9.218  -3.194  25.077  0.00  0.00    +0.261 C 
BRANCH   8   9
ATOM      9  C   UNL     1       8.808  -4.667  25.146  0.00  0.00    +0.166 C 
BRANCH   9  10
ATOM     10  O   UNL     1       9.892  -5.505  24.724  0.00  0.00    -0.387 OA
ATOM     11  H   UNL     1      10.446  -4.961  24.136  0.00  0.00    +0.210 HD
ENDBRANCH   9  10
BRANCH   9  12
ATOM     12  C   UNL     1       7.564  -4.936  24.282  0.00  0.00    +0.115 C 
BRANCH  12  13
ATOM     13  N   UNL     1       7.972  -5.411  22.954  0.00  0.00    -0.311 NA
ATOM     14  H   UNL     1       8.945  -5.127  22.804  0.00  0.00    +0.122 HD
BRANCH  13  16
ATOM     15  C   UNL     1       5.998  -5.927  21.643  0.00  0.00    +0.023 C 
ATOM     16  C   UNL     1       7.119  -4.912  21.873  0.00  0.00    +0.048 C 
ATOM     17  C   UNL     1       6.513  -3.548  22.210  0.00  0.00    +0.023 C 
ENDBRANCH  13  16
ENDBRANCH  12  13
ENDBRANCH   9  12
ENDBRANCH   8   9
ENDBRANCH   7   8
ENDBRANCH   1   7
BRANCH   4  18
ATOM     18  C   UNL     1      10.483   2.782  23.233  0.00  0.00    +0.195 C 
BRANCH  18  19
ATOM     19  O   UNL     1       9.699   3.458  24.211  0.00  0.00    -0.373 OA
BRANCH  19  20
ATOM     20  C   UNL     1       9.003   4.578  23.675  0.00  0.00    +0.188 C 
BRANCH  20  21
ATOM     21  C   UNL     1       7.508   4.324  23.825  0.00  0.00    +0.188 C 
BRANCH  21  22
ATOM     22  O   UNL     1       7.287   3.031  24.383  0.00  0.00    -0.375 OA
BRANCH  22  23
ATOM     23  C   UNL     1       6.396   2.218  23.609  0.00  0.00    +0.112 C 
ATOM     24  C   UNL     1       6.499   0.798  24.154  0.00  0.00    +0.037 C 
ATOM     25  C   UNL     1       6.761   2.233  22.125  0.00  0.00    +0.037 C 
ENDBRANCH  22  23
ENDBRANCH  21  22
ENDBRANCH  20  21
ENDBRANCH  19  20
ENDBRANCH  18  19
ENDBRANCH   4  18
TORSDOF 13
ENDMDL
MODEL 9
REMARK VINA RESULT:      -5.7      2.879      5.011
REMARK  Name = 
REMARK  17 active torsions:
REMARK  status: ('A' for Active; 'I' for Inactive)
REMARK    1  A    between atoms: C_1  and  C_2
REMARK    2  A    between atoms: C_2  and  C_3
REMARK    3  A    between atoms: C_2  and  N_4
REMARK    4  A    between atoms: N_4  and  C_5
REMARK    5  A    between atoms: C_5  and  C_6
REMARK    6  A    between atoms: C_6  and  O_7
REMARK    7  A    between atoms: C_6  and  C_8
REMARK    8  A    between atoms: C_8  and  O_9
REMARK    9  A    between atoms: O_9  and  C_10
REMARK   10  A    between atoms: C_13  and  C_14
REMARK   11  A    between atoms: C_14  and  O_15
REMARK   12  A    between atoms: O_15  and  C_16
REMARK   13  A    between atoms: C_16  and  C_17
REMARK   14  A    between atoms: C_17  and  O_18
REMARK   15  A    between atoms: O_18  and  C_19
REMARK   16  A    between atoms: C_19  and  C_20
REMARK   17  A    between atoms: C_19  and  C_21
REMARK                            x       y       z     vdW  Elec       q    Type
REMARK                         _______ _______ _______ _____ _____    ______ ____
ROOT
ATOM      1  C   UNL     1       9.342  -2.945  24.407  0.00  0.00    +0.121 A 
ATOM      2  C   UNL     1       8.296  -2.299  25.071  0.00  0.00    +0.046 A 
ATOM      3  C   UNL     1       7.518  -2.989  26.016  0.00  0.00    +0.009 A 
ATOM      4  C   UNL     1       7.785  -4.333  26.305  0.00  0.00    -0.022 A 
ATOM      5  C   UNL     1       8.840  -4.967  25.642  0.00  0.00    +0.009 A 
ATOM      6  C   UNL     1       9.615  -4.282  24.710  0.00  0.00    +0.046 A 
ENDROOT
BRANCH   1   7
ATOM      7  O   UNL     1      10.032  -2.194  23.486  0.00  0.00    -0.489 OA
BRANCH   7   8
ATOM      8  C   UNL     1       9.801  -0.779  23.571  0.00  0.00    +0.261 C 
BRANCH   8   9
ATOM      9  C   UNL     1       9.422  -0.206  22.203  0.00  0.00    +0.166 C 
BRANCH   9  10
ATOM     10  O   UNL     1       9.881  -1.072  21.156  0.00  0.00    -0.387 OA
ATOM     11  H   UNL     1       9.477  -0.743  20.332  0.00  0.00    +0.210 HD
ENDBRANCH   9  10
BRANCH   9  12
ATOM     12  C   UNL     1      10.003   1.206  22.015  0.00  0.00    +0.115 C 
BRANCH  12  13
ATOM     13  N   UNL     1       8.947   2.124  21.570  0.00  0.00    -0.311 NA
ATOM     14  H   UNL     1       9.378   2.831  20.968  0.00  0.00    +0.122 HD
BRANCH  13  16
ATOM     15  C   UNL     1       9.261   3.286  23.676  0.00  0.00    +0.023 C 
ATOM     16  C   UNL     1       8.229   2.760  22.677  0.00  0.00    +0.048 C 
ATOM     17  C   UNL     1       7.347   3.915  22.195  0.00  0.00    +0.023 C 
ENDBRANCH  13  16
ENDBRANCH  12  13
ENDBRANCH   9  12
ENDBRANCH   8   9
ENDBRANCH   7   8
ENDBRANCH   1   7
BRANCH   4  18
ATOM     18  C   UNL     1       6.969  -5.118  27.298  0.00  0.00    +0.195 C 
BRANCH  18  19
ATOM     19  O   UNL     1       6.365  -6.202  26.598  0.00  0.00    -0.373 OA
BRANCH  19  20
ATOM     20  C   UNL     1       5.114  -5.848  26.019  0.00  0.00    +0.188 C 
BRANCH  20  21
ATOM     21  C   UNL     1       5.098  -6.351  24.580  0.00  0.00    +0.188 C 
BRANCH  21  22
ATOM     22  O   UNL     1       5.002  -5.250  23.679  0.00  0.00    -0.375 OA
BRANCH  22  23
ATOM     23  C   UNL     1       6.241  -4.927  23.036  0.00  0.00    +0.112 C 
ATOM     24  C   UNL     1       6.013  -3.645  22.244  0.00  0.00    +0.037 C 
ATOM     25  C   UNL     1       6.701  -6.043  22.100  0.00  0.00    +0.037 C 
ENDBRANCH  22  23
ENDBRANCH  21  22
ENDBRANCH  20  21
ENDBRANCH  19  20
ENDBRANCH  18  19
ENDBRANCH   4  18
TORSDOF 13
ENDMDL
