MODEL 1
REMARK VINA RESULT:      -4.1      0.000      0.000
REMARK  Name = 
REMARK  6 active torsions:
REMARK  status: ('A' for Active; 'I' for Inactive)
REMARK    1  A    between atoms: N_1  and  C_2
REMARK    2  A    between atoms: C_2  and  C_4
REMARK    3  A    between atoms: C_2  and  C_9
REMARK    4  A    between atoms: C_4  and  S_5
REMARK    5  A    between atoms: S_5  and  O_6
REMARK    6  A    between atoms: C_9  and  O_10
REMARK                            x       y       z     vdW  Elec       q    Type
REMARK                         _______ _______ _______ _____ _____    ______ ____
ROOT
ATOM      1  C   UNK     1       8.966  -4.745  26.209  0.00  0.00    +0.184 C 
ENDROOT
BRANCH   1   2
ATOM      2  N   UNK     1       9.801  -5.563  25.273  0.00  0.00    -0.317 NA
ATOM      3  H   UNK     1       9.665  -6.567  25.467  0.00  0.00    +0.119 HD
ATOM      4  H   UNK     1       9.430  -5.451  24.325  0.00  0.00    +0.119 HD
ENDBRANCH   1   2
BRANCH   1   5
ATOM      5  C   UNK     1       7.667  -5.494  26.528  0.00  0.00    +0.323 C 
ATOM      6  O   UNK     1       6.711  -5.563  25.774  0.00  0.00    -0.249 OA
BRANCH   5   7
ATOM      7  O   UNK     1       7.690  -6.027  27.774  0.00  0.00    -0.479 OA
ATOM      8  H   UNK     1       8.639  -6.202  27.991  0.00  0.00    +0.295 HD
ENDBRANCH   5   7
ENDBRANCH   1   5
BRANCH   1   9
ATOM      9  C   UNK     1       8.678  -3.317  25.769  0.00  0.00    +0.227 C 
BRANCH   9  10
ATOM     10  S   UNK     1       8.897  -3.083  24.018  0.00  0.00    +0.082 S 
ATOM     11  O   UNK     1       8.057  -3.970  23.259  0.00  0.00    -0.147 OA
ATOM     12  O   UNK     1      10.315  -2.944  23.755  0.00  0.00    -0.147 OA
BRANCH  10  13
ATOM     13  O   UNK     1       8.282  -1.595  23.912  0.00  0.00    -0.254 OA
ATOM     14  H   UNK     1       7.359  -1.615  24.245  0.00  0.00    +0.244 HD
ENDBRANCH  10  13
ENDBRANCH   9  10
ENDBRANCH   1   9
TORSDOF 6
ENDMDL
MODEL 2
REMARK VINA RESULT:      -4.0      4.511      6.271
REMARK  Name = 
REMARK  6 active torsions:
REMARK  status: ('A' for Active; 'I' for Inactive)
REMARK    1  A    between atoms: N_1  and  C_2
REMARK    2  A    between atoms: C_2  and  C_4
REMARK    3  A    between atoms: C_2  and  C_9
REMARK    4  A    between atoms: C_4  and  S_5
REMARK    5  A    between atoms: S_5  and  O_6
REMARK    6  A    between atoms: C_9  and  O_10
REMARK                            x       y       z     vdW  Elec       q    Type
REMARK                         _______ _______ _______ _____ _____    ______ ____
ROOT
ATOM      1  C   UNK     1      10.252   0.677  23.511  0.00  0.00    +0.184 C 
ENDROOT
BRANCH   1   2
ATOM      2  N   UNK     1      10.576   0.666  24.973  0.00  0.00    -0.317 NA
ATOM      3  H   UNK     1       9.789   1.061  25.510  0.00  0.00    +0.119 HD
ATOM      4  H   UNK     1      10.615  -0.308  25.289  0.00  0.00    +0.119 HD
ENDBRANCH   1   2
BRANCH   1   5
ATOM      5  C   UNK     1      10.245   2.120  22.996  0.00  0.00    +0.323 C 
ATOM      6  O   UNK     1      10.234   3.106  23.714  0.00  0.00    -0.249 OA
BRANCH   5   7
ATOM      7  O   UNK     1      10.198   2.168  21.642  0.00  0.00    -0.479 OA
ATOM      8  H   UNK     1      11.067   2.529  21.340  0.00  0.00    +0.295 HD
ENDBRANCH   5   7
ENDBRANCH   1   5
BRANCH   1   9
ATOM      9  C   UNK     1       8.980  -0.054  23.105  0.00  0.00    +0.227 C 
BRANCH   9  10
ATOM     10  S   UNK     1       9.276  -1.760  22.690  0.00  0.00    +0.082 S 
ATOM     11  O   UNK     1       8.075  -2.407  22.233  0.00  0.00    -0.147 OA
ATOM     12  O   UNK     1      10.125  -2.334  23.713  0.00  0.00    -0.147 OA
BRANCH  10  13
ATOM     13  O   UNK     1      10.231  -1.517  21.412  0.00  0.00    -0.254 OA
ATOM     14  H   UNK     1      11.151  -1.753  21.661  0.00  0.00    +0.244 HD
ENDBRANCH  10  13
ENDBRANCH   9  10
ENDBRANCH   1   9
TORSDOF 6
ENDMDL
MODEL 3
REMARK VINA RESULT:      -3.9      2.376      2.948
REMARK  Name = 
REMARK  6 active torsions:
REMARK  status: ('A' for Active; 'I' for Inactive)
REMARK    1  A    between atoms: N_1  and  C_2
REMARK    2  A    between atoms: C_2  and  C_4
REMARK    3  A    between atoms: C_2  and  C_9
REMARK    4  A    between atoms: C_4  and  S_5
REMARK    5  A    between atoms: S_5  and  O_6
REMARK    6  A    between atoms: C_9  and  O_10
REMARK                            x       y       z     vdW  Elec       q    Type
REMARK                         _______ _______ _______ _____ _____    ______ ____
ROOT
ATOM      1  C   UNK     1       6.600  -5.499  26.587  0.00  0.00    +0.184 C 
ENDROOT
BRANCH   1   2
ATOM      2  N   UNK     1       7.459  -6.019  27.698  0.00  0.00    -0.317 NA
ATOM      3  H   UNK     1       8.423  -5.667  27.590  0.00  0.00    +0.119 HD
ATOM      4  H   UNK     1       7.147  -5.593  28.576  0.00  0.00    +0.119 HD
ENDBRANCH   1   2
BRANCH   1   5
ATOM      5  C   UNK     1       5.390  -6.420  26.399  0.00  0.00    +0.323 C 
ATOM      6  O   UNK     1       4.634  -6.374  25.442  0.00  0.00    -0.249 OA
BRANCH   5   7
ATOM      7  O   UNK     1       5.229  -7.258  27.452  0.00  0.00    -0.479 OA
ATOM      8  H   UNK     1       5.905  -7.000  28.126  0.00  0.00    +0.295 HD
ENDBRANCH   5   7
ENDBRANCH   1   5
BRANCH   1   9
ATOM      9  C   UNK     1       7.305  -5.246  25.262  0.00  0.00    +0.227 C 
BRANCH   9  10
ATOM     10  S   UNK     1       8.954  -4.610  25.476  0.00  0.00    +0.082 S 
ATOM     11  O   UNK     1       9.091  -3.912  26.726  0.00  0.00    -0.147 OA
ATOM     12  O   UNK     1       9.384  -4.037  24.217  0.00  0.00    -0.147 OA
BRANCH  10  13
ATOM     13  O   UNK     1       9.724  -6.022  25.602  0.00  0.00    -0.254 OA
ATOM     14  H   UNK     1      10.397  -6.075  24.890  0.00  0.00    +0.244 HD
ENDBRANCH  10  13
ENDBRANCH   9  10
ENDBRANCH   1   9
TORSDOF 6
ENDMDL
MODEL 4
REMARK VINA RESULT:      -3.9      4.078      5.314
REMARK  Name = 
REMARK  6 active torsions:
REMARK  status: ('A' for Active; 'I' for Inactive)
REMARK    1  A    between atoms: N_1  and  C_2
REMARK    2  A    between atoms: C_2  and  C_4
REMARK    3  A    between atoms: C_2  and  C_9
REMARK    4  A    between atoms: C_4  and  S_5
REMARK    5  A    between atoms: S_5  and  O_6
REMARK    6  A    between atoms: C_9  and  O_10
REMARK                            x       y       z     vdW  Elec       q    Type
REMARK                         _______ _______ _______ _____ _____    ______ ____
ROOT
ATOM      1  C   UNK     1      10.310  -1.049  22.504  0.00  0.00    +0.184 C 
ENDROOT
BRANCH   1   2
ATOM      2  N   UNK     1       9.641  -0.856  21.178  0.00  0.00    -0.317 NA
ATOM      3  H   UNK     1       9.098  -1.698  20.933  0.00  0.00    +0.119 HD
ATOM      4  H   UNK     1       8.924  -0.131  21.280  0.00  0.00    +0.119 HD
ENDBRANCH   1   2
BRANCH   1   5
ATOM      5  C   UNK     1       9.590  -2.152  23.287  0.00  0.00    +0.323 C 
ATOM      6  O   UNK     1      10.157  -3.034  23.911  0.00  0.00    -0.249 OA
BRANCH   5   7
ATOM      7  O   UNK     1       8.244  -2.059  23.161  0.00  0.00    -0.479 OA
ATOM      8  H   UNK     1       8.069  -1.653  22.276  0.00  0.00    +0.295 HD
ENDBRANCH   5   7
ENDBRANCH   1   5
BRANCH   1   9
ATOM      9  C   UNK     1      10.479   0.203  23.353  0.00  0.00    +0.227 C 
BRANCH   9  10
ATOM     10  S   UNK     1       9.291   1.466  22.952  0.00  0.00    +0.082 S 
ATOM     11  O   UNK     1       9.387   2.585  23.851  0.00  0.00    -0.147 OA
ATOM     12  O   UNK     1       8.030   0.822  22.649  0.00  0.00    -0.147 OA
BRANCH  10  13
ATOM     13  O   UNK     1       9.910   1.911  21.530  0.00  0.00    -0.254 OA
ATOM     14  H   UNK     1       9.498   1.365  20.826  0.00  0.00    +0.244 HD
ENDBRANCH  10  13
ENDBRANCH   9  10
ENDBRANCH   1   9
TORSDOF 6
ENDMDL
MODEL 5
REMARK VINA RESULT:      -3.8      4.610      5.905
REMARK  Name = 
REMARK  6 active torsions:
REMARK  status: ('A' for Active; 'I' for Inactive)
REMARK    1  A    between atoms: N_1  and  C_2
REMARK    2  A    between atoms: C_2  and  C_4
REMARK    3  A    between atoms: C_2  and  C_9
REMARK    4  A    between atoms: C_4  and  S_5
REMARK    5  A    between atoms: S_5  and  O_6
REMARK    6  A    between atoms: C_9  and  O_10
REMARK                            x       y       z     vdW  Elec       q    Type
REMARK                         _______ _______ _______ _____ _____    ______ ____
ROOT
ATOM      1  C   UNK     1       9.580  -0.375  23.579  0.00  0.00    +0.184 C 
ENDROOT
BRANCH   1   2
ATOM      2  N   UNK     1      10.736   0.541  23.838  0.00  0.00    -0.317 NA
ATOM      3  H   UNK     1      11.505   0.330  23.184  0.00  0.00    +0.119 HD
ATOM      4  H   UNK     1      10.458   1.494  23.579  0.00  0.00    +0.119 HD
ENDBRANCH   1   2
BRANCH   1   5
ATOM      5  C   UNK     1      10.078  -1.649  22.888  0.00  0.00    +0.323 C 
ATOM      6  O   UNK     1      10.321  -2.695  23.467  0.00  0.00    -0.249 OA
BRANCH   5   7
ATOM      7  O   UNK     1      10.268  -1.457  21.560  0.00  0.00    -0.479 OA
ATOM      8  H   UNK     1      10.272  -2.352  21.141  0.00  0.00    +0.295 HD
ENDBRANCH   5   7
ENDBRANCH   1   5
BRANCH   1   9
ATOM      9  C   UNK     1       8.405   0.231  22.825  0.00  0.00    +0.227 C 
BRANCH   9  10
ATOM     10  S   UNK     1       8.651   1.953  22.446  0.00  0.00    +0.082 S 
ATOM     11  O   UNK     1       9.074   2.692  23.605  0.00  0.00    -0.147 OA
ATOM     12  O   UNK     1       7.558   2.391  21.603  0.00  0.00    -0.147 OA
BRANCH  10  13
ATOM     13  O   UNK     1       9.922   1.786  21.466  0.00  0.00    -0.254 OA
ATOM     14  H   UNK     1       9.605   1.455  20.598  0.00  0.00    +0.244 HD
ENDBRANCH  10  13
ENDBRANCH   9  10
ENDBRANCH   1   9
TORSDOF 6
ENDMDL
MODEL 6
REMARK VINA RESULT:      -3.8      3.906      5.934
REMARK  Name = 
REMARK  6 active torsions:
REMARK  status: ('A' for Active; 'I' for Inactive)
REMARK    1  A    between atoms: N_1  and  C_2
REMARK    2  A    between atoms: C_2  and  C_4
REMARK    3  A    between atoms: C_2  and  C_9
REMARK    4  A    between atoms: C_4  and  S_5
REMARK    5  A    between atoms: S_5  and  O_6
REMARK    6  A    between atoms: C_9  and  O_10
REMARK                            x       y       z     vdW  Elec       q    Type
REMARK                         _______ _______ _______ _____ _____    ______ ____
ROOT
ATOM      1  C   UNK     1       9.029   0.021  21.997  0.00  0.00    +0.184 C 
ENDROOT
BRANCH   1   2
ATOM      2  N   UNK     1       9.763  -0.944  21.119  0.00  0.00    -0.317 NA
ATOM      3  H   UNK     1       9.291  -1.861  21.132  0.00  0.00    +0.119 HD
ATOM      4  H   UNK     1       9.662  -0.638  20.146  0.00  0.00    +0.119 HD
ENDBRANCH   1   2
BRANCH   1   5
ATOM      5  C   UNK     1       9.979   1.137  22.443  0.00  0.00    +0.323 C 
ATOM      6  O   UNK     1      10.568   1.153  23.511  0.00  0.00    -0.249 OA
BRANCH   5   7
ATOM      7  O   UNK     1      10.044   2.134  21.527  0.00  0.00    -0.479 OA
ATOM      8  H   UNK     1       9.809   1.734  20.654  0.00  0.00    +0.295 HD
ENDBRANCH   5   7
ENDBRANCH   1   5
BRANCH   1   9
ATOM      9  C   UNK     1       8.300  -0.585  23.189  0.00  0.00    +0.227 C 
BRANCH   9  10
ATOM     10  S   UNK     1       8.683  -2.308  23.420  0.00  0.00    +0.082 S 
ATOM     11  O   UNK     1      10.080  -2.504  23.699  0.00  0.00    -0.147 OA
ATOM     12  O   UNK     1       7.981  -3.067  22.406  0.00  0.00    -0.147 OA
BRANCH  10  13
ATOM     13  O   UNK     1       7.861  -2.537  24.789  0.00  0.00    -0.254 OA
ATOM     14  H   UNK     1       7.253  -3.298  24.664  0.00  0.00    +0.244 HD
ENDBRANCH  10  13
ENDBRANCH   9  10
ENDBRANCH   1   9
TORSDOF 6
ENDMDL
MODEL 7
REMARK VINA RESULT:      -3.8      2.655      3.106
REMARK  Name = 
REMARK  6 active torsions:
REMARK  status: ('A' for Active; 'I' for Inactive)
REMARK    1  A    between atoms: N_1  and  C_2
REMARK    2  A    between atoms: C_2  and  C_4
REMARK    3  A    between atoms: C_2  and  C_9
REMARK    4  A    between atoms: C_4  and  S_5
REMARK    5  A    between atoms: S_5  and  O_6
REMARK    6  A    between atoms: C_9  and  O_10
REMARK                            x       y       z     vdW  Elec       q    Type
REMARK                         _______ _______ _______ _____ _____    ______ ____
ROOT
ATOM      1  C   UNK     1       7.262  -3.316  23.513  0.00  0.00    +0.184 C 
ENDROOT
BRANCH   1   2
ATOM      2  N   UNK     1       7.535  -2.827  24.901  0.00  0.00    -0.317 NA
ATOM      3  H   UNK     1       8.506  -2.486  24.969  0.00  0.00    +0.119 HD
ATOM      4  H   UNK     1       6.975  -1.985  25.065  0.00  0.00    +0.119 HD
ENDBRANCH   1   2
BRANCH   1   5
ATOM      5  C   UNK     1       7.406  -4.840  23.465  0.00  0.00    +0.323 C 
ATOM      6  O   UNK     1       6.522  -5.604  23.114  0.00  0.00    -0.249 OA
BRANCH   5   7
ATOM      7  O   UNK     1       8.621  -5.242  23.912  0.00  0.00    -0.479 OA
ATOM      8  H   UNK     1       8.795  -6.127  23.506  0.00  0.00    +0.295 HD
ENDBRANCH   5   7
ENDBRANCH   1   5
BRANCH   1   9
ATOM      9  C   UNK     1       8.069  -2.656  22.403  0.00  0.00    +0.227 C 
BRANCH   9  10
ATOM     10  S   UNK     1       9.556  -1.884  23.007  0.00  0.00    +0.082 S 
ATOM     11  O   UNK     1      10.382  -2.820  23.721  0.00  0.00    -0.147 OA
ATOM     12  O   UNK     1       9.204  -0.589  23.550  0.00  0.00    -0.147 OA
BRANCH  10  13
ATOM     13  O   UNK     1      10.249  -1.589  21.580  0.00  0.00    -0.254 OA
ATOM     14  H   UNK     1      10.580  -0.665  21.580  0.00  0.00    +0.244 HD
ENDBRANCH  10  13
ENDBRANCH   9  10
ENDBRANCH   1   9
TORSDOF 6
ENDMDL
MODEL 8
REMARK VINA RESULT:      -3.7      2.838      3.858
REMARK  Name = 
REMARK  6 active torsions:
REMARK  status: ('A' for Active; 'I' for Inactive)
REMARK    1  A    between atoms: N_1  and  C_2
REMARK    2  A    between atoms: C_2  and  C_4
REMARK    3  A    between atoms: C_2  and  C_9
REMARK    4  A    between atoms: C_4  and  S_5
REMARK    5  A    between atoms: S_5  and  O_6
REMARK    6  A    between atoms: C_9  and  O_10
REMARK                            x       y       z     vdW  Elec       q    Type
REMARK                         _______ _______ _______ _____ _____    ______ ____
ROOT
ATOM      1  C   UNK     1       7.451  -4.443  24.632  0.00  0.00    +0.184 C 
ENDROOT
BRANCH   1   2
ATOM      2  N   UNK     1       7.787  -3.813  23.316  0.00  0.00    -0.317 NA
ATOM      3  H   UNK     1       8.529  -4.355  22.846  0.00  0.00    +0.119 HD
ATOM      4  H   UNK     1       6.982  -3.921  22.690  0.00  0.00    +0.119 HD
ENDBRANCH   1   2
BRANCH   1   5
ATOM      5  C   UNK     1       8.687  -5.155  25.192  0.00  0.00    +0.323 C 
ATOM      6  O   UNK     1       9.790  -5.132  24.670  0.00  0.00    -0.249 OA
BRANCH   5   7
ATOM      7  O   UNK     1       8.394  -5.859  26.312  0.00  0.00    -0.479 OA
ATOM      8  H   UNK     1       7.453  -6.149  26.228  0.00  0.00    +0.295 HD
ENDBRANCH   5   7
ENDBRANCH   1   5
BRANCH   1   9
ATOM      9  C   UNK     1       6.240  -5.365  24.639  0.00  0.00    +0.227 C 
BRANCH   9  10
ATOM     10  S   UNK     1       5.753  -5.867  23.002  0.00  0.00    +0.082 S 
ATOM     11  O   UNK     1       6.880  -6.323  22.234  0.00  0.00    -0.147 OA
ATOM     12  O   UNK     1       4.811  -4.892  22.492  0.00  0.00    -0.147 OA
BRANCH  10  13
ATOM     13  O   UNK     1       4.873  -7.155  23.416  0.00  0.00    -0.254 OA
ATOM     14  H   UNK     1       4.588  -7.614  22.596  0.00  0.00    +0.244 HD
ENDBRANCH  10  13
ENDBRANCH   9  10
ENDBRANCH   1   9
TORSDOF 6
ENDMDL
MODEL 9
REMARK VINA RESULT:      -3.7      5.005      6.491
REMARK  Name = 
REMARK  6 active torsions:
REMARK  status: ('A' for Active; 'I' for Inactive)
REMARK    1  A    between atoms: N_1  and  C_2
REMARK    2  A    between atoms: C_2  and  C_4
REMARK    3  A    between atoms: C_2  and  C_9
REMARK    4  A    between atoms: C_4  and  S_5
REMARK    5  A    between atoms: S_5  and  O_6
REMARK    6  A    between atoms: C_9  and  O_10
REMARK                            x       y       z     vdW  Elec       q    Type
REMARK                         _______ _______ _______ _____ _____    ______ ____
ROOT
ATOM      1  C   UNK     1       9.185   1.155  21.942  0.00  0.00    +0.184 C 
ENDROOT
BRANCH   1   2
ATOM      2  N   UNK     1      10.277   2.134  21.645  0.00  0.00    -0.317 NA
ATOM      3  H   UNK     1      10.034   3.060  22.030  0.00  0.00    +0.119 HD
ATOM      4  H   UNK     1      11.109   1.865  22.179  0.00  0.00    +0.119 HD
ENDBRANCH   1   2
BRANCH   1   5
ATOM      5  C   UNK     1       7.850   1.895  22.068  0.00  0.00    +0.323 C 
ATOM      6  O   UNK     1       6.773   1.347  22.240  0.00  0.00    -0.249 OA
BRANCH   5   7
ATOM      7  O   UNK     1       8.002   3.232  21.910  0.00  0.00    -0.479 OA
ATOM      8  H   UNK     1       7.619   3.659  22.716  0.00  0.00    +0.295 HD
ENDBRANCH   5   7
ENDBRANCH   1   5
BRANCH   1   9
ATOM      9  C   UNK     1       9.417   0.241  23.137  0.00  0.00    +0.227 C 
BRANCH   9  10
ATOM     10  S   UNK     1       9.279  -1.483  22.716  0.00  0.00    +0.082 S 
ATOM     11  O   UNK     1       7.935  -1.826  22.335  0.00  0.00    -0.147 OA
ATOM     12  O   UNK     1      10.027  -2.249  23.691  0.00  0.00    -0.147 OA
BRANCH  10  13
ATOM     13  O   UNK     1      10.188  -1.461  21.383  0.00  0.00    -0.254 OA
ATOM     14  H   UNK     1      11.009  -1.970  21.558  0.00  0.00    +0.244 HD
ENDBRANCH  10  13
ENDBRANCH   9  10
ENDBRANCH   1   9
TORSDOF 6
ENDMDL
