MODEL 1
REMARK VINA RESULT:      -7.9      0.000      0.000
REMARK  Name = 
REMARK  11 active torsions:
REMARK  status: ('A' for Active; 'I' for Inactive)
REMARK    1  A    between atoms: C_10  and  C_12
REMARK    2  A    between atoms: C_12  and  N_13
REMARK    3  A    between atoms: N_13  and  C_14
REMARK    4  A    between atoms: C_17  and  C_20
REMARK    5  A    between atoms: N_22  and  CA_23
REMARK    6  A    between atoms: CA_23  and  CB_25
REMARK    7  A    between atoms: CA_23  and  C_30
REMARK    8  A    between atoms: CB_25  and  CG_26
REMARK    9  A    between atoms: CG_26  and  CD_27
REMARK   10  A    between atoms: CD_27  and  OE1_28
REMARK   11  A    between atoms: C_30  and  O_31
REMARK                            x       y       z     vdW  Elec       q    Type
REMARK                         _______ _______ _______ _____ _____    ______ ____
ROOT
ATOM      1  N   UNK A   0       8.776   2.239  21.602  0.00  0.00    -0.342 N 
ATOM      2  H   UNK A   0       9.767   2.437  21.735  0.00  0.00    +0.146 HD
ENDROOT
BRANCH   1   3
ATOM      3  C   UNK A   0       8.525   0.874  21.802  0.00  0.00    +0.027 A 
ATOM      4  C   UNK A   0       7.325   0.515  22.434  0.00  0.00    +0.023 A 
ATOM      5  C   UNK A   0       7.030  -0.813  22.777  0.00  0.00    +0.015 A 
ATOM      6  C   UNK A   0       7.955  -1.826  22.521  0.00  0.00    +0.037 A 
ATOM      7  C   UNK A   0       9.168  -1.477  21.908  0.00  0.00    +0.015 A 
ATOM      8  C   UNK A   0       9.452  -0.143  21.566  0.00  0.00    +0.023 A 
BRANCH   6   9
ATOM      9  C   UNK A   0       7.762  -3.246  22.959  0.00  0.00    +0.245 C 
ATOM     10  N   GLU A   1       7.829  -3.525  24.314  0.00  0.00    -0.298 N 
ATOM     11  H   GLU A   1       7.666  -2.784  24.984  0.00  0.00    +0.150 HD
ATOM     12  O   UNK A   0       7.576  -4.130  22.129  0.00  0.00    -0.270 OA
BRANCH  10  13
ATOM     13  CA  GLU A   1       7.765  -4.912  24.823  0.00  0.00    +0.182 C 
BRANCH  13  14
ATOM     14  C   GLU A   1       8.963  -5.150  25.764  0.00  0.00    +0.325 C 
ATOM     15  OXT GLU A   1       9.074  -4.700  26.893  0.00  0.00    -0.249 OA
BRANCH  14  16
ATOM     16  O   GLU A   1       9.881  -6.002  25.234  0.00  0.00    -0.479 OA
ATOM     17  H   GLU A   1      10.160  -5.679  24.353  0.00  0.00    +0.295 HD
ENDBRANCH  14  16
ENDBRANCH  13  14
BRANCH  13  18
ATOM     18  CB  GLU A   1       6.450  -5.227  25.543  0.00  0.00    +0.045 C 
BRANCH  18  19
ATOM     19  CG  GLU A   1       5.223  -5.146  24.636  0.00  0.00    +0.123 C 
BRANCH  19  20
ATOM     20  CD  GLU A   1       5.014  -6.426  23.864  0.00  0.00    +0.305 C 
ATOM     21  OE2 GLU A   1       4.454  -7.424  24.290  0.00  0.00    -0.251 OA
BRANCH  20  22
ATOM     22  OE1 GLU A   1       5.496  -6.350  22.602  0.00  0.00    -0.481 OA
ATOM     23  HE1 GLU A   1       5.270  -5.516  22.147  0.00  0.00    +0.295 HD
ENDBRANCH  20  22
ENDBRANCH  19  20
ENDBRANCH  18  19
ENDBRANCH  13  18
ENDBRANCH  10  13
ENDBRANCH   6   9
ENDBRANCH   1   3
BRANCH   1  24
ATOM     24  C   UNK A   0       7.936   3.244  22.271  0.00  0.00    +0.126 C 
BRANCH  24  35
ATOM     25  N   UNK A   0       7.268  -1.186  26.943  0.00  0.00    -0.329 N 
ATOM     26  H   UNK A   0       6.799  -0.891  27.791  0.00  0.00    +0.145 HD
ATOM     27  H   UNK A   0       7.828  -2.018  27.107  0.00  0.00    +0.145 HD
ATOM     28  C   UNK A   0       7.989  -0.231  26.311  0.00  0.00    +0.195 A 
ATOM     29  N   UNK A   0       7.364   0.958  26.213  0.00  0.00    -0.315 N 
ATOM     30  H   UNK A   0       6.409   1.052  26.518  0.00  0.00    +0.170 HD
ATOM     31  C   UNK A   0       7.888   1.992  25.494  0.00  0.00    +0.126 A 
ATOM     32  N   UNK A   0       7.146   3.149  25.346  0.00  0.00    -0.327 N 
ATOM     33  H   UNK A   0       6.139   3.048  25.390  0.00  0.00    +0.148 HD
ATOM     34  C   UNK A   0       7.654   4.292  24.600  0.00  0.00    +0.127 C 
ATOM     35  C   UNK A   0       8.652   3.835  23.519  0.00  0.00    +0.115 C 
ATOM     36  N   UNK A   0       9.628   2.862  24.081  0.00  0.00    -0.261 N 
ATOM     37  C   UNK A   0      10.929   2.939  23.613  0.00  0.00    +0.333 C 
ATOM     38  O   UNK A   0      11.307   3.729  22.753  0.00  0.00    -0.279 OA
ATOM     39  C   UNK A   0       9.118   1.855  24.926  0.00  0.00    +0.142 A 
ATOM     40  C   UNK A   0       9.836   0.528  25.182  0.00  0.00    +0.298 A 
ATOM     41  O   UNK A   0      10.973   0.343  24.760  0.00  0.00    -0.264 OA
ATOM     42  N   UNK A   0       9.161  -0.481  25.837  0.00  0.00    -0.176 NA
ENDBRANCH  24  35
ENDBRANCH   1  24
TORSDOF 11
ENDMDL
MODEL 2
REMARK VINA RESULT:      -7.8      1.706      2.200
REMARK  Name = 
REMARK  11 active torsions:
REMARK  status: ('A' for Active; 'I' for Inactive)
REMARK    1  A    between atoms: C_10  and  C_12
REMARK    2  A    between atoms: C_12  and  N_13
REMARK    3  A    between atoms: N_13  and  C_14
REMARK    4  A    between atoms: C_17  and  C_20
REMARK    5  A    between atoms: N_22  and  CA_23
REMARK    6  A    between atoms: CA_23  and  CB_25
REMARK    7  A    between atoms: CA_23  and  C_30
REMARK    8  A    between atoms: CB_25  and  CG_26
REMARK    9  A    between atoms: CG_26  and  CD_27
REMARK   10  A    between atoms: CD_27  and  OE1_28
REMARK   11  A    between atoms: C_30  and  O_31
REMARK                            x       y       z     vdW  Elec       q    Type
REMARK                         _______ _______ _______ _____ _____    ______ ____
ROOT
ATOM      1  N   UNK A   0       9.802   0.447  21.630  0.00  0.00    -0.342 N 
ATOM      2  H   UNK A   0      10.453   0.965  22.220  0.00  0.00    +0.146 HD
ENDROOT
BRANCH   1   3
ATOM      3  C   UNK A   0       9.533  -0.808  22.194  0.00  0.00    +0.027 A 
ATOM      4  C   UNK A   0       8.293  -1.401  21.911  0.00  0.00    +0.023 A 
ATOM      5  C   UNK A   0       7.884  -2.600  22.511  0.00  0.00    +0.015 A 
ATOM      6  C   UNK A   0       8.703  -3.231  23.449  0.00  0.00    +0.037 A 
ATOM      7  C   UNK A   0       9.936  -2.637  23.757  0.00  0.00    +0.015 A 
ATOM      8  C   UNK A   0      10.338  -1.436  23.146  0.00  0.00    +0.023 A 
BRANCH   6   9
ATOM      9  C   UNK A   0       8.289  -4.450  24.216  0.00  0.00    +0.245 C 
ATOM     10  N   GLU A   1       7.011  -4.482  24.747  0.00  0.00    -0.298 N 
ATOM     11  H   GLU A   1       6.291  -3.889  24.351  0.00  0.00    +0.150 HD
ATOM     12  O   UNK A   0       9.078  -5.374  24.382  0.00  0.00    -0.270 OA
BRANCH  10  13
ATOM     13  CA  GLU A   1       6.560  -5.593  25.613  0.00  0.00    +0.182 C 
BRANCH  13  14
ATOM     14  C   GLU A   1       6.702  -5.163  27.086  0.00  0.00    +0.325 C 
ATOM     15  OXT GLU A   1       6.124  -4.222  27.607  0.00  0.00    -0.249 OA
BRANCH  14  16
ATOM     16  O   GLU A   1       7.499  -6.002  27.799  0.00  0.00    -0.479 OA
ATOM     17  H   GLU A   1       7.806  -5.554  28.613  0.00  0.00    +0.295 HD
ENDBRANCH  14  16
ENDBRANCH  13  14
BRANCH  13  18
ATOM     18  CB  GLU A   1       5.122  -6.033  25.323  0.00  0.00    +0.045 C 
BRANCH  18  19
ATOM     19  CG  GLU A   1       4.906  -6.508  23.887  0.00  0.00    +0.123 C 
BRANCH  19  20
ATOM     20  CD  GLU A   1       4.090  -5.520  23.089  0.00  0.00    +0.305 C 
ATOM     21  OE2 GLU A   1       2.880  -5.570  22.930  0.00  0.00    -0.251 OA
BRANCH  20  22
ATOM     22  OE1 GLU A   1       4.847  -4.525  22.574  0.00  0.00    -0.481 OA
ATOM     23  HE1 GLU A   1       4.426  -3.646  22.626  0.00  0.00    +0.295 HD
ENDBRANCH  20  22
ENDBRANCH  19  20
ENDBRANCH  18  19
ENDBRANCH  13  18
ENDBRANCH  10  13
ENDBRANCH   6   9
ENDBRANCH   1   3
BRANCH   1  24
ATOM     24  C   UNK A   0       8.694   1.301  21.180  0.00  0.00    +0.126 C 
BRANCH  24  35
ATOM     25  N   UNK A   0       5.110  -1.645  25.694  0.00  0.00    -0.329 N 
ATOM     26  H   UNK A   0       4.186  -1.269  25.862  0.00  0.00    +0.145 HD
ATOM     27  H   UNK A   0       5.425  -2.205  26.482  0.00  0.00    +0.145 HD
ATOM     28  C   UNK A   0       6.052  -0.742  25.332  0.00  0.00    +0.195 A 
ATOM     29  N   UNK A   0       5.639   0.146  24.407  0.00  0.00    -0.315 N 
ATOM     30  H   UNK A   0       4.729   0.048  23.987  0.00  0.00    +0.170 HD
ATOM     31  C   UNK A   0       6.493   1.041  23.833  0.00  0.00    +0.126 A 
ATOM     32  N   UNK A   0       6.028   1.853  22.816  0.00  0.00    -0.327 N 
ATOM     33  H   UNK A   0       5.260   1.489  22.263  0.00  0.00    +0.148 HD
ATOM     34  C   UNK A   0       6.887   2.836  22.170  0.00  0.00    +0.127 C 
ATOM     35  C   UNK A   0       8.361   2.395  22.234  0.00  0.00    +0.115 C 
ATOM     36  N   UNK A   0       8.713   1.933  23.605  0.00  0.00    -0.261 N 
ATOM     37  C   UNK A   0       9.985   2.239  24.061  0.00  0.00    +0.333 C 
ATOM     38  O   UNK A   0      10.832   2.831  23.398  0.00  0.00    -0.279 OA
ATOM     39  C   UNK A   0       7.783   1.102  24.263  0.00  0.00    +0.142 A 
ATOM     40  C   UNK A   0       8.160   0.158  25.407  0.00  0.00    +0.298 A 
ATOM     41  O   UNK A   0       9.285   0.190  25.897  0.00  0.00    -0.264 OA
ATOM     42  N   UNK A   0       7.239  -0.774  25.834  0.00  0.00    -0.176 NA
ENDBRANCH  24  35
ENDBRANCH   1  24
TORSDOF 11
ENDMDL
MODEL 3
REMARK VINA RESULT:      -7.8      2.598      8.678
REMARK  Name = 
REMARK  11 active torsions:
REMARK  status: ('A' for Active; 'I' for Inactive)
REMARK    1  A    between atoms: C_10  and  C_12
REMARK    2  A    between atoms: C_12  and  N_13
REMARK    3  A    between atoms: N_13  and  C_14
REMARK    4  A    between atoms: C_17  and  C_20
REMARK    5  A    between atoms: N_22  and  CA_23
REMARK    6  A    between atoms: CA_23  and  CB_25
REMARK    7  A    between atoms: CA_23  and  C_30
REMARK    8  A    between atoms: CB_25  and  CG_26
REMARK    9  A    between atoms: CG_26  and  CD_27
REMARK   10  A    between atoms: CD_27  and  OE1_28
REMARK   11  A    between atoms: C_30  and  O_31
REMARK                            x       y       z     vdW  Elec       q    Type
REMARK                         _______ _______ _______ _____ _____    ______ ____
ROOT
ATOM      1  N   UNK A   0       9.960  -2.629  23.613  0.00  0.00    -0.342 N 
ATOM      2  H   UNK A   0       9.693  -3.088  22.743  0.00  0.00    +0.146 HD
ENDROOT
BRANCH   1   3
ATOM      3  C   UNK A   0       9.890  -1.236  23.465  0.00  0.00    +0.027 A 
ATOM      4  C   UNK A   0       9.824  -0.456  24.629  0.00  0.00    +0.023 A 
ATOM      5  C   UNK A   0       9.643   0.934  24.588  0.00  0.00    +0.015 A 
ATOM      6  C   UNK A   0       9.488   1.585  23.363  0.00  0.00    +0.037 A 
ATOM      7  C   UNK A   0       9.531   0.814  22.192  0.00  0.00    +0.015 A 
ATOM      8  C   UNK A   0       9.717  -0.578  22.245  0.00  0.00    +0.023 A 
BRANCH   6   9
ATOM      9  C   UNK A   0       9.177   3.047  23.241  0.00  0.00    +0.245 C 
ATOM     10  N   GLU A   1      10.046   3.949  23.830  0.00  0.00    -0.298 N 
ATOM     11  H   GLU A   1      11.001   3.670  24.021  0.00  0.00    +0.150 HD
ATOM     12  O   UNK A   0       8.165   3.416  22.655  0.00  0.00    -0.270 OA
BRANCH  10  13
ATOM     13  CA  GLU A   1       9.756   5.399  23.858  0.00  0.00    +0.182 C 
BRANCH  13  14
ATOM     14  C   GLU A   1       9.034   5.735  25.178  0.00  0.00    +0.325 C 
ATOM     15  OXT GLU A   1       9.563   6.206  26.172  0.00  0.00    -0.249 OA
BRANCH  14  16
ATOM     16  O   GLU A   1       7.693   5.524  25.106  0.00  0.00    -0.479 OA
ATOM     17  H   GLU A   1       7.518   4.605  24.820  0.00  0.00    +0.295 HD
ENDBRANCH  14  16
ENDBRANCH  13  14
BRANCH  13  18
ATOM     18  CB  GLU A   1      11.010   6.265  23.701  0.00  0.00    +0.045 C 
BRANCH  18  19
ATOM     19  CG  GLU A   1      12.304   5.537  24.062  0.00  0.00    +0.123 C 
BRANCH  19  20
ATOM     20  CD  GLU A   1      13.198   5.357  22.859  0.00  0.00    +0.305 C 
ATOM     21  OE2 GLU A   1      12.855   5.501  21.697  0.00  0.00    -0.251 OA
BRANCH  20  22
ATOM     22  OE1 GLU A   1      14.467   5.040  23.205  0.00  0.00    -0.481 OA
ATOM     23  HE1 GLU A   1      14.675   4.092  23.101  0.00  0.00    +0.295 HD
ENDBRANCH  20  22
ENDBRANCH  19  20
ENDBRANCH  18  19
ENDBRANCH  13  18
ENDBRANCH  10  13
ENDBRANCH   6   9
ENDBRANCH   1   3
BRANCH   1  24
ATOM     24  C   UNK A   0       9.331  -3.274  24.774  0.00  0.00    +0.126 C 
BRANCH  24  35
ATOM     25  N   UNK A   0       4.790  -4.460  29.232  0.00  0.00    -0.329 N 
ATOM     26  H   UNK A   0       4.888  -5.312  29.771  0.00  0.00    +0.145 HD
ATOM     27  H   UNK A   0       3.833  -4.117  29.264  0.00  0.00    +0.145 HD
ATOM     28  C   UNK A   0       5.243  -4.520  27.957  0.00  0.00    +0.195 A 
ATOM     29  N   UNK A   0       6.440  -5.124  27.825  0.00  0.00    -0.315 N 
ATOM     30  H   UNK A   0       6.953  -5.409  28.643  0.00  0.00    +0.170 HD
ATOM     31  C   UNK A   0       7.104  -5.155  26.634  0.00  0.00    +0.126 A 
ATOM     32  N   UNK A   0       8.374  -5.698  26.590  0.00  0.00    -0.327 N 
ATOM     33  H   UNK A   0       8.913  -5.656  27.448  0.00  0.00    +0.148 HD
ATOM     34  C   UNK A   0       9.132  -5.771  25.349  0.00  0.00    +0.127 C 
ATOM     35  C   UNK A   0       8.707  -4.645  24.387  0.00  0.00    +0.115 C 
ATOM     36  N   UNK A   0       7.224  -4.549  24.311  0.00  0.00    -0.261 N 
ATOM     37  C   UNK A   0       6.679  -4.239  23.076  0.00  0.00    +0.333 C 
ATOM     38  O   UNK A   0       7.341  -4.011  22.067  0.00  0.00    -0.279 OA
ATOM     39  C   UNK A   0       6.510  -4.637  25.525  0.00  0.00    +0.142 A 
ATOM     40  C   UNK A   0       5.097  -4.082  25.711  0.00  0.00    +0.298 A 
ATOM     41  O   UNK A   0       4.464  -3.652  24.751  0.00  0.00    -0.264 OA
ATOM     42  N   UNK A   0       4.570  -4.011  26.983  0.00  0.00    -0.176 NA
ENDBRANCH  24  35
ENDBRANCH   1  24
TORSDOF 11
ENDMDL
MODEL 4
REMARK VINA RESULT:      -7.6      2.630      8.673
REMARK  Name = 
REMARK  11 active torsions:
REMARK  status: ('A' for Active; 'I' for Inactive)
REMARK    1  A    between atoms: C_10  and  C_12
REMARK    2  A    between atoms: C_12  and  N_13
REMARK    3  A    between atoms: N_13  and  C_14
REMARK    4  A    between atoms: C_17  and  C_20
REMARK    5  A    between atoms: N_22  and  CA_23
REMARK    6  A    between atoms: CA_23  and  CB_25
REMARK    7  A    between atoms: CA_23  and  C_30
REMARK    8  A    between atoms: CB_25  and  CG_26
REMARK    9  A    between atoms: CG_26  and  CD_27
REMARK   10  A    between atoms: CD_27  and  OE1_28
REMARK   11  A    between atoms: C_30  and  O_31
REMARK                            x       y       z     vdW  Elec       q    Type
REMARK                         _______ _______ _______ _____ _____    ______ ____
ROOT
ATOM      1  N   UNK A   0       9.721  -2.509  23.282  0.00  0.00    -0.342 N 
ATOM      2  H   UNK A   0      10.373  -2.905  22.605  0.00  0.00    +0.146 HD
ENDROOT
BRANCH   1   3
ATOM      3  C   UNK A   0       9.677  -1.113  23.150  0.00  0.00    +0.027 A 
ATOM      4  C   UNK A   0       9.882  -0.340  24.303  0.00  0.00    +0.023 A 
ATOM      5  C   UNK A   0       9.750   1.057  24.298  0.00  0.00    +0.015 A 
ATOM      6  C   UNK A   0       9.373   1.722  23.130  0.00  0.00    +0.037 A 
ATOM      7  C   UNK A   0       9.145   0.958  21.977  0.00  0.00    +0.015 A 
ATOM      8  C   UNK A   0       9.283  -0.441  21.991  0.00  0.00    +0.023 A 
BRANCH   6   9
ATOM      9  C   UNK A   0       9.102   3.195  23.074  0.00  0.00    +0.245 C 
ATOM     10  N   GLU A   1      10.019   4.050  23.660  0.00  0.00    -0.298 N 
ATOM     11  H   GLU A   1      10.972   3.737  23.803  0.00  0.00    +0.150 HD
ATOM     12  O   UNK A   0       8.079   3.615  22.543  0.00  0.00    -0.270 OA
BRANCH  10  13
ATOM     13  CA  GLU A   1       9.774   5.505  23.752  0.00  0.00    +0.182 C 
BRANCH  13  14
ATOM     14  C   GLU A   1       8.964   5.792  25.032  0.00  0.00    +0.325 C 
ATOM     15  OXT GLU A   1       9.440   6.037  26.129  0.00  0.00    -0.249 OA
BRANCH  14  16
ATOM     16  O   GLU A   1       7.624   5.826  24.804  0.00  0.00    -0.479 OA
ATOM     17  H   GLU A   1       7.411   6.567  24.201  0.00  0.00    +0.295 HD
ENDBRANCH  14  16
ENDBRANCH  13  14
BRANCH  13  18
ATOM     18  CB  GLU A   1      11.062   6.333  23.740  0.00  0.00    +0.045 C 
BRANCH  18  19
ATOM     19  CG  GLU A   1      12.314   5.520  24.068  0.00  0.00    +0.123 C 
BRANCH  19  20
ATOM     20  CD  GLU A   1      13.215   5.371  22.866  0.00  0.00    +0.305 C 
ATOM     21  OE2 GLU A   1      12.905   5.634  21.715  0.00  0.00    -0.251 OA
BRANCH  20  22
ATOM     22  OE1 GLU A   1      14.450   4.933  23.201  0.00  0.00    -0.481 OA
ATOM     23  HE1 GLU A   1      14.587   4.848  24.164  0.00  0.00    +0.295 HD
ENDBRANCH  20  22
ENDBRANCH  19  20
ENDBRANCH  18  19
ENDBRANCH  13  18
ENDBRANCH  10  13
ENDBRANCH   6   9
ENDBRANCH   1   3
BRANCH   1  24
ATOM     24  C   UNK A   0       8.471  -3.280  23.335  0.00  0.00    +0.126 C 
BRANCH  24  35
ATOM     25  N   UNK A   0       3.081  -6.836  22.880  0.00  0.00    -0.329 N 
ATOM     26  H   UNK A   0       2.231  -6.349  22.627  0.00  0.00    +0.145 HD
ATOM     27  H   UNK A   0       2.873  -7.724  23.329  0.00  0.00    +0.145 HD
ATOM     28  C   UNK A   0       3.970  -6.120  23.609  0.00  0.00    +0.195 A 
ATOM     29  N   UNK A   0       4.164  -4.864  23.163  0.00  0.00    -0.315 N 
ATOM     30  H   UNK A   0       3.730  -4.561  22.307  0.00  0.00    +0.170 HD
ATOM     31  C   UNK A   0       5.119  -4.049  23.696  0.00  0.00    +0.126 A 
ATOM     32  N   UNK A   0       5.337  -2.810  23.123  0.00  0.00    -0.327 N 
ATOM     33  H   UNK A   0       5.117  -2.722  22.138  0.00  0.00    +0.148 HD
ATOM     34  C   UNK A   0       6.334  -1.889  23.651  0.00  0.00    +0.127 C 
ATOM     35  C   UNK A   0       7.470  -2.660  24.350  0.00  0.00    +0.115 C 
ATOM     36  N   UNK A   0       6.916  -3.706  25.255  0.00  0.00    -0.261 N 
ATOM     37  C   UNK A   0       7.592  -3.927  26.443  0.00  0.00    +0.333 C 
ATOM     38  O   UNK A   0       8.621  -3.342  26.771  0.00  0.00    -0.279 OA
ATOM     39  C   UNK A   0       5.845  -4.480  24.763  0.00  0.00    +0.142 A 
ATOM     40  C   UNK A   0       5.490  -5.865  25.307  0.00  0.00    +0.298 A 
ATOM     41  O   UNK A   0       6.051  -6.306  26.306  0.00  0.00    -0.264 OA
ATOM     42  N   UNK A   0       4.577  -6.638  24.621  0.00  0.00    -0.176 NA
ENDBRANCH  24  35
ENDBRANCH   1  24
TORSDOF 11
ENDMDL
MODEL 5
REMARK VINA RESULT:      -7.4      2.236      8.475
REMARK  Name = 
REMARK  11 active torsions:
REMARK  status: ('A' for Active; 'I' for Inactive)
REMARK    1  A    between atoms: C_10  and  C_12
REMARK    2  A    between atoms: C_12  and  N_13
REMARK    3  A    between atoms: N_13  and  C_14
REMARK    4  A    between atoms: C_17  and  C_20
REMARK    5  A    between atoms: N_22  and  CA_23
REMARK    6  A    between atoms: CA_23  and  CB_25
REMARK    7  A    between atoms: CA_23  and  C_30
REMARK    8  A    between atoms: CB_25  and  CG_26
REMARK    9  A    between atoms: CG_26  and  CD_27
REMARK   10  A    between atoms: CD_27  and  OE1_28
REMARK   11  A    between atoms: C_30  and  O_31
REMARK                            x       y       z     vdW  Elec       q    Type
REMARK                         _______ _______ _______ _____ _____    ______ ____
ROOT
ATOM      1  N   UNK A   0       6.823  -2.466  26.764  0.00  0.00    -0.342 N 
ATOM      2  H   UNK A   0       7.462  -3.258  26.846  0.00  0.00    +0.146 HD
ENDROOT
BRANCH   1   3
ATOM      3  C   UNK A   0       7.486  -1.369  26.197  0.00  0.00    +0.027 A 
ATOM      4  C   UNK A   0       6.757  -0.538  25.334  0.00  0.00    +0.023 A 
ATOM      5  C   UNK A   0       7.355   0.520  24.632  0.00  0.00    +0.015 A 
ATOM      6  C   UNK A   0       8.725   0.757  24.754  0.00  0.00    +0.037 A 
ATOM      7  C   UNK A   0       9.470  -0.080  25.598  0.00  0.00    +0.015 A 
ATOM      8  C   UNK A   0       8.860  -1.135  26.299  0.00  0.00    +0.023 A 
BRANCH   6   9
ATOM      9  C   UNK A   0       9.455   1.791  23.953  0.00  0.00    +0.245 C 
ATOM     10  N   GLU A   1       9.359   3.113  24.353  0.00  0.00    -0.298 N 
ATOM     11  H   GLU A   1       9.112   3.327  25.312  0.00  0.00    +0.150 HD
ATOM     12  O   UNK A   0      10.095   1.465  22.959  0.00  0.00    -0.270 OA
BRANCH  10  13
ATOM     13  CA  GLU A   1       9.952   4.209  23.556  0.00  0.00    +0.182 C 
BRANCH  13  14
ATOM     14  C   GLU A   1       9.334   5.545  24.013  0.00  0.00    +0.325 C 
ATOM     15  OXT GLU A   1       8.896   6.411  23.273  0.00  0.00    -0.249 OA
BRANCH  14  16
ATOM     16  O   GLU A   1       9.246   5.642  25.367  0.00  0.00    -0.479 OA
ATOM     17  H   GLU A   1       8.461   5.150  25.682  0.00  0.00    +0.295 HD
ENDBRANCH  14  16
ENDBRANCH  13  14
BRANCH  13  18
ATOM     18  CB  GLU A   1      11.479   4.266  23.656  0.00  0.00    +0.045 C 
BRANCH  18  19
ATOM     19  CG  GLU A   1      12.070   5.608  23.229  0.00  0.00    +0.123 C 
BRANCH  19  20
ATOM     20  CD  GLU A   1      13.400   5.439  22.536  0.00  0.00    +0.305 C 
ATOM     21  OE2 GLU A   1      13.640   5.760  21.382  0.00  0.00    -0.251 OA
BRANCH  20  22
ATOM     22  OE1 GLU A   1      14.340   4.908  23.350  0.00  0.00    -0.481 OA
ATOM     23  HE1 GLU A   1      14.133   5.003  24.300  0.00  0.00    +0.295 HD
ENDBRANCH  20  22
ENDBRANCH  19  20
ENDBRANCH  18  19
ENDBRANCH  13  18
ENDBRANCH  10  13
ENDBRANCH   6   9
ENDBRANCH   1   3
BRANCH   1  24
ATOM     24  C   UNK A   0       5.517  -2.886  26.237  0.00  0.00    +0.126 C 
BRANCH  24  35
ATOM     25  N   UNK A   0       9.361  -1.176  21.317  0.00  0.00    -0.329 N 
ATOM     26  H   UNK A   0       8.979  -1.267  20.384  0.00  0.00    +0.145 HD
ATOM     27  H   UNK A   0      10.377  -1.143  21.294  0.00  0.00    +0.145 HD
ATOM     28  C   UNK A   0       8.926  -2.087  22.219  0.00  0.00    +0.195 A 
ATOM     29  N   UNK A   0       7.597  -2.306  22.184  0.00  0.00    -0.315 N 
ATOM     30  H   UNK A   0       7.011  -1.751  21.583  0.00  0.00    +0.170 HD
ATOM     31  C   UNK A   0       6.970  -3.092  23.106  0.00  0.00    +0.126 A 
ATOM     32  N   UNK A   0       5.592  -3.191  23.076  0.00  0.00    -0.327 N 
ATOM     33  H   UNK A   0       5.091  -2.399  22.690  0.00  0.00    +0.148 HD
ATOM     34  C   UNK A   0       4.865  -4.021  24.026  0.00  0.00    +0.127 C 
ATOM     35  C   UNK A   0       5.650  -4.153  25.345  0.00  0.00    +0.115 C 
ATOM     36  N   UNK A   0       7.081  -4.464  25.077  0.00  0.00    -0.261 N 
ATOM     37  C   UNK A   0       7.709  -5.328  25.958  0.00  0.00    +0.333 C 
ATOM     38  O   UNK A   0       7.170  -5.817  26.948  0.00  0.00    -0.279 OA
ATOM     39  C   UNK A   0       7.713  -3.744  24.042  0.00  0.00    +0.142 A 
ATOM     40  C   UNK A   0       9.229  -3.560  23.951  0.00  0.00    +0.298 A 
ATOM     41  O   UNK A   0       9.978  -4.160  24.716  0.00  0.00    -0.264 OA
ATOM     42  N   UNK A   0       9.738  -2.658  23.040  0.00  0.00    -0.176 NA
ENDBRANCH  24  35
ENDBRANCH   1  24
TORSDOF 11
ENDMDL
MODEL 6
REMARK VINA RESULT:      -7.4      2.385      4.478
REMARK  Name = 
REMARK  11 active torsions:
REMARK  status: ('A' for Active; 'I' for Inactive)
REMARK    1  A    between atoms: C_10  and  C_12
REMARK    2  A    between atoms: C_12  and  N_13
REMARK    3  A    between atoms: N_13  and  C_14
REMARK    4  A    between atoms: C_17  and  C_20
REMARK    5  A    between atoms: N_22  and  CA_23
REMARK    6  A    between atoms: CA_23  and  CB_25
REMARK    7  A    between atoms: CA_23  and  C_30
REMARK    8  A    between atoms: CB_25  and  CG_26
REMARK    9  A    between atoms: CG_26  and  CD_27
REMARK   10  A    between atoms: CD_27  and  OE1_28
REMARK   11  A    between atoms: C_30  and  O_31
REMARK                            x       y       z     vdW  Elec       q    Type
REMARK                         _______ _______ _______ _____ _____    ______ ____
ROOT
ATOM      1  N   UNK A   0       9.588  -1.824  22.646  0.00  0.00    -0.342 N 
ATOM      2  H   UNK A   0      10.149  -1.751  23.494  0.00  0.00    +0.146 HD
ENDROOT
BRANCH   1   3
ATOM      3  C   UNK A   0       8.462  -2.626  22.880  0.00  0.00    +0.027 A 
ATOM      4  C   UNK A   0       7.260  -2.266  22.252  0.00  0.00    +0.023 A 
ATOM      5  C   UNK A   0       6.054  -2.937  22.506  0.00  0.00    +0.015 A 
ATOM      6  C   UNK A   0       6.013  -3.979  23.433  0.00  0.00    +0.037 A 
ATOM      7  C   UNK A   0       7.204  -4.335  24.084  0.00  0.00    +0.015 A 
ATOM      8  C   UNK A   0       8.407  -3.659  23.819  0.00  0.00    +0.023 A 
BRANCH   6   9
ATOM      9  C   UNK A   0       4.746  -4.667  23.842  0.00  0.00    +0.245 C 
ATOM     10  N   GLU A   1       4.734  -5.348  25.047  0.00  0.00    -0.298 N 
ATOM     11  H   GLU A   1       5.408  -5.107  25.763  0.00  0.00    +0.150 HD
ATOM     12  O   UNK A   0       3.763  -4.638  23.108  0.00  0.00    -0.270 OA
BRANCH  10  13
ATOM     13  CA  GLU A   1       3.565  -6.149  25.472  0.00  0.00    +0.182 C 
BRANCH  13  14
ATOM     14  C   GLU A   1       3.618  -7.517  24.766  0.00  0.00    +0.325 C 
ATOM     15  OXT GLU A   1       2.844  -8.442  24.959  0.00  0.00    -0.249 OA
BRANCH  14  16
ATOM     16  O   GLU A   1       4.591  -7.578  23.818  0.00  0.00    -0.479 OA
ATOM     17  H   GLU A   1       4.710  -6.696  23.411  0.00  0.00    +0.295 HD
ENDBRANCH  14  16
ENDBRANCH  13  14
BRANCH  13  18
ATOM     18  CB  GLU A   1       3.486  -6.334  26.991  0.00  0.00    +0.045 C 
BRANCH  18  19
ATOM     19  CG  GLU A   1       4.461  -5.450  27.766  0.00  0.00    +0.123 C 
BRANCH  19  20
ATOM     20  CD  GLU A   1       5.552  -6.261  28.421  0.00  0.00    +0.305 C 
ATOM     21  OE2 GLU A   1       6.528  -5.800  28.994  0.00  0.00    -0.251 OA
BRANCH  20  22
ATOM     22  OE1 GLU A   1       5.324  -7.592  28.338  0.00  0.00    -0.481 OA
ATOM     23  HE1 GLU A   1       5.060  -7.888  27.446  0.00  0.00    +0.295 HD
ENDBRANCH  20  22
ENDBRANCH  19  20
ENDBRANCH  18  19
ENDBRANCH  13  18
ENDBRANCH  10  13
ENDBRANCH   6   9
ENDBRANCH   1   3
BRANCH   1  24
ATOM     24  C   UNK A   0       9.434  -0.517  21.992  0.00  0.00    +0.126 C 
BRANCH  24  35
ATOM     25  N   UNK A   0       4.580   3.766  21.928  0.00  0.00    -0.329 N 
ATOM     26  H   UNK A   0       4.802   4.706  21.622  0.00  0.00    +0.145 HD
ATOM     27  H   UNK A   0       3.721   3.753  22.471  0.00  0.00    +0.145 HD
ATOM     28  C   UNK A   0       5.574   3.111  22.574  0.00  0.00    +0.195 A 
ATOM     29  N   UNK A   0       6.783   3.234  21.993  0.00  0.00    -0.315 N 
ATOM     30  H   UNK A   0       6.872   3.706  21.109  0.00  0.00    +0.170 HD
ATOM     31  C   UNK A   0       7.869   2.535  22.433  0.00  0.00    +0.126 A 
ATOM     32  N   UNK A   0       9.055   2.626  21.729  0.00  0.00    -0.327 N 
ATOM     33  H   UNK A   0       8.977   2.833  20.740  0.00  0.00    +0.148 HD
ATOM     34  C   UNK A   0      10.252   1.913  22.153  0.00  0.00    +0.127 C 
ATOM     35  C   UNK A   0       9.878   0.639  22.933  0.00  0.00    +0.115 C 
ATOM     36  N   UNK A   0       8.827   0.931  23.946  0.00  0.00    -0.261 N 
ATOM     37  C   UNK A   0       8.915   0.255  25.152  0.00  0.00    +0.333 C 
ATOM     38  O   UNK A   0       9.777  -0.579  25.414  0.00  0.00    -0.279 OA
ATOM     39  C   UNK A   0       7.755   1.754  23.542  0.00  0.00    +0.142 A 
ATOM     40  C   UNK A   0       6.391   1.757  24.235  0.00  0.00    +0.298 A 
ATOM     41  O   UNK A   0       6.218   1.130  25.275  0.00  0.00    -0.264 OA
ATOM     42  N   UNK A   0       5.340   2.422  23.637  0.00  0.00    -0.176 NA
ENDBRANCH  24  35
ENDBRANCH   1  24
TORSDOF 11
ENDMDL
MODEL 7
REMARK VINA RESULT:      -7.4      2.853      4.041
REMARK  Name = 
REMARK  11 active torsions:
REMARK  status: ('A' for Active; 'I' for Inactive)
REMARK    1  A    between atoms: C_10  and  C_12
REMARK    2  A    between atoms: C_12  and  N_13
REMARK    3  A    between atoms: N_13  and  C_14
REMARK    4  A    between atoms: C_17  and  C_20
REMARK    5  A    between atoms: N_22  and  CA_23
REMARK    6  A    between atoms: CA_23  and  CB_25
REMARK    7  A    between atoms: CA_23  and  C_30
REMARK    8  A    between atoms: CB_25  and  CG_26
REMARK    9  A    between atoms: CG_26  and  CD_27
REMARK   10  A    between atoms: CD_27  and  OE1_28
REMARK   11  A    between atoms: C_30  and  O_31
REMARK                            x       y       z     vdW  Elec       q    Type
REMARK                         _______ _______ _______ _____ _____    ______ ____
ROOT
ATOM      1  N   UNK A   0       9.398   3.355  24.279  0.00  0.00    -0.342 N 
ATOM      2  H   UNK A   0       9.314   3.793  25.196  0.00  0.00    +0.146 HD
ENDROOT
BRANCH   1   3
ATOM      3  C   UNK A   0       9.325   1.960  24.402  0.00  0.00    +0.027 A 
ATOM      4  C   UNK A   0      10.522   1.233  24.324  0.00  0.00    +0.023 A 
ATOM      5  C   UNK A   0      10.546  -0.169  24.326  0.00  0.00    +0.015 A 
ATOM      6  C   UNK A   0       9.353  -0.891  24.376  0.00  0.00    +0.037 A 
ATOM      7  C   UNK A   0       8.147  -0.176  24.433  0.00  0.00    +0.015 A 
ATOM      8  C   UNK A   0       8.135   1.230  24.434  0.00  0.00    +0.023 A 
BRANCH   6   9
ATOM      9  C   UNK A   0       9.290  -2.385  24.267  0.00  0.00    +0.245 C 
ATOM     10  N   GLU A   1       8.113  -3.015  24.633  0.00  0.00    -0.298 N 
ATOM     11  H   GLU A   1       7.246  -2.492  24.635  0.00  0.00    +0.150 HD
ATOM     12  O   UNK A   0      10.268  -3.019  23.887  0.00  0.00    -0.270 OA
BRANCH  10  13
ATOM     13  CA  GLU A   1       8.002  -4.490  24.667  0.00  0.00    +0.182 C 
BRANCH  13  14
ATOM     14  C   GLU A   1       8.718  -5.012  25.928  0.00  0.00    +0.325 C 
ATOM     15  OXT GLU A   1       8.265  -4.983  27.061  0.00  0.00    -0.249 OA
BRANCH  14  16
ATOM     16  O   GLU A   1       9.911  -5.601  25.644  0.00  0.00    -0.479 OA
ATOM     17  H   GLU A   1      10.557  -4.920  25.369  0.00  0.00    +0.295 HD
ENDBRANCH  14  16
ENDBRANCH  13  14
BRANCH  13  18
ATOM     18  CB  GLU A   1       6.553  -4.983  24.634  0.00  0.00    +0.045 C 
BRANCH  18  19
ATOM     19  CG  GLU A   1       6.100  -5.454  23.253  0.00  0.00    +0.123 C 
BRANCH  19  20
ATOM     20  CD  GLU A   1       5.745  -4.294  22.355  0.00  0.00    +0.305 C 
ATOM     21  OE2 GLU A   1       5.451  -3.172  22.735  0.00  0.00    -0.251 OA
BRANCH  20  22
ATOM     22  OE1 GLU A   1       5.817  -4.618  21.043  0.00  0.00    -0.481 OA
ATOM     23  HE1 GLU A   1       5.091  -4.245  20.508  0.00  0.00    +0.295 HD
ENDBRANCH  20  22
ENDBRANCH  19  20
ENDBRANCH  18  19
ENDBRANCH  13  18
ENDBRANCH  10  13
ENDBRANCH   6   9
ENDBRANCH   1   3
BRANCH   1  24
ATOM     24  C   UNK A   0       8.571   4.047  23.279  0.00  0.00    +0.126 C 
BRANCH  24  35
ATOM     25  N   UNK A   0       2.404   2.893  21.682  0.00  0.00    -0.329 N 
ATOM     26  H   UNK A   0       1.922   3.618  21.166  0.00  0.00    +0.145 HD
ATOM     27  H   UNK A   0       1.745   2.264  22.132  0.00  0.00    +0.145 HD
ATOM     28  C   UNK A   0       3.340   3.325  22.561  0.00  0.00    +0.195 A 
ATOM     29  N   UNK A   0       4.145   4.291  22.079  0.00  0.00    -0.315 N 
ATOM     30  H   UNK A   0       4.075   4.570  21.114  0.00  0.00    +0.170 HD
ATOM     31  C   UNK A   0       5.222   4.749  22.779  0.00  0.00    +0.126 A 
ATOM     32  N   UNK A   0       6.068   5.666  22.183  0.00  0.00    -0.327 N 
ATOM     33  H   UNK A   0       6.119   5.642  21.171  0.00  0.00    +0.148 HD
ATOM     34  C   UNK A   0       7.229   6.201  22.882  0.00  0.00    +0.127 C 
ATOM     35  C   UNK A   0       7.746   5.194  23.927  0.00  0.00    +0.115 C 
ATOM     36  N   UNK A   0       6.620   4.647  24.733  0.00  0.00    -0.261 N 
ATOM     37  C   UNK A   0       6.868   4.410  26.075  0.00  0.00    +0.333 C 
ATOM     38  O   UNK A   0       7.953   4.593  26.618  0.00  0.00    -0.279 OA
ATOM     39  C   UNK A   0       5.449   4.281  24.037  0.00  0.00    +0.142 A 
ATOM     40  C   UNK A   0       4.426   3.281  24.580  0.00  0.00    +0.298 A 
ATOM     41  O   UNK A   0       4.519   2.855  25.728  0.00  0.00    -0.264 OA
ATOM     42  N   UNK A   0       3.436   2.815  23.740  0.00  0.00    -0.176 NA
ENDBRANCH  24  35
ENDBRANCH   1  24
TORSDOF 11
ENDMDL
MODEL 8
REMARK VINA RESULT:      -7.3      2.272      3.835
REMARK  Name = 
REMARK  11 active torsions:
REMARK  status: ('A' for Active; 'I' for Inactive)
REMARK    1  A    between atoms: C_10  and  C_12
REMARK    2  A    between atoms: C_12  and  N_13
REMARK    3  A    between atoms: N_13  and  C_14
REMARK    4  A    between atoms: C_17  and  C_20
REMARK    5  A    between atoms: N_22  and  CA_23
REMARK    6  A    between atoms: CA_23  and  CB_25
REMARK    7  A    between atoms: CA_23  and  C_30
REMARK    8  A    between atoms: CB_25  and  CG_26
REMARK    9  A    between atoms: CG_26  and  CD_27
REMARK   10  A    between atoms: CD_27  and  OE1_28
REMARK   11  A    between atoms: C_30  and  O_31
REMARK                            x       y       z     vdW  Elec       q    Type
REMARK                         _______ _______ _______ _____ _____    ______ ____
ROOT
ATOM      1  N   UNK A   0      10.296   1.164  24.718  0.00  0.00    -0.342 N 
ATOM      2  H   UNK A   0      11.010   1.361  25.420  0.00  0.00    +0.146 HD
ENDROOT
BRANCH   1   3
ATOM      3  C   UNK A   0       9.858  -0.163  24.836  0.00  0.00    +0.027 A 
ATOM      4  C   UNK A   0      10.168  -1.049  23.794  0.00  0.00    +0.023 A 
ATOM      5  C   UNK A   0       9.683  -2.366  23.763  0.00  0.00    +0.015 A 
ATOM      6  C   UNK A   0       8.838  -2.825  24.774  0.00  0.00    +0.037 A 
ATOM      7  C   UNK A   0       8.503  -1.942  25.811  0.00  0.00    +0.015 A 
ATOM      8  C   UNK A   0       8.997  -0.626  25.833  0.00  0.00    +0.023 A 
BRANCH   6   9
ATOM      9  C   UNK A   0       8.190  -4.176  24.753  0.00  0.00    +0.245 C 
ATOM     10  N   GLU A   1       7.068  -4.373  25.540  0.00  0.00    -0.298 N 
ATOM     11  H   GLU A   1       6.517  -3.575  25.832  0.00  0.00    +0.150 HD
ATOM     12  O   UNK A   0       8.666  -5.079  24.073  0.00  0.00    -0.270 OA
BRANCH  10  13
ATOM     13  CA  GLU A   1       6.436  -5.704  25.668  0.00  0.00    +0.182 C 
BRANCH  13  14
ATOM     14  C   GLU A   1       6.470  -6.129  27.149  0.00  0.00    +0.325 C 
ATOM     15  OXT GLU A   1       5.567  -6.698  27.742  0.00  0.00    -0.249 OA
BRANCH  14  16
ATOM     16  O   GLU A   1       7.670  -5.875  27.737  0.00  0.00    -0.479 OA
ATOM     17  H   GLU A   1       8.383  -5.933  27.069  0.00  0.00    +0.295 HD
ENDBRANCH  14  16
ENDBRANCH  13  14
BRANCH  13  18
ATOM     18  CB  GLU A   1       5.000  -5.739  25.137  0.00  0.00    +0.045 C 
BRANCH  18  19
ATOM     19  CG  GLU A   1       4.866  -6.439  23.785  0.00  0.00    +0.123 C 
BRANCH  19  20
ATOM     20  CD  GLU A   1       5.150  -5.500  22.639  0.00  0.00    +0.305 C 
ATOM     21  OE2 GLU A   1       5.293  -4.291  22.735  0.00  0.00    -0.251 OA
BRANCH  20  22
ATOM     22  OE1 GLU A   1       5.264  -6.150  21.458  0.00  0.00    -0.481 OA
ATOM     23  HE1 GLU A   1       4.408  -6.319  21.020  0.00  0.00    +0.295 HD
ENDBRANCH  20  22
ENDBRANCH  19  20
ENDBRANCH  18  19
ENDBRANCH  13  18
ENDBRANCH  10  13
ENDBRANCH   6   9
ENDBRANCH   1   3
BRANCH   1  24
ATOM     24  C   UNK A   0       9.315   2.256  24.632  0.00  0.00    +0.126 C 
BRANCH  24  35
ATOM     25  N   UNK A   0       3.198   2.979  22.642  0.00  0.00    -0.329 N 
ATOM     26  H   UNK A   0       2.954   2.563  21.752  0.00  0.00    +0.145 HD
ATOM     27  H   UNK A   0       2.533   3.703  22.901  0.00  0.00    +0.145 HD
ATOM     28  C   UNK A   0       4.471   3.429  22.747  0.00  0.00    +0.195 A 
ATOM     29  N   UNK A   0       5.398   2.582  22.258  0.00  0.00    -0.315 N 
ATOM     30  H   UNK A   0       5.125   1.668  21.936  0.00  0.00    +0.170 HD
ATOM     31  C   UNK A   0       6.734   2.815  22.400  0.00  0.00    +0.126 A 
ATOM     32  N   UNK A   0       7.631   1.855  21.970  0.00  0.00    -0.327 N 
ATOM     33  H   UNK A   0       7.300   0.896  21.969  0.00  0.00    +0.148 HD
ATOM     34  C   UNK A   0       9.070   2.047  22.083  0.00  0.00    +0.127 C 
ATOM     35  C   UNK A   0       9.401   2.983  23.261  0.00  0.00    +0.115 C 
ATOM     36  N   UNK A   0       8.522   4.184  23.242  0.00  0.00    -0.261 N 
ATOM     37  C   UNK A   0       9.093   5.385  23.629  0.00  0.00    +0.333 C 
ATOM     38  O   UNK A   0      10.255   5.506  24.010  0.00  0.00    -0.279 OA
ATOM     39  C   UNK A   0       7.152   3.975  22.976  0.00  0.00    +0.142 A 
ATOM     40  C   UNK A   0       6.055   4.957  23.393  0.00  0.00    +0.298 A 
ATOM     41  O   UNK A   0       6.345   6.053  23.863  0.00  0.00    -0.264 OA
ATOM     42  N   UNK A   0       4.736   4.565  23.294  0.00  0.00    -0.176 NA
ENDBRANCH  24  35
ENDBRANCH   1  24
TORSDOF 11
ENDMDL
MODEL 9
REMARK VINA RESULT:      -7.2      2.654      8.782
REMARK  Name = 
REMARK  11 active torsions:
REMARK  status: ('A' for Active; 'I' for Inactive)
REMARK    1  A    between atoms: C_10  and  C_12
REMARK    2  A    between atoms: C_12  and  N_13
REMARK    3  A    between atoms: N_13  and  C_14
REMARK    4  A    between atoms: C_17  and  C_20
REMARK    5  A    between atoms: N_22  and  CA_23
REMARK    6  A    between atoms: CA_23  and  CB_25
REMARK    7  A    between atoms: CA_23  and  C_30
REMARK    8  A    between atoms: CB_25  and  CG_26
REMARK    9  A    between atoms: CG_26  and  CD_27
REMARK   10  A    between atoms: CD_27  and  OE1_28
REMARK   11  A    between atoms: C_30  and  O_31
REMARK                            x       y       z     vdW  Elec       q    Type
REMARK                         _______ _______ _______ _____ _____    ______ ____
ROOT
ATOM      1  N   UNK A   0       9.040  -2.531  23.348  0.00  0.00    -0.342 N 
ATOM      2  H   UNK A   0       9.126  -2.832  22.377  0.00  0.00    +0.146 HD
ENDROOT
BRANCH   1   3
ATOM      3  C   UNK A   0       9.214  -1.142  23.440  0.00  0.00    +0.027 A 
ATOM      4  C   UNK A   0      10.118  -0.657  24.397  0.00  0.00    +0.023 A 
ATOM      5  C   UNK A   0      10.283   0.714  24.642  0.00  0.00    +0.015 A 
ATOM      6  C   UNK A   0       9.513   1.648  23.948  0.00  0.00    +0.037 A 
ATOM      7  C   UNK A   0       8.590   1.176  23.003  0.00  0.00    +0.015 A 
ATOM      8  C   UNK A   0       8.435  -0.201  22.763  0.00  0.00    +0.023 A 
BRANCH   6   9
ATOM      9  C   UNK A   0       9.549   3.119  24.233  0.00  0.00    +0.245 C 
ATOM     10  N   GLU A   1      10.474   3.892  23.554  0.00  0.00    -0.298 N 
ATOM     11  H   GLU A   1      10.855   3.559  22.677  0.00  0.00    +0.150 HD
ATOM     12  O   UNK A   0       8.790   3.606  25.066  0.00  0.00    -0.270 OA
BRANCH  10  13
ATOM     13  CA  GLU A   1      10.656   5.328  23.858  0.00  0.00    +0.182 C 
BRANCH  13  14
ATOM     14  C   GLU A   1      12.154   5.673  23.747  0.00  0.00    +0.325 C 
ATOM     15  OXT GLU A   1      12.864   5.433  22.784  0.00  0.00    -0.249 OA
BRANCH  14  16
ATOM     16  O   GLU A   1      12.611   6.362  24.826  0.00  0.00    -0.479 OA
ATOM     17  H   GLU A   1      11.892   6.914  25.194  0.00  0.00    +0.295 HD
ENDBRANCH  14  16
ENDBRANCH  13  14
BRANCH  13  18
ATOM     18  CB  GLU A   1       9.830   6.243  22.949  0.00  0.00    +0.045 C 
BRANCH  18  19
ATOM     19  CG  GLU A   1       8.359   6.337  23.351  0.00  0.00    +0.123 C 
BRANCH  19  20
ATOM     20  CD  GLU A   1       7.442   6.102  22.175  0.00  0.00    +0.305 C 
ATOM     21  OE2 GLU A   1       6.815   6.968  21.584  0.00  0.00    -0.251 OA
BRANCH  20  22
ATOM     22  OE1 GLU A   1       7.402   4.801  21.807  0.00  0.00    -0.481 OA
ATOM     23  HE1 GLU A   1       8.217   4.309  22.022  0.00  0.00    +0.295 HD
ENDBRANCH  20  22
ENDBRANCH  19  20
ENDBRANCH  18  19
ENDBRANCH  13  18
ENDBRANCH  10  13
ENDBRANCH   6   9
ENDBRANCH   1   3
BRANCH   1  24
ATOM     24  C   UNK A   0       7.891  -3.170  24.006  0.00  0.00    +0.126 C 
BRANCH  24  35
ATOM     25  N   UNK A   0       5.629  -5.634  29.548  0.00  0.00    -0.329 N 
ATOM     26  H   UNK A   0       6.243  -6.259  30.056  0.00  0.00    +0.145 HD
ATOM     27  H   UNK A   0       4.661  -5.764  29.830  0.00  0.00    +0.145 HD
ATOM     28  C   UNK A   0       5.749  -5.665  28.199  0.00  0.00    +0.195 A 
ATOM     29  N   UNK A   0       7.022  -5.669  27.759  0.00  0.00    -0.315 N 
ATOM     30  H   UNK A   0       7.781  -5.567  28.412  0.00  0.00    +0.170 HD
ATOM     31  C   UNK A   0       7.328  -5.567  26.434  0.00  0.00    +0.126 A 
ATOM     32  N   UNK A   0       8.654  -5.472  26.058  0.00  0.00    -0.327 N 
ATOM     33  H   UNK A   0       9.288  -5.065  26.736  0.00  0.00    +0.148 HD
ATOM     34  C   UNK A   0       9.047  -5.370  24.659  0.00  0.00    +0.127 C 
ATOM     35  C   UNK A   0       7.928  -4.714  23.827  0.00  0.00    +0.115 C 
ATOM     36  N   UNK A   0       6.607  -5.317  24.154  0.00  0.00    -0.261 N 
ATOM     37  C   UNK A   0       5.713  -5.472  23.107  0.00  0.00    +0.333 C 
ATOM     38  O   UNK A   0       5.934  -5.116  21.953  0.00  0.00    -0.279 OA
ATOM     39  C   UNK A   0       6.322  -5.543  25.517  0.00  0.00    +0.142 A 
ATOM     40  C   UNK A   0       4.901  -5.673  26.068  0.00  0.00    +0.298 A 
ATOM     41  O   UNK A   0       3.939  -5.722  25.308  0.00  0.00    -0.264 OA
ATOM     42  N   UNK A   0       4.712  -5.665  27.435  0.00  0.00    -0.176 NA
ENDBRANCH  24  35
ENDBRANCH   1  24
TORSDOF 11
ENDMDL
