MODEL 1
REMARK VINA RESULT:      -5.4      0.000      0.000
REMARK  Name = 
REMARK  5 active torsions:
REMARK  status: ('A' for Active; 'I' for Inactive)
REMARK    1  A    between atoms: N_1  and  C_2
REMARK    2  A    between atoms: C_5  and  C_6
REMARK    3  A    between atoms: C_6  and  C_7
REMARK    4  A    between atoms: C_7  and  C_8
REMARK    5  A    between atoms: C_8  and  O_9
REMARK                            x       y       z     vdW  Elec       q    Type
REMARK                         _______ _______ _______ _____ _____    ______ ____
ROOT
ATOM      1  C   UNL     1      10.019  -0.484  22.775  0.00  0.00    +0.025 A 
ATOM      2  C   UNL     1      10.417  -0.070  24.046  0.00  0.00    +0.023 A 
ATOM      3  C   UNL     1      10.669   1.279  24.314  0.00  0.00    +0.005 A 
ATOM      4  C   UNL     1      10.474   2.253  23.325  0.00  0.00    -0.047 A 
ATOM      5  C   UNL     1      10.030   1.839  22.064  0.00  0.00    +0.005 A 
ATOM      6  C   UNL     1       9.775   0.488  21.807  0.00  0.00    +0.023 A 
ENDROOT
BRANCH   1   7
ATOM      7  N   UNL     1       9.655  -1.815  22.543  0.00  0.00    -0.358 N 
ATOM      8  H   UNL     1       9.701  -2.402  23.370  0.00  0.00    +0.142 HD
ATOM      9  H   UNL     1      10.131  -2.234  21.751  0.00  0.00    +0.142 HD
ENDBRANCH   1   7
BRANCH   4  10
ATOM     10  C   UNL     1      10.757   3.701  23.655  0.00  0.00    +0.046 C 
BRANCH  10  11
ATOM     11  C   UNL     1      11.830   4.399  22.822  0.00  0.00    +0.125 C 
BRANCH  11  12
ATOM     12  C   UNL     1      12.897   5.197  23.541  0.00  0.00    +0.305 C 
ATOM     13  O   UNL     1      12.609   5.967  24.450  0.00  0.00    -0.251 OA
BRANCH  12  14
ATOM     14  O   UNL     1      14.172   5.051  23.140  0.00  0.00    -0.481 OA
ATOM     15  H   UNL     1      14.795   4.656  23.775  0.00  0.00    +0.295 HD
ENDBRANCH  12  14
ENDBRANCH  11  12
ENDBRANCH  10  11
ENDBRANCH   4  10
TORSDOF 5
ENDMDL
MODEL 2
REMARK VINA RESULT:      -5.3      5.369      6.938
REMARK  Name = 
REMARK  5 active torsions:
REMARK  status: ('A' for Active; 'I' for Inactive)
REMARK    1  A    between atoms: N_1  and  C_2
REMARK    2  A    between atoms: C_5  and  C_6
REMARK    3  A    between atoms: C_6  and  C_7
REMARK    4  A    between atoms: C_7  and  C_8
REMARK    5  A    between atoms: C_8  and  O_9
REMARK                            x       y       z     vdW  Elec       q    Type
REMARK                         _______ _______ _______ _____ _____    ______ ____
ROOT
ATOM      1  C   UNL     1       9.920   0.835  22.197  0.00  0.00    +0.025 A 
ATOM      2  C   UNL     1       9.532  -0.301  21.489  0.00  0.00    +0.023 A 
ATOM      3  C   UNL     1       9.534  -1.560  22.097  0.00  0.00    +0.005 A 
ATOM      4  C   UNL     1       9.874  -1.700  23.450  0.00  0.00    -0.047 A 
ATOM      5  C   UNL     1      10.218  -0.551  24.170  0.00  0.00    +0.005 A 
ATOM      6  C   UNL     1      10.207   0.705  23.555  0.00  0.00    +0.023 A 
ENDROOT
BRANCH   1   7
ATOM      7  N   UNL     1       9.803   2.105  21.622  0.00  0.00    -0.358 N 
ATOM      8  H   UNL     1       8.932   2.249  21.121  0.00  0.00    +0.142 HD
ATOM      9  H   UNL     1      10.610   2.377  21.069  0.00  0.00    +0.142 HD
ENDBRANCH   1   7
BRANCH   4  10
ATOM     10  C   UNL     1       9.863  -3.079  24.071  0.00  0.00    +0.046 C 
BRANCH  10  11
ATOM     11  C   UNL     1       8.891  -3.306  25.225  0.00  0.00    +0.125 C 
BRANCH  11  12
ATOM     12  C   UNL     1       9.082  -4.526  26.101  0.00  0.00    +0.305 C 
ATOM     13  O   UNL     1       8.358  -4.732  27.068  0.00  0.00    -0.251 OA
BRANCH  12  14
ATOM     14  O   UNL     1      10.083  -5.370  25.798  0.00  0.00    -0.481 OA
ATOM     15  H   UNL     1       9.931  -6.318  25.961  0.00  0.00    +0.295 HD
ENDBRANCH  12  14
ENDBRANCH  11  12
ENDBRANCH  10  11
ENDBRANCH   4  10
TORSDOF 5
ENDMDL
MODEL 3
REMARK VINA RESULT:      -5.3      5.391      6.843
REMARK  Name = 
REMARK  5 active torsions:
REMARK  status: ('A' for Active; 'I' for Inactive)
REMARK    1  A    between atoms: N_1  and  C_2
REMARK    2  A    between atoms: C_5  and  C_6
REMARK    3  A    between atoms: C_6  and  C_7
REMARK    4  A    between atoms: C_7  and  C_8
REMARK    5  A    between atoms: C_8  and  O_9
REMARK                            x       y       z     vdW  Elec       q    Type
REMARK                         _______ _______ _______ _____ _____    ______ ____
ROOT
ATOM      1  C   UNL     1       9.803   0.842  22.262  0.00  0.00    +0.025 A 
ATOM      2  C   UNL     1      10.204   0.657  23.584  0.00  0.00    +0.023 A 
ATOM      3  C   UNL     1      10.199  -0.615  24.163  0.00  0.00    +0.005 A 
ATOM      4  C   UNL     1       9.843  -1.743  23.411  0.00  0.00    -0.047 A 
ATOM      5  C   UNL     1       9.485  -1.559  22.070  0.00  0.00    +0.005 A 
ATOM      6  C   UNL     1       9.499  -0.283  21.498  0.00  0.00    +0.023 A 
ENDROOT
BRANCH   1   7
ATOM      7  N   UNL     1       9.922   2.095  21.651  0.00  0.00    -0.358 N 
ATOM      8  H   UNL     1       9.809   2.071  20.643  0.00  0.00    +0.142 HD
ATOM      9  H   UNL     1      10.756   2.605  21.929  0.00  0.00    +0.142 HD
ENDBRANCH   1   7
BRANCH   4  10
ATOM     10  C   UNL     1       9.851  -3.101  24.074  0.00  0.00    +0.046 C 
BRANCH  10  11
ATOM     11  C   UNL     1       8.937  -3.281  25.284  0.00  0.00    +0.125 C 
BRANCH  11  12
ATOM     12  C   UNL     1       9.077  -4.539  26.115  0.00  0.00    +0.305 C 
ATOM     13  O   UNL     1       8.329  -4.762  27.059  0.00  0.00    -0.251 OA
BRANCH  12  14
ATOM     14  O   UNL     1      10.062  -5.398  25.798  0.00  0.00    -0.481 OA
ATOM     15  H   UNL     1       9.876  -6.051  25.101  0.00  0.00    +0.295 HD
ENDBRANCH  12  14
ENDBRANCH  11  12
ENDBRANCH  10  11
ENDBRANCH   4  10
TORSDOF 5
ENDMDL
MODEL 4
REMARK VINA RESULT:      -4.9      5.565      7.210
REMARK  Name = 
REMARK  5 active torsions:
REMARK  status: ('A' for Active; 'I' for Inactive)
REMARK    1  A    between atoms: N_1  and  C_2
REMARK    2  A    between atoms: C_5  and  C_6
REMARK    3  A    between atoms: C_6  and  C_7
REMARK    4  A    between atoms: C_7  and  C_8
REMARK    5  A    between atoms: C_8  and  O_9
REMARK                            x       y       z     vdW  Elec       q    Type
REMARK                         _______ _______ _______ _____ _____    ______ ____
ROOT
ATOM      1  C   UNL     1       9.938   0.906  22.132  0.00  0.00    +0.025 A 
ATOM      2  C   UNL     1       9.500  -0.236  21.463  0.00  0.00    +0.023 A 
ATOM      3  C   UNL     1       9.482  -1.479  22.103  0.00  0.00    +0.005 A 
ATOM      4  C   UNL     1       9.852  -1.596  23.450  0.00  0.00    -0.047 A 
ATOM      5  C   UNL     1      10.247  -0.439  24.132  0.00  0.00    +0.005 A 
ATOM      6  C   UNL     1      10.257   0.800  23.485  0.00  0.00    +0.023 A 
ENDROOT
BRANCH   1   7
ATOM      7  N   UNL     1       9.843   2.164  21.528  0.00  0.00    -0.358 N 
ATOM      8  H   UNL     1      10.413   2.262  20.694  0.00  0.00    +0.142 HD
ATOM      9  H   UNL     1       9.978   2.936  22.175  0.00  0.00    +0.142 HD
ENDBRANCH   1   7
BRANCH   4  10
ATOM     10  C   UNL     1       9.819  -2.958  24.105  0.00  0.00    +0.046 C 
BRANCH  10  11
ATOM     11  C   UNL     1       8.505  -3.373  24.763  0.00  0.00    +0.125 C 
BRANCH  11  12
ATOM     12  C   UNL     1       7.961  -4.757  24.481  0.00  0.00    +0.305 C 
ATOM     13  O   UNL     1       8.357  -5.411  23.524  0.00  0.00    -0.251 OA
BRANCH  12  14
ATOM     14  O   UNL     1       7.015  -5.242  25.304  0.00  0.00    -0.481 OA
ATOM     15  H   UNL     1       6.881  -6.206  25.308  0.00  0.00    +0.295 HD
ENDBRANCH  12  14
ENDBRANCH  11  12
ENDBRANCH  10  11
ENDBRANCH   4  10
TORSDOF 5
ENDMDL
MODEL 5
REMARK VINA RESULT:      -4.8      5.106      6.509
REMARK  Name = 
REMARK  5 active torsions:
REMARK  status: ('A' for Active; 'I' for Inactive)
REMARK    1  A    between atoms: N_1  and  C_2
REMARK    2  A    between atoms: C_5  and  C_6
REMARK    3  A    between atoms: C_6  and  C_7
REMARK    4  A    between atoms: C_7  and  C_8
REMARK    5  A    between atoms: C_8  and  O_9
REMARK                            x       y       z     vdW  Elec       q    Type
REMARK                         _______ _______ _______ _____ _____    ______ ____
ROOT
ATOM      1  C   UNL     1      10.245   2.282  23.054  0.00  0.00    +0.025 A 
ATOM      2  C   UNL     1      10.614   1.575  24.198  0.00  0.00    +0.023 A 
ATOM      3  C   UNL     1      10.543   0.179  24.232  0.00  0.00    +0.005 A 
ATOM      4  C   UNL     1      10.151  -0.545  23.098  0.00  0.00    -0.047 A 
ATOM      5  C   UNL     1       9.826   0.166  21.937  0.00  0.00    +0.005 A 
ATOM      6  C   UNL     1       9.905   1.562  21.911  0.00  0.00    +0.023 A 
ENDROOT
BRANCH   1   7
ATOM      7  N   UNL     1      10.430   3.667  22.984  0.00  0.00    -0.358 N 
ATOM      8  H   UNL     1       9.710   4.200  23.460  0.00  0.00    +0.142 HD
ATOM      9  H   UNL     1      10.596   4.007  22.042  0.00  0.00    +0.142 HD
ENDBRANCH   1   7
BRANCH   4  10
ATOM     10  C   UNL     1      10.087  -2.053  23.175  0.00  0.00    +0.046 C 
BRANCH  10  11
ATOM     11  C   UNL     1       9.414  -2.651  24.409  0.00  0.00    +0.125 C 
BRANCH  11  12
ATOM     12  C   UNL     1       8.928  -4.083  24.344  0.00  0.00    +0.305 C 
ATOM     13  O   UNL     1       9.625  -5.008  24.742  0.00  0.00    -0.251 OA
BRANCH  12  14
ATOM     14  O   UNL     1       7.712  -4.313  23.820  0.00  0.00    -0.481 OA
ATOM     15  H   UNL     1       7.347  -5.210  23.918  0.00  0.00    +0.295 HD
ENDBRANCH  12  14
ENDBRANCH  11  12
ENDBRANCH  10  11
ENDBRANCH   4  10
TORSDOF 5
ENDMDL
MODEL 6
REMARK VINA RESULT:      -4.7      5.279      6.876
REMARK  Name = 
REMARK  5 active torsions:
REMARK  status: ('A' for Active; 'I' for Inactive)
REMARK    1  A    between atoms: N_1  and  C_2
REMARK    2  A    between atoms: C_5  and  C_6
REMARK    3  A    between atoms: C_6  and  C_7
REMARK    4  A    between atoms: C_7  and  C_8
REMARK    5  A    between atoms: C_8  and  O_9
REMARK                            x       y       z     vdW  Elec       q    Type
REMARK                         _______ _______ _______ _____ _____    ______ ____
ROOT
ATOM      1  C   UNL     1       7.851  -5.187  26.179  0.00  0.00    +0.025 A 
ATOM      2  C   UNL     1       6.697  -5.065  25.405  0.00  0.00    +0.023 A 
ATOM      3  C   UNL     1       6.709  -4.339  24.211  0.00  0.00    +0.005 A 
ATOM      4  C   UNL     1       7.896  -3.762  23.736  0.00  0.00    -0.047 A 
ATOM      5  C   UNL     1       9.062  -3.926  24.492  0.00  0.00    +0.005 A 
ATOM      6  C   UNL     1       9.041  -4.659  25.683  0.00  0.00    +0.023 A 
ENDROOT
BRANCH   1   7
ATOM      7  N   UNL     1       7.864  -6.011  27.310  0.00  0.00    -0.358 N 
ATOM      8  H   UNL     1       7.322  -6.863  27.201  0.00  0.00    +0.142 HD
ATOM      9  H   UNL     1       7.639  -5.523  28.171  0.00  0.00    +0.142 HD
ENDBRANCH   1   7
BRANCH   4  10
ATOM     10  C   UNL     1       7.867  -2.985  22.439  0.00  0.00    +0.046 C 
BRANCH  10  11
ATOM     11  C   UNL     1       8.179  -1.493  22.525  0.00  0.00    +0.125 C 
BRANCH  11  12
ATOM     12  C   UNL     1       9.397  -0.966  21.797  0.00  0.00    +0.305 C 
ATOM     13  O   UNL     1       9.347   0.070  21.145  0.00  0.00    -0.251 OA
BRANCH  12  14
ATOM     14  O   UNL     1      10.534  -1.680  21.871  0.00  0.00    -0.481 OA
ATOM     15  H   UNL     1      10.468  -2.587  22.217  0.00  0.00    +0.295 HD
ENDBRANCH  12  14
ENDBRANCH  11  12
ENDBRANCH  10  11
ENDBRANCH   4  10
TORSDOF 5
ENDMDL
MODEL 7
REMARK VINA RESULT:      -4.6      6.287      7.933
REMARK  Name = 
REMARK  5 active torsions:
REMARK  status: ('A' for Active; 'I' for Inactive)
REMARK    1  A    between atoms: N_1  and  C_2
REMARK    2  A    between atoms: C_5  and  C_6
REMARK    3  A    between atoms: C_6  and  C_7
REMARK    4  A    between atoms: C_7  and  C_8
REMARK    5  A    between atoms: C_8  and  O_9
REMARK                            x       y       z     vdW  Elec       q    Type
REMARK                         _______ _______ _______ _____ _____    ______ ____
ROOT
ATOM      1  C   UNL     1       9.131   0.883  21.845  0.00  0.00    +0.025 A 
ATOM      2  C   UNL     1       7.899   0.811  22.494  0.00  0.00    +0.023 A 
ATOM      3  C   UNL     1       7.323  -0.424  22.804  0.00  0.00    +0.005 A 
ATOM      4  C   UNL     1       7.998  -1.620  22.519  0.00  0.00    -0.047 A 
ATOM      5  C   UNL     1       9.255  -1.543  21.909  0.00  0.00    +0.005 A 
ATOM      6  C   UNL     1       9.825  -0.302  21.608  0.00  0.00    +0.023 A 
ENDROOT
BRANCH   1   7
ATOM      7  N   UNL     1       9.758   2.117  21.644  0.00  0.00    -0.358 N 
ATOM      8  H   UNL     1      10.631   2.220  22.152  0.00  0.00    +0.142 HD
ATOM      9  H   UNL     1       9.141   2.913  21.780  0.00  0.00    +0.142 HD
ENDBRANCH   1   7
BRANCH   4  10
ATOM     10  C   UNL     1       7.341  -2.935  22.870  0.00  0.00    +0.046 C 
BRANCH  10  11
ATOM     11  C   UNL     1       6.246  -3.431  21.929  0.00  0.00    +0.125 C 
BRANCH  11  12
ATOM     12  C   UNL     1       6.088  -4.923  21.725  0.00  0.00    +0.305 C 
ATOM     13  O   UNL     1       6.985  -5.594  21.229  0.00  0.00    -0.251 OA
BRANCH  12  14
ATOM     14  O   UNL     1       4.925  -5.490  22.089  0.00  0.00    -0.481 OA
ATOM     15  H   UNL     1       4.519  -5.180  22.918  0.00  0.00    +0.295 HD
ENDBRANCH  12  14
ENDBRANCH  11  12
ENDBRANCH  10  11
ENDBRANCH   4  10
TORSDOF 5
ENDMDL
MODEL 8
REMARK VINA RESULT:      -4.5      2.284      2.794
REMARK  Name = 
REMARK  5 active torsions:
REMARK  status: ('A' for Active; 'I' for Inactive)
REMARK    1  A    between atoms: N_1  and  C_2
REMARK    2  A    between atoms: C_5  and  C_6
REMARK    3  A    between atoms: C_6  and  C_7
REMARK    4  A    between atoms: C_7  and  C_8
REMARK    5  A    between atoms: C_8  and  O_9
REMARK                            x       y       z     vdW  Elec       q    Type
REMARK                         _______ _______ _______ _____ _____    ______ ____
ROOT
ATOM      1  C   UNL     1      10.056  -0.596  22.653  0.00  0.00    +0.025 A 
ATOM      2  C   UNL     1      10.498  -0.166  23.903  0.00  0.00    +0.023 A 
ATOM      3  C   UNL     1      10.673   1.195  24.172  0.00  0.00    +0.005 A 
ATOM      4  C   UNL     1      10.357   2.161  23.207  0.00  0.00    -0.047 A 
ATOM      5  C   UNL     1       9.870   1.728  21.969  0.00  0.00    +0.005 A 
ATOM      6  C   UNL     1       9.692   0.365  21.712  0.00  0.00    +0.023 A 
ENDROOT
BRANCH   1   7
ATOM      7  N   UNL     1       9.769  -1.946  22.426  0.00  0.00    -0.358 N 
ATOM      8  H   UNL     1      10.407  -2.584  22.892  0.00  0.00    +0.142 HD
ATOM      9  H   UNL     1       9.648  -2.177  21.445  0.00  0.00    +0.142 HD
ENDBRANCH   1   7
BRANCH   4  10
ATOM     10  C   UNL     1      10.561   3.623  23.537  0.00  0.00    +0.046 C 
BRANCH  10  11
ATOM     11  C   UNL     1       9.363   4.371  24.117  0.00  0.00    +0.125 C 
BRANCH  11  12
ATOM     12  C   UNL     1       8.357   4.975  23.161  0.00  0.00    +0.305 C 
ATOM     13  O   UNL     1       7.300   4.408  22.910  0.00  0.00    -0.251 OA
BRANCH  12  14
ATOM     14  O   UNL     1       8.665   6.147  22.579  0.00  0.00    -0.481 OA
ATOM     15  H   UNL     1       7.926   6.686  22.244  0.00  0.00    +0.295 HD
ENDBRANCH  12  14
ENDBRANCH  11  12
ENDBRANCH  10  11
ENDBRANCH   4  10
TORSDOF 5
ENDMDL
MODEL 9
REMARK VINA RESULT:      -4.5      1.416      2.353
REMARK  Name = 
REMARK  5 active torsions:
REMARK  status: ('A' for Active; 'I' for Inactive)
REMARK    1  A    between atoms: N_1  and  C_2
REMARK    2  A    between atoms: C_5  and  C_6
REMARK    3  A    between atoms: C_6  and  C_7
REMARK    4  A    between atoms: C_7  and  C_8
REMARK    5  A    between atoms: C_8  and  O_9
REMARK                            x       y       z     vdW  Elec       q    Type
REMARK                         _______ _______ _______ _____ _____    ______ ____
ROOT
ATOM      1  C   UNL     1       9.557  -0.604  22.506  0.00  0.00    +0.025 A 
ATOM      2  C   UNL     1       9.462   0.436  21.583  0.00  0.00    +0.023 A 
ATOM      3  C   UNL     1       9.893   1.725  21.909  0.00  0.00    +0.005 A 
ATOM      4  C   UNL     1      10.481   1.989  23.154  0.00  0.00    -0.047 A 
ATOM      5  C   UNL     1      10.617   0.932  24.061  0.00  0.00    +0.005 A 
ATOM      6  C   UNL     1      10.189  -0.355  23.723  0.00  0.00    +0.023 A 
ENDROOT
BRANCH   1   7
ATOM      7  N   UNL     1       9.236  -1.915  22.136  0.00  0.00    -0.358 N 
ATOM      8  H   UNL     1       9.066  -2.532  22.924  0.00  0.00    +0.142 HD
ATOM      9  H   UNL     1       9.885  -2.319  21.467  0.00  0.00    +0.142 HD
ENDBRANCH   1   7
BRANCH   4  10
ATOM     10  C   UNL     1      10.934   3.397  23.468  0.00  0.00    +0.046 C 
BRANCH  10  11
ATOM     11  C   UNL     1       9.851   4.394  23.873  0.00  0.00    +0.125 C 
BRANCH  11  12
ATOM     12  C   UNL     1      10.182   5.871  23.846  0.00  0.00    +0.305 C 
ATOM     13  O   UNL     1      11.262   6.287  24.249  0.00  0.00    -0.251 OA
BRANCH  12  14
ATOM     14  O   UNL     1       9.246   6.719  23.384  0.00  0.00    -0.481 OA
ATOM     15  H   UNL     1       9.121   6.760  22.419  0.00  0.00    +0.295 HD
ENDBRANCH  12  14
ENDBRANCH  11  12
ENDBRANCH  10  11
ENDBRANCH   4  10
TORSDOF 5
ENDMDL
