MODEL 1
REMARK VINA RESULT:      -7.0      0.000      0.000
REMARK  Name = 
REMARK  15 active torsions:
REMARK  status: ('A' for Active; 'I' for Inactive)
REMARK    1  A    between atoms: C_1  and  C_2
REMARK    2  A    between atoms: C_6  and  C_8
REMARK    3  A    between atoms: C_8  and  O_9
REMARK    4  A    between atoms: C_11  and  C_12
REMARK    5  A    between atoms: C_20  and  C_21
REMARK    6  A    between atoms: C_21  and  C_22
REMARK    7  A    between atoms: C_22  and  C_23
REMARK    8  A    between atoms: C_23  and  O_24
REMARK    9  A    between atoms: C_26  and  C_27
REMARK   10  A    between atoms: C_31  and  C_33
REMARK   11  A    between atoms: C_39  and  C_40
REMARK   12  A    between atoms: C_40  and  C_41
REMARK   13  A    between atoms: C_41  and  C_42
REMARK   14  A    between atoms: C_42  and  O_43
REMARK   15  A    between atoms: C_45  and  C_46
REMARK                            x       y       z     vdW  Elec       q    Type
REMARK                         _______ _______ _______ _____ _____    ______ ____
ROOT
ATOM      1  C   UNL     1       1.222  -8.493  26.544  0.00  0.00    +0.000 C 
ATOM      2  C   UNL     1       1.448  -6.570  27.022  0.00  0.00    +0.000 C 
ATOM      3  C   UNL     1       1.827  -6.049  28.454  0.00  0.00    +0.000 C 
ATOM      4  C   UNL     1       3.298  -3.894  27.669  0.00  0.00    +0.000 C 
ATOM      5  N   UNL     1       2.564  -3.737  26.358  0.00  0.00    +0.000 N 
ATOM      6 FE   UNL     1       4.225  -2.183  25.200  0.00  0.00    +0.000 Fe
ATOM      7  N   UNL     1       6.203   0.713  24.420  0.00  0.00    +0.000 N 
ATOM      8  C   UNL     1       7.336   0.286  25.444  0.00  0.00    +0.000 A 
ATOM      9  C   UNL     1       8.563   1.630  24.736  0.00  0.00    +0.000 A 
ATOM     10  C   UNL     1      10.006   2.565  23.116  0.00  0.00    +0.000 C 
ATOM     11  C   UNL     1       7.625   2.643  24.741  0.00  0.00    +0.000 A 
ATOM     12  C   UNL     1       5.991   1.691  24.963  0.00  0.00    +0.000 A 
ATOM     13  C   UNL     1       5.366   0.964  26.116  0.00  0.00    +0.000 C 
ATOM     14  C   UNL     1       5.702  -1.055  25.508  0.00  0.00    +0.000 A 
ATOM     15  C   UNL     1       6.568  -1.358  23.882  0.00  0.00    +0.000 A 
ATOM     16  C   UNL     1       7.204  -2.367  24.104  0.00  0.00    +0.000 A 
ATOM     17  C   UNL     1       7.438  -3.109  22.631  0.00  0.00    +0.000 C 
ATOM     18  C   UNL     1       6.643  -2.789  25.326  0.00  0.00    +0.000 A 
ATOM     19  C   UNL     1       6.176  -3.687  24.941  0.00  0.00    +0.000 C 
ATOM     20  C   UNL     1       5.802  -4.733  25.102  0.00  0.00    +0.000 C 
ATOM     21  C   UNL     1       5.204  -5.241  23.969  0.00  0.00    +0.000 C 
ATOM     22  C   UNL     1       5.179  -4.592  22.706  0.00  0.00    +0.000 C 
ATOM     23  C   UNL     1       4.301  -6.167  24.117  0.00  0.00    +0.000 C 
ATOM     24  C   UNL     1       4.277  -5.857  25.524  0.00  0.00    +0.000 C 
ATOM     25  C   UNL     1       3.202  -6.371  25.823  0.00  0.00    +0.000 C 
ATOM     26  N   UNL     1       4.954  -4.547  25.826  0.00  0.00    +0.000 N 
ATOM     27  N   UNL     1       5.615  -2.020  25.831  0.00  0.00    +0.000 N 
ATOM     28  C   UNL     1       4.956  -2.045  27.697  0.00  0.00    +0.000 C 
ATOM     29  C   UNL     1       2.172  -5.525  26.260  0.00  0.00    +0.000 C 
ENDROOT
BRANCH   3  30
ATOM     30  C   UNL     1       0.673  -7.837  28.957  0.00  0.00    +0.000 C 
ATOM     31  C   UNL     1       0.495  -9.160  29.771  0.00  0.00    +0.000 C 
ENDBRANCH   3  30
BRANCH  23  32
ATOM     32  C   UNL     1       2.923  -6.135  23.272  0.00  0.00    +0.000 C 
ATOM     33  C   UNL     1       2.431  -7.313  22.894  0.00  0.00    +0.000 C 
BRANCH  32  34
ATOM     34  O   UNL     1       2.185  -5.017  22.980  0.00  0.00    +0.000 OA
ATOM     35  H   UNL     1       1.987  -4.779  22.049  0.00  0.00    +0.000 HD
ENDBRANCH  32  34
ENDBRANCH  23  32
BRANCH  11  36
ATOM     36  C   UNL     1       8.723   4.114  24.828  0.00  0.00    +0.000 C 
BRANCH  36  37
ATOM     37  C   UNL     1       8.468   5.719  24.683  0.00  0.00    +0.000 C 
BRANCH  37  38
ATOM     38  C   UNL     1       8.888   6.154  23.359  0.00  0.00    +0.000 C 
ATOM     39  O   UNL     1       8.078   6.669  22.606  0.00  0.00    +0.000 OA
BRANCH  38  40
ATOM     40  O   UNL     1      10.165   5.982  22.985  0.00  0.00    +0.000 OA
ATOM     41  H   UNL     1      10.853   6.572  23.331  0.00  0.00    +0.000 HD
ENDBRANCH  38  40
ENDBRANCH  37  38
ENDBRANCH  36  37
ENDBRANCH  11  36
BRANCH  15  42
ATOM     42  C   UNL     1       7.361  -0.531  22.672  0.00  0.00    +0.000 C 
BRANCH  42  43
ATOM     43  C   UNL     1       8.800  -0.301  22.009  0.00  0.00    +0.000 C 
BRANCH  43  44
ATOM     44  C   UNL     1       9.960  -1.045  22.611  0.00  0.00    +0.000 C 
ATOM     45  O   UNL     1      10.189  -0.940  23.804  0.00  0.00    +0.000 OA
BRANCH  44  46
ATOM     46  O   UNL     1      10.693  -1.896  21.861  0.00  0.00    +0.000 OA
ATOM     47  H   UNL     1      11.445  -2.389  22.219  0.00  0.00    +0.000 HD
ENDBRANCH  44  46
ENDBRANCH  43  44
ENDBRANCH  42  43
ENDBRANCH  15  42
TORSDOF 11
ENDMDL
MODEL 2
REMARK VINA RESULT:      -7.0      2.373      9.870
REMARK  Name = 
REMARK  15 active torsions:
REMARK  status: ('A' for Active; 'I' for Inactive)
REMARK    1  A    between atoms: C_1  and  C_2
REMARK    2  A    between atoms: C_6  and  C_8
REMARK    3  A    between atoms: C_8  and  O_9
REMARK    4  A    between atoms: C_11  and  C_12
REMARK    5  A    between atoms: C_20  and  C_21
REMARK    6  A    between atoms: C_21  and  C_22
REMARK    7  A    between atoms: C_22  and  C_23
REMARK    8  A    between atoms: C_23  and  O_24
REMARK    9  A    between atoms: C_26  and  C_27
REMARK   10  A    between atoms: C_31  and  C_33
REMARK   11  A    between atoms: C_39  and  C_40
REMARK   12  A    between atoms: C_40  and  C_41
REMARK   13  A    between atoms: C_41  and  C_42
REMARK   14  A    between atoms: C_42  and  O_43
REMARK   15  A    between atoms: C_45  and  C_46
REMARK                            x       y       z     vdW  Elec       q    Type
REMARK                         _______ _______ _______ _____ _____    ______ ____
ROOT
ATOM      1  C   UNL     1      10.507   2.264  22.642  0.00  0.00    +0.000 C 
ATOM      2  C   UNL     1       9.426   1.817  24.257  0.00  0.00    +0.000 C 
ATOM      3  C   UNL     1       8.279   2.720  24.836  0.00  0.00    +0.000 C 
ATOM      4  C   UNL     1       6.675   0.714  25.746  0.00  0.00    +0.000 C 
ATOM      5  N   UNL     1       7.817  -0.256  25.938  0.00  0.00    +0.000 N 
ATOM      6 FE   UNL     1       6.440  -2.393  26.164  0.00  0.00    +0.000 Fe
ATOM      7  N   UNL     1       4.158  -4.852  27.449  0.00  0.00    +0.000 N 
ATOM      8  C   UNL     1       2.916  -4.139  26.769  0.00  0.00    +0.000 A 
ATOM      9  C   UNL     1       1.762  -5.672  27.135  0.00  0.00    +0.000 A 
ATOM     10  C   UNL     1       0.993  -7.886  26.841  0.00  0.00    +0.000 C 
ATOM     11  C   UNL     1       2.169  -5.800  28.448  0.00  0.00    +0.000 A 
ATOM     12  C   UNL     1       3.738  -4.724  28.500  0.00  0.00    +0.000 A 
ATOM     13  C   UNL     1       3.979  -3.244  28.460  0.00  0.00    +0.000 C 
ATOM     14  C   UNL     1       4.695  -3.039  26.459  0.00  0.00    +0.000 A 
ATOM     15  C   UNL     1       4.836  -4.575  25.407  0.00  0.00    +0.000 A 
ATOM     16  C   UNL     1       4.571  -4.162  24.296  0.00  0.00    +0.000 A 
ATOM     17  C   UNL     1       5.313  -5.194  23.220  0.00  0.00    +0.000 C 
ATOM     18  C   UNL     1       4.621  -2.768  24.497  0.00  0.00    +0.000 A 
ATOM     19  C   UNL     1       5.495  -2.589  23.883  0.00  0.00    +0.000 C 
ATOM     20  C   UNL     1       6.097  -1.907  23.225  0.00  0.00    +0.000 C 
ATOM     21  C   UNL     1       7.281  -2.491  22.831  0.00  0.00    +0.000 C 
ATOM     22  C   UNL     1       7.648  -3.836  23.100  0.00  0.00    +0.000 C 
ATOM     23  C   UNL     1       8.277  -1.711  22.530  0.00  0.00    +0.000 C 
ATOM     24  C   UNL     1       7.546  -0.621  23.125  0.00  0.00    +0.000 C 
ATOM     25  C   UNL     1       8.470   0.173  23.289  0.00  0.00    +0.000 C 
ATOM     26  N   UNL     1       6.393  -1.104  23.963  0.00  0.00    +0.000 N 
ATOM     27  N   UNL     1       4.959  -2.338  25.764  0.00  0.00    +0.000 N 
ATOM     28  C   UNL     1       4.655  -0.523  26.493  0.00  0.00    +0.000 C 
ATOM     29  C   UNL     1       8.814   0.513  24.606  0.00  0.00    +0.000 C 
ENDROOT
BRANCH   3  30
ATOM     30  C   UNL     1       9.624   4.236  24.015  0.00  0.00    +0.000 C 
ATOM     31  C   UNL     1      10.169   5.701  23.984  0.00  0.00    +0.000 C 
ENDBRANCH   3  30
BRANCH  23  32
ATOM     32  C   UNL     1       9.778  -2.033  23.041  0.00  0.00    +0.000 C 
ATOM     33  C   UNL     1      10.773  -1.521  22.319  0.00  0.00    +0.000 C 
BRANCH  32  34
ATOM     34  O   UNL     1      10.109  -2.717  24.182  0.00  0.00    +0.000 OA
ATOM     35  H   UNL     1       9.454  -2.829  24.904  0.00  0.00    +0.000 HD
ENDBRANCH  32  34
ENDBRANCH  23  32
BRANCH  11  36
ATOM     36  C   UNL     1       0.713  -6.662  29.164  0.00  0.00    +0.000 C 
BRANCH  36  37
ATOM     37  C   UNL     1       0.496  -7.595  30.485  0.00  0.00    +0.000 C 
BRANCH  37  38
ATOM     38  C   UNL     1       1.363  -8.761  30.397  0.00  0.00    +0.000 C 
ATOM     39  O   UNL     1       0.882  -9.880  30.476  0.00  0.00    +0.000 OA
BRANCH  38  40
ATOM     40  O   UNL     1       2.682  -8.587  30.227  0.00  0.00    +0.000 OA
ATOM     41  H   UNL     1       3.085  -8.761  29.363  0.00  0.00    +0.000 HD
ENDBRANCH  38  40
ENDBRANCH  37  38
ENDBRANCH  36  37
ENDBRANCH  11  36
BRANCH  15  42
ATOM     42  C   UNL     1       4.448  -6.195  25.436  0.00  0.00    +0.000 C 
BRANCH  42  43
ATOM     43  C   UNL     1       3.911  -7.400  24.528  0.00  0.00    +0.000 C 
BRANCH  43  44
ATOM     44  C   UNL     1       2.596  -7.197  23.826  0.00  0.00    +0.000 C 
ATOM     45  O   UNL     1       2.038  -6.116  23.895  0.00  0.00    +0.000 OA
BRANCH  44  46
ATOM     46  O   UNL     1       2.076  -8.172  23.049  0.00  0.00    +0.000 OA
ATOM     47  H   UNL     1       1.702  -8.985  23.417  0.00  0.00    +0.000 HD
ENDBRANCH  44  46
ENDBRANCH  43  44
ENDBRANCH  42  43
ENDBRANCH  15  42
TORSDOF 11
ENDMDL
MODEL 3
REMARK VINA RESULT:      -6.8      2.176      2.780
REMARK  Name = 
REMARK  15 active torsions:
REMARK  status: ('A' for Active; 'I' for Inactive)
REMARK    1  A    between atoms: C_1  and  C_2
REMARK    2  A    between atoms: C_6  and  C_8
REMARK    3  A    between atoms: C_8  and  O_9
REMARK    4  A    between atoms: C_11  and  C_12
REMARK    5  A    between atoms: C_20  and  C_21
REMARK    6  A    between atoms: C_21  and  C_22
REMARK    7  A    between atoms: C_22  and  C_23
REMARK    8  A    between atoms: C_23  and  O_24
REMARK    9  A    between atoms: C_26  and  C_27
REMARK   10  A    between atoms: C_31  and  C_33
REMARK   11  A    between atoms: C_39  and  C_40
REMARK   12  A    between atoms: C_40  and  C_41
REMARK   13  A    between atoms: C_41  and  C_42
REMARK   14  A    between atoms: C_42  and  O_43
REMARK   15  A    between atoms: C_45  and  C_46
REMARK                            x       y       z     vdW  Elec       q    Type
REMARK                         _______ _______ _______ _____ _____    ______ ____
ROOT
ATOM      1  C   UNL     1       3.086  -8.119  25.138  0.00  0.00    +0.000 C 
ATOM      2  C   UNL     1       2.527  -6.240  25.501  0.00  0.00    +0.000 C 
ATOM      3  C   UNL     1       2.005  -5.721  26.888  0.00  0.00    +0.000 C 
ATOM      4  C   UNL     1       3.034  -3.202  26.731  0.00  0.00    +0.000 C 
ATOM      5  N   UNL     1       3.019  -3.176  25.221  0.00  0.00    +0.000 N 
ATOM      6 FE   UNL     1       4.547  -1.160  24.882  0.00  0.00    +0.000 Fe
ATOM      7  N   UNL     1       5.796   2.209  24.911  0.00  0.00    +0.000 N 
ATOM      8  C   UNL     1       6.353   2.050  26.387  0.00  0.00    +0.000 A 
ATOM      9  C   UNL     1       7.359   3.719  26.248  0.00  0.00    +0.000 A 
ATOM     10  C   UNL     1       9.097   5.108  25.453  0.00  0.00    +0.000 C 
ATOM     11  C   UNL     1       6.305   4.433  25.715  0.00  0.00    +0.000 A 
ATOM     12  C   UNL     1       5.094   3.057  25.200  0.00  0.00    +0.000 A 
ATOM     13  C   UNL     1       4.207   2.120  25.965  0.00  0.00    +0.000 C 
ATOM     14  C   UNL     1       5.323   0.311  25.767  0.00  0.00    +0.000 A 
ATOM     15  C   UNL     1       6.915   0.353  24.794  0.00  0.00    +0.000 A 
ATOM     16  C   UNL     1       7.607  -0.454  25.380  0.00  0.00    +0.000 A 
ATOM     17  C   UNL     1       8.717  -1.015  24.272  0.00  0.00    +0.000 C 
ATOM     18  C   UNL     1       6.659  -1.085  26.210  0.00  0.00    +0.000 A 
ATOM     19  C   UNL     1       6.698  -2.052  25.724  0.00  0.00    +0.000 C 
ATOM     20  C   UNL     1       6.589  -3.168  25.773  0.00  0.00    +0.000 C 
ATOM     21  C   UNL     1       6.779  -3.754  24.540  0.00  0.00    +0.000 C 
ATOM     22  C   UNL     1       7.199  -3.063  23.372  0.00  0.00    +0.000 C 
ATOM     23  C   UNL     1       6.204  -4.898  24.312  0.00  0.00    +0.000 C 
ATOM     24  C   UNL     1       5.417  -4.690  25.500  0.00  0.00    +0.000 C 
ATOM     25  C   UNL     1       4.515  -5.497  25.285  0.00  0.00    +0.000 C 
ATOM     26  N   UNL     1       5.482  -3.265  25.979  0.00  0.00    +0.000 N 
ATOM     27  N   UNL     1       5.352  -0.658  26.089  0.00  0.00    +0.000 N 
ATOM     28  C   UNL     1       3.903  -0.974  27.400  0.00  0.00    +0.000 C 
ATOM     29  C   UNL     1       3.219  -4.993  25.097  0.00  0.00    +0.000 C 
ENDROOT
BRANCH   3  30
ATOM     30  C   UNL     1       1.280  -7.783  26.920  0.00  0.00    +0.000 C 
ATOM     31  C   UNL     1       0.652  -8.994  27.683  0.00  0.00    +0.000 C 
ENDBRANCH   3  30
BRANCH  23  32
ATOM     32  C   UNL     1       5.460  -5.196  22.907  0.00  0.00    +0.000 C 
ATOM     33  C   UNL     1       5.804  -6.321  22.281  0.00  0.00    +0.000 C 
BRANCH  32  34
ATOM     34  O   UNL     1       4.463  -4.439  22.349  0.00  0.00    +0.000 OA
ATOM     35  H   UNL     1       3.777  -4.023  22.915  0.00  0.00    +0.000 HD
ENDBRANCH  32  34
ENDBRANCH  23  32
BRANCH  11  36
ATOM     36  C   UNL     1       6.782   6.141  26.196  0.00  0.00    +0.000 C 
BRANCH  36  37
ATOM     37  C   UNL     1       6.715   6.976  27.596  0.00  0.00    +0.000 C 
BRANCH  37  38
ATOM     38  C   UNL     1       7.680   6.420  28.534  0.00  0.00    +0.000 C 
ATOM     39  O   UNL     1       8.783   6.930  28.640  0.00  0.00    +0.000 OA
BRANCH  38  40
ATOM     40  O   UNL     1       7.340   5.352  29.270  0.00  0.00    +0.000 OA
ATOM     41  H   UNL     1       6.477   4.930  29.139  0.00  0.00    +0.000 HD
ENDBRANCH  38  40
ENDBRANCH  37  38
ENDBRANCH  36  37
ENDBRANCH  11  36
BRANCH  15  42
ATOM     42  C   UNL     1       7.942   1.436  24.052  0.00  0.00    +0.000 C 
BRANCH  42  43
ATOM     43  C   UNL     1       8.217   2.200  22.671  0.00  0.00    +0.000 C 
BRANCH  43  44
ATOM     44  C   UNL     1       9.338   1.681  21.812  0.00  0.00    +0.000 C 
ATOM     45  O   UNL     1       9.205   0.621  21.225  0.00  0.00    +0.000 OA
BRANCH  44  46
ATOM     46  O   UNL     1      10.450   2.421  21.614  0.00  0.00    +0.000 OA
ATOM     47  H   UNL     1      10.415   3.360  21.384  0.00  0.00    +0.000 HD
ENDBRANCH  44  46
ENDBRANCH  43  44
ENDBRANCH  42  43
ENDBRANCH  15  42
TORSDOF 11
ENDMDL
MODEL 4
REMARK VINA RESULT:      -6.3      1.656      2.027
REMARK  Name = 
REMARK  15 active torsions:
REMARK  status: ('A' for Active; 'I' for Inactive)
REMARK    1  A    between atoms: C_1  and  C_2
REMARK    2  A    between atoms: C_6  and  C_8
REMARK    3  A    between atoms: C_8  and  O_9
REMARK    4  A    between atoms: C_11  and  C_12
REMARK    5  A    between atoms: C_20  and  C_21
REMARK    6  A    between atoms: C_21  and  C_22
REMARK    7  A    between atoms: C_22  and  C_23
REMARK    8  A    between atoms: C_23  and  O_24
REMARK    9  A    between atoms: C_26  and  C_27
REMARK   10  A    between atoms: C_31  and  C_33
REMARK   11  A    between atoms: C_39  and  C_40
REMARK   12  A    between atoms: C_40  and  C_41
REMARK   13  A    between atoms: C_41  and  C_42
REMARK   14  A    between atoms: C_42  and  O_43
REMARK   15  A    between atoms: C_45  and  C_46
REMARK                            x       y       z     vdW  Elec       q    Type
REMARK                         _______ _______ _______ _____ _____    ______ ____
ROOT
ATOM      1  C   UNL     1       2.234  -8.077  27.321  0.00  0.00    +0.000 C 
ATOM      2  C   UNL     1       1.912  -6.111  27.225  0.00  0.00    +0.000 C 
ATOM      3  C   UNL     1       1.549  -5.209  28.458  0.00  0.00    +0.000 C 
ATOM      4  C   UNL     1       2.837  -2.953  27.637  0.00  0.00    +0.000 C 
ATOM      5  N   UNL     1       2.722  -3.293  26.170  0.00  0.00    +0.000 N 
ATOM      6 FE   UNL     1       4.438  -1.626  25.279  0.00  0.00    +0.000 Fe
ATOM      7  N   UNL     1       6.052   1.465  24.418  0.00  0.00    +0.000 N 
ATOM      8  C   UNL     1       6.689   1.602  25.864  0.00  0.00    +0.000 A 
ATOM      9  C   UNL     1       7.861   3.048  25.273  0.00  0.00    +0.000 A 
ATOM     10  C   UNL     1       9.684   3.975  24.090  0.00  0.00    +0.000 C 
ATOM     11  C   UNL     1       6.859   3.737  24.620  0.00  0.00    +0.000 A 
ATOM     12  C   UNL     1       5.470   2.439  24.513  0.00  0.00    +0.000 A 
ATOM     13  C   UNL     1       4.540   1.835  25.522  0.00  0.00    +0.000 C 
ATOM     14  C   UNL     1       5.431  -0.093  25.738  0.00  0.00    +0.000 A 
ATOM     15  C   UNL     1       6.948  -0.487  24.724  0.00  0.00    +0.000 A 
ATOM     16  C   UNL     1       7.584  -1.208  25.465  0.00  0.00    +0.000 A 
ATOM     17  C   UNL     1       8.546  -2.155  24.489  0.00  0.00    +0.000 C 
ATOM     18  C   UNL     1       6.631  -1.495  26.462  0.00  0.00    +0.000 A 
ATOM     19  C   UNL     1       6.529  -2.548  26.233  0.00  0.00    +0.000 C 
ATOM     20  C   UNL     1       6.300  -3.596  26.563  0.00  0.00    +0.000 C 
ATOM     21  C   UNL     1       6.339  -4.483  25.508  0.00  0.00    +0.000 C 
ATOM     22  C   UNL     1       6.751  -4.155  24.190  0.00  0.00    +0.000 C 
ATOM     23  C   UNL     1       5.626  -5.568  25.595  0.00  0.00    +0.000 C 
ATOM     24  C   UNL     1       4.950  -4.981  26.724  0.00  0.00    +0.000 C 
ATOM     25  C   UNL     1       3.951  -5.696  26.753  0.00  0.00    +0.000 C 
ATOM     26  N   UNL     1       5.206  -3.501  26.830  0.00  0.00    +0.000 N 
ATOM     27  N   UNL     1       5.375  -0.951  26.290  0.00  0.00    +0.000 N 
ATOM     28  C   UNL     1       3.993  -0.755  27.694  0.00  0.00    +0.000 C 
ATOM     29  C   UNL     1       2.710  -5.096  26.496  0.00  0.00    +0.000 C 
ENDROOT
BRANCH   3  30
ATOM     30  C   UNL     1       0.603  -7.095  29.032  0.00  0.00    +0.000 C 
ATOM     31  C   UNL     1       0.444  -8.292  30.024  0.00  0.00    +0.000 C 
ENDBRANCH   3  30
BRANCH  23  32
ATOM     32  C   UNL     1       4.759  -6.103  24.340  0.00  0.00    +0.000 C 
ATOM     33  C   UNL     1       4.324  -5.181  23.483  0.00  0.00    +0.000 C 
BRANCH  32  34
ATOM     34  O   UNL     1       4.500  -7.416  24.044  0.00  0.00    +0.000 OA
ATOM     35  H   UNL     1       4.162  -8.026  24.735  0.00  0.00    +0.000 HD
ENDBRANCH  32  34
ENDBRANCH  23  32
BRANCH  11  36
ATOM     36  C   UNL     1       7.555   5.438  24.641  0.00  0.00    +0.000 C 
BRANCH  36  37
ATOM     37  C   UNL     1       7.263   6.783  23.766  0.00  0.00    +0.000 C 
BRANCH  37  38
ATOM     38  C   UNL     1       6.786   6.403  22.444  0.00  0.00    +0.000 C 
ATOM     39  O   UNL     1       7.588   6.099  21.576  0.00  0.00    +0.000 OA
BRANCH  38  40
ATOM     40  O   UNL     1       5.467   6.391  22.200  0.00  0.00    +0.000 OA
ATOM     41  H   UNL     1       5.136   6.641  21.324  0.00  0.00    +0.000 HD
ENDBRANCH  38  40
ENDBRANCH  37  38
ENDBRANCH  36  37
ENDBRANCH  11  36
BRANCH  15  42
ATOM     42  C   UNL     1       8.035   0.246  23.695  0.00  0.00    +0.000 C 
BRANCH  42  43
ATOM     43  C   UNL     1       8.487   0.335  22.162  0.00  0.00    +0.000 C 
BRANCH  43  44
ATOM     44  C   UNL     1       8.685   1.709  21.583  0.00  0.00    +0.000 C 
ATOM     45  O   UNL     1       7.717   2.420  21.374  0.00  0.00    +0.000 OA
BRANCH  44  46
ATOM     46  O   UNL     1       9.929   2.194  21.377  0.00  0.00    +0.000 OA
ATOM     47  H   UNL     1      10.710   1.821  21.810  0.00  0.00    +0.000 HD
ENDBRANCH  44  46
ENDBRANCH  43  44
ENDBRANCH  42  43
ENDBRANCH  15  42
TORSDOF 11
ENDMDL
MODEL 5
REMARK VINA RESULT:      -6.2      2.557      4.656
REMARK  Name = 
REMARK  15 active torsions:
REMARK  status: ('A' for Active; 'I' for Inactive)
REMARK    1  A    between atoms: C_1  and  C_2
REMARK    2  A    between atoms: C_6  and  C_8
REMARK    3  A    between atoms: C_8  and  O_9
REMARK    4  A    between atoms: C_11  and  C_12
REMARK    5  A    between atoms: C_20  and  C_21
REMARK    6  A    between atoms: C_21  and  C_22
REMARK    7  A    between atoms: C_22  and  C_23
REMARK    8  A    between atoms: C_23  and  O_24
REMARK    9  A    between atoms: C_26  and  C_27
REMARK   10  A    between atoms: C_31  and  C_33
REMARK   11  A    between atoms: C_39  and  C_40
REMARK   12  A    between atoms: C_40  and  C_41
REMARK   13  A    between atoms: C_41  and  C_42
REMARK   14  A    between atoms: C_42  and  O_43
REMARK   15  A    between atoms: C_45  and  C_46
REMARK                            x       y       z     vdW  Elec       q    Type
REMARK                         _______ _______ _______ _____ _____    ______ ____
ROOT
ATOM      1  C   UNL     1       1.544  -7.676  27.426  0.00  0.00    +0.000 C 
ATOM      2  C   UNL     1       3.111  -6.991  26.401  0.00  0.00    +0.000 C 
ATOM      3  C   UNL     1       3.195  -6.941  24.834  0.00  0.00    +0.000 C 
ATOM      4  C   UNL     1       4.685  -4.668  24.632  0.00  0.00    +0.000 C 
ATOM      5  N   UNL     1       5.334  -4.847  25.984  0.00  0.00    +0.000 N 
ATOM      6 FE   UNL     1       6.268  -2.486  26.250  0.00  0.00    +0.000 Fe
ATOM      7  N   UNL     1       8.225   0.480  25.721  0.00  0.00    +0.000 N 
ATOM      8  C   UNL     1       7.221   1.015  24.616  0.00  0.00    +0.000 A 
ATOM      9  C   UNL     1       8.063   2.777  24.621  0.00  0.00    +0.000 A 
ATOM     10  C   UNL     1       8.601   4.887  25.539  0.00  0.00    +0.000 C 
ATOM     11  C   UNL     1       9.349   2.279  24.559  0.00  0.00    +0.000 A 
ATOM     12  C   UNL     1       9.102   0.443  24.997  0.00  0.00    +0.000 A 
ATOM     13  C   UNL     1       8.505  -0.723  24.266  0.00  0.00    +0.000 C 
ATOM     14  C   UNL     1       6.649  -0.900  25.307  0.00  0.00    +0.000 A 
ATOM     15  C   UNL     1       6.299   0.288  26.703  0.00  0.00    +0.000 A 
ATOM     16  C   UNL     1       5.099   0.446  26.623  0.00  0.00    +0.000 A 
ATOM     17  C   UNL     1       4.578   0.880  28.145  0.00  0.00    +0.000 C 
ATOM     18  C   UNL     1       4.740  -0.583  25.731  0.00  0.00    +0.000 A 
ATOM     19  C   UNL     1       4.178  -1.172  26.445  0.00  0.00    +0.000 C 
ATOM     20  C   UNL     1       3.356  -1.903  26.668  0.00  0.00    +0.000 C 
ATOM     21  C   UNL     1       3.321  -2.239  28.005  0.00  0.00    +0.000 C 
ATOM     22  C   UNL     1       4.125  -1.641  29.011  0.00  0.00    +0.000 C 
ATOM     23  C   UNL     1       2.820  -3.394  28.331  0.00  0.00    +0.000 C 
ATOM     24  C   UNL     1       2.878  -3.764  26.940  0.00  0.00    +0.000 C 
ATOM     25  C   UNL     1       2.791  -4.985  27.054  0.00  0.00    +0.000 C 
ATOM     26  N   UNL     1       3.741  -2.826  26.141  0.00  0.00    +0.000 N 
ATOM     27  N   UNL     1       5.759  -1.401  25.290  0.00  0.00    +0.000 N 
ATOM     28  C   UNL     1       5.691  -2.593  23.711  0.00  0.00    +0.000 C 
ATOM     29  C   UNL     1       3.893  -5.758  26.657  0.00  0.00    +0.000 C 
ENDROOT
BRANCH   3  30
ATOM     30  C   UNL     1       1.957  -8.719  25.125  0.00  0.00    +0.000 C 
ATOM     31  C   UNL     1       0.859  -9.712  24.622  0.00  0.00    +0.000 C 
ENDBRANCH   3  30
BRANCH  23  32
ATOM     32  C   UNL     1       3.536  -4.336  29.434  0.00  0.00    +0.000 C 
ATOM     33  C   UNL     1       2.734  -4.934  30.313  0.00  0.00    +0.000 C 
BRANCH  32  34
ATOM     34  O   UNL     1       4.874  -4.628  29.495  0.00  0.00    +0.000 OA
ATOM     35  H   UNL     1       5.360  -4.563  30.345  0.00  0.00    +0.000 HD
ENDBRANCH  32  34
ENDBRANCH  23  32
BRANCH  11  36
ATOM     36  C   UNL     1      10.226   3.714  23.818  0.00  0.00    +0.000 C 
BRANCH  36  37
ATOM     37  C   UNL     1      11.671   3.892  23.082  0.00  0.00    +0.000 C 
BRANCH  37  38
ATOM     38  C   UNL     1      12.295   5.124  23.539  0.00  0.00    +0.000 C 
ATOM     39  O   UNL     1      11.603   6.024  23.985  0.00  0.00    +0.000 OA
BRANCH  38  40
ATOM     40  O   UNL     1      13.629   5.252  23.465  0.00  0.00    +0.000 OA
ATOM     41  H   UNL     1      14.120   4.789  22.769  0.00  0.00    +0.000 HD
ENDBRANCH  38  40
ENDBRANCH  37  38
ENDBRANCH  36  37
ENDBRANCH  11  36
BRANCH  15  42
ATOM     42  C   UNL     1       6.930   1.654  27.420  0.00  0.00    +0.000 C 
BRANCH  42  43
ATOM     43  C   UNL     1       7.153   2.372  28.834  0.00  0.00    +0.000 C 
BRANCH  43  44
ATOM     44  C   UNL     1       6.773   3.824  28.934  0.00  0.00    +0.000 C 
ATOM     45  O   UNL     1       7.449   4.578  29.613  0.00  0.00    +0.000 OA
BRANCH  44  46
ATOM     46  O   UNL     1       5.745   4.316  28.210  0.00  0.00    +0.000 OA
ATOM     47  H   UNL     1       5.553   5.263  28.156  0.00  0.00    +0.000 HD
ENDBRANCH  44  46
ENDBRANCH  43  44
ENDBRANCH  42  43
ENDBRANCH  15  42
TORSDOF 11
ENDMDL
MODEL 6
REMARK VINA RESULT:      -5.7      1.892      2.307
REMARK  Name = 
REMARK  15 active torsions:
REMARK  status: ('A' for Active; 'I' for Inactive)
REMARK    1  A    between atoms: C_1  and  C_2
REMARK    2  A    between atoms: C_6  and  C_8
REMARK    3  A    between atoms: C_8  and  O_9
REMARK    4  A    between atoms: C_11  and  C_12
REMARK    5  A    between atoms: C_20  and  C_21
REMARK    6  A    between atoms: C_21  and  C_22
REMARK    7  A    between atoms: C_22  and  C_23
REMARK    8  A    between atoms: C_23  and  O_24
REMARK    9  A    between atoms: C_26  and  C_27
REMARK   10  A    between atoms: C_31  and  C_33
REMARK   11  A    between atoms: C_39  and  C_40
REMARK   12  A    between atoms: C_40  and  C_41
REMARK   13  A    between atoms: C_41  and  C_42
REMARK   14  A    between atoms: C_42  and  O_43
REMARK   15  A    between atoms: C_45  and  C_46
REMARK                            x       y       z     vdW  Elec       q    Type
REMARK                         _______ _______ _______ _____ _____    ______ ____
ROOT
ATOM      1  C   UNL     1       2.085  -7.560  27.729  0.00  0.00    +0.000 C 
ATOM      2  C   UNL     1       1.812  -5.586  27.655  0.00  0.00    +0.000 C 
ATOM      3  C   UNL     1       1.539  -4.679  28.908  0.00  0.00    +0.000 C 
ATOM      4  C   UNL     1       2.842  -2.455  28.025  0.00  0.00    +0.000 C 
ATOM      5  N   UNL     1       2.639  -2.786  26.565  0.00  0.00    +0.000 N 
ATOM      6 FE   UNL     1       4.349  -1.163  25.588  0.00  0.00    +0.000 Fe
ATOM      7  N   UNL     1       5.998   1.888  24.649  0.00  0.00    +0.000 N 
ATOM      8  C   UNL     1       6.714   2.002  26.059  0.00  0.00    +0.000 A 
ATOM      9  C   UNL     1       7.892   3.419  25.410  0.00  0.00    +0.000 A 
ATOM     10  C   UNL     1       9.673   4.301  24.133  0.00  0.00    +0.000 C 
ATOM     11  C   UNL     1       6.875   4.137  24.813  0.00  0.00    +0.000 A 
ATOM     12  C   UNL     1       5.448   2.877  24.777  0.00  0.00    +0.000 A 
ATOM     13  C   UNL     1       4.557   2.293  25.833  0.00  0.00    +0.000 C 
ATOM     14  C   UNL     1       5.407   0.342  25.997  0.00  0.00    +0.000 A 
ATOM     15  C   UNL     1       6.856  -0.089  24.902  0.00  0.00    +0.000 A 
ATOM     16  C   UNL     1       7.511  -0.829  25.606  0.00  0.00    +0.000 A 
ATOM     17  C   UNL     1       8.394  -1.798  24.579  0.00  0.00    +0.000 C 
ATOM     18  C   UNL     1       6.605  -1.094  26.653  0.00  0.00    +0.000 A 
ATOM     19  C   UNL     1       6.463  -2.143  26.426  0.00  0.00    +0.000 C 
ATOM     20  C   UNL     1       6.224  -3.187  26.766  0.00  0.00    +0.000 C 
ATOM     21  C   UNL     1       6.182  -4.070  25.708  0.00  0.00    +0.000 C 
ATOM     22  C   UNL     1       6.533  -3.748  24.371  0.00  0.00    +0.000 C 
ATOM     23  C   UNL     1       5.446  -5.135  25.831  0.00  0.00    +0.000 C 
ATOM     24  C   UNL     1       4.848  -4.535  26.996  0.00  0.00    +0.000 C 
ATOM     25  C   UNL     1       3.833  -5.224  27.076  0.00  0.00    +0.000 C 
ATOM     26  N   UNL     1       5.148  -3.063  27.091  0.00  0.00    +0.000 N 
ATOM     27  N   UNL     1       5.357  -0.516  26.549  0.00  0.00    +0.000 N 
ATOM     28  C   UNL     1       4.058  -0.289  28.025  0.00  0.00    +0.000 C 
ATOM     29  C   UNL     1       2.596  -4.590  26.887  0.00  0.00    +0.000 C 
ENDROOT
BRANCH   3  30
ATOM     30  C   UNL     1       0.574  -6.541  29.528  0.00  0.00    +0.000 C 
ATOM     31  C   UNL     1       0.481  -7.774  30.484  0.00  0.00    +0.000 C 
ENDBRANCH   3  30
BRANCH  23  32
ATOM     32  C   UNL     1       4.499  -5.643  24.622  0.00  0.00    +0.000 C 
ATOM     33  C   UNL     1       4.447  -6.959  24.423  0.00  0.00    +0.000 C 
BRANCH  32  34
ATOM     34  O   UNL     1       3.697  -4.851  23.844  0.00  0.00    +0.000 OA
ATOM     35  H   UNL     1       3.814  -3.876  23.836  0.00  0.00    +0.000 HD
ENDBRANCH  32  34
ENDBRANCH  23  32
BRANCH  11  36
ATOM     36  C   UNL     1       7.617   5.818  24.801  0.00  0.00    +0.000 C 
BRANCH  36  37
ATOM     37  C   UNL     1       8.169   6.812  25.970  0.00  0.00    +0.000 C 
BRANCH  37  38
ATOM     38  C   UNL     1       7.367   6.632  27.172  0.00  0.00    +0.000 C 
ATOM     39  O   UNL     1       6.171   6.869  27.142  0.00  0.00    +0.000 OA
BRANCH  38  40
ATOM     40  O   UNL     1       7.958   6.207  28.298  0.00  0.00    +0.000 OA
ATOM     41  H   UNL     1       8.151   6.836  29.010  0.00  0.00    +0.000 HD
ENDBRANCH  38  40
ENDBRANCH  37  38
ENDBRANCH  36  37
ENDBRANCH  11  36
BRANCH  15  42
ATOM     42  C   UNL     1       7.906   0.619  23.818  0.00  0.00    +0.000 C 
BRANCH  42  43
ATOM     43  C   UNL     1       9.457   0.772  23.452  0.00  0.00    +0.000 C 
BRANCH  43  44
ATOM     44  C   UNL     1       9.804   0.963  22.001  0.00  0.00    +0.000 C 
ATOM     45  O   UNL     1       9.632   0.047  21.215  0.00  0.00    +0.000 OA
BRANCH  44  46
ATOM     46  O   UNL     1      10.220   2.165  21.547  0.00  0.00    +0.000 OA
ATOM     47  H   UNL     1      10.697   2.268  20.711  0.00  0.00    +0.000 HD
ENDBRANCH  44  46
ENDBRANCH  43  44
ENDBRANCH  42  43
ENDBRANCH  15  42
TORSDOF 11
ENDMDL
