MODEL 1
REMARK VINA RESULT:      -6.5      0.000      0.000
REMARK  Name = 
REMARK  5 active torsions:
REMARK  status: ('A' for Active; 'I' for Inactive)
REMARK    1  A    between atoms: N_12  and  C1*_13
REMARK    2  A    between atoms: C4*_16  and  C5*_18
REMARK    3  A    between atoms: C5*_18  and  O5*_19
REMARK    4  A    between atoms: C3*_20  and  O3*_22
REMARK    5  A    between atoms: C2*_23  and  O2*_25
REMARK                            x       y       z     vdW  Elec       q    Type
REMARK                         _______ _______ _______ _____ _____    ______ ____
ROOT
ATOM      1  N   UNL     1       5.341  -6.233  25.688  0.00  0.00    -0.343 N 
ATOM      2  H   UNL     1       5.186  -6.740  24.824  0.00  0.00    +0.144 HD
ATOM      3  H   UNL     1       5.350  -6.857  26.491  0.00  0.00    +0.144 HD
ATOM      4  C   UNL     1       6.542  -5.529  25.682  0.00  0.00    +0.127 A 
ATOM      5  C   UNL     1       6.847  -4.630  24.703  0.00  0.00    +0.061 A 
ATOM      6  C   UNL     1       6.132  -4.214  23.474  0.00  0.00    +0.172 C 
ATOM      7  I   UNL     1       6.059  -5.764  22.031  0.00  0.00    -0.058 I 
ATOM      8  N   UNL     1       6.969  -3.138  22.876  0.00  0.00    -0.219 NA
ATOM      9  H   UNL     1       6.421  -2.276  22.853  0.00  0.00    +0.146 HD
ATOM     10  N   UNL     1       8.065  -2.953  23.790  0.00  0.00    -0.218 N 
ATOM     11  C   UNL     1       8.004  -3.892  24.836  0.00  0.00    +0.148 A 
ATOM     12  N   UNL     1       8.870  -4.050  25.832  0.00  0.00    -0.219 NA
ATOM     13  C   UNL     1       8.500  -4.979  26.732  0.00  0.00    +0.225 A 
ATOM     14  N   UNL     1       7.365  -5.716  26.718  0.00  0.00    -0.221 NA
ENDROOT
BRANCH  10  15
ATOM     15  C1* UNL     1       9.314  -2.269  23.469  0.00  0.00    +0.254 C 
ATOM     16  C2* UNL     1       9.273  -1.465  22.158  0.00  0.00    +0.194 C 
ATOM     17  C3* UNL     1       8.994  -0.024  22.588  0.00  0.00    +0.178 C 
ATOM     18  C4* UNL     1       8.960  -0.078  24.111  0.00  0.00    +0.177 C 
ATOM     19  O4* UNL     1       9.627  -1.296  24.500  0.00  0.00    -0.347 OA
BRANCH  16  20
ATOM     20  O2* UNL     1      10.554  -1.502  21.486  0.00  0.00    -0.385 OA
ATOM     21  H2* UNL     1      10.468  -2.065  20.697  0.00  0.00    +0.210 HD
ENDBRANCH  16  20
BRANCH  17  22
ATOM     22  O3* UNL     1       7.756   0.440  22.050  0.00  0.00    -0.386 OA
ATOM     23  H3* UNL     1       7.759   0.287  21.090  0.00  0.00    +0.210 HD
ENDBRANCH  17  22
BRANCH  18  24
ATOM     24  C5* UNL     1       9.639   1.110  24.784  0.00  0.00    +0.190 C 
BRANCH  24  25
ATOM     25  O5* UNL     1      10.936   0.728  25.243  0.00  0.00    -0.392 OA
ATOM     26  H5* UNL     1      11.388   1.553  25.506  0.00  0.00    +0.210 HD
ENDBRANCH  24  25
ENDBRANCH  18  24
ENDBRANCH  10  15
TORSDOF 5
ENDMDL
MODEL 2
REMARK VINA RESULT:      -6.5      2.054      2.322
REMARK  Name = 
REMARK  5 active torsions:
REMARK  status: ('A' for Active; 'I' for Inactive)
REMARK    1  A    between atoms: N_12  and  C1*_13
REMARK    2  A    between atoms: C4*_16  and  C5*_18
REMARK    3  A    between atoms: C5*_18  and  O5*_19
REMARK    4  A    between atoms: C3*_20  and  O3*_22
REMARK    5  A    between atoms: C2*_23  and  O2*_25
REMARK                            x       y       z     vdW  Elec       q    Type
REMARK                         _______ _______ _______ _____ _____    ______ ____
ROOT
ATOM      1  N   UNL     1       6.740  -4.790  27.566  0.00  0.00    -0.343 N 
ATOM      2  H   UNL     1       5.829  -4.415  27.326  0.00  0.00    +0.144 HD
ATOM      3  H   UNL     1       6.695  -5.788  27.756  0.00  0.00    +0.144 HD
ATOM      4  C   UNL     1       7.679  -4.589  26.558  0.00  0.00    +0.127 A 
ATOM      5  C   UNL     1       7.945  -3.350  26.057  0.00  0.00    +0.061 A 
ATOM      6  C   UNL     1       7.365  -2.015  26.335  0.00  0.00    +0.172 C 
ATOM      7  I   UNL     1       5.362  -1.861  25.661  0.00  0.00    -0.058 I 
ATOM      8  N   UNL     1       8.151  -1.062  25.506  0.00  0.00    -0.219 NA
ATOM      9  H   UNL     1       8.623  -0.403  26.128  0.00  0.00    +0.146 HD
ATOM     10  N   UNL     1       9.152  -1.861  24.849  0.00  0.00    -0.218 N 
ATOM     11  C   UNL     1       8.972  -3.224  25.144  0.00  0.00    +0.148 A 
ATOM     12  N   UNL     1       9.675  -4.252  24.680  0.00  0.00    -0.219 NA
ATOM     13  C   UNL     1       9.322  -5.437  25.209  0.00  0.00    +0.225 A 
ATOM     14  N   UNL     1       8.368  -5.656  26.144  0.00  0.00    -0.221 NA
ENDROOT
BRANCH  10  15
ATOM     15  C1* UNL     1       9.921  -1.443  23.681  0.00  0.00    +0.254 C 
ATOM     16  C2* UNL     1       9.078  -1.255  22.406  0.00  0.00    +0.194 C 
ATOM     17  C3* UNL     1       8.801   0.248  22.336  0.00  0.00    +0.178 C 
ATOM     18  C4* UNL     1       9.552   0.833  23.526  0.00  0.00    +0.177 C 
ATOM     19  O4* UNL     1      10.532  -0.148  23.925  0.00  0.00    -0.347 OA
BRANCH  16  20
ATOM     20  O2* UNL     1       9.826  -1.638  21.229  0.00  0.00    -0.385 OA
ATOM     21  H2* UNL     1       9.860  -0.874  20.627  0.00  0.00    +0.210 HD
ENDBRANCH  16  20
BRANCH  17  22
ATOM     22  O3* UNL     1       7.402   0.514  22.414  0.00  0.00    -0.386 OA
ATOM     23  H3* UNL     1       7.015  -0.056  23.100  0.00  0.00    +0.210 HD
ENDBRANCH  17  22
BRANCH  18  24
ATOM     24  C5* UNL     1      10.252   2.154  23.223  0.00  0.00    +0.190 C 
BRANCH  24  25
ATOM     25  O5* UNL     1      10.298   2.362  21.810  0.00  0.00    -0.392 OA
ATOM     26  H5* UNL     1       9.751   1.658  21.412  0.00  0.00    +0.210 HD
ENDBRANCH  24  25
ENDBRANCH  18  24
ENDBRANCH  10  15
TORSDOF 5
ENDMDL
MODEL 3
REMARK VINA RESULT:      -6.4      2.446      2.943
REMARK  Name = 
REMARK  5 active torsions:
REMARK  status: ('A' for Active; 'I' for Inactive)
REMARK    1  A    between atoms: N_12  and  C1*_13
REMARK    2  A    between atoms: C4*_16  and  C5*_18
REMARK    3  A    between atoms: C5*_18  and  O5*_19
REMARK    4  A    between atoms: C3*_20  and  O3*_22
REMARK    5  A    between atoms: C2*_23  and  O2*_25
REMARK                            x       y       z     vdW  Elec       q    Type
REMARK                         _______ _______ _______ _____ _____    ______ ____
ROOT
ATOM      1  N   UNL     1       3.348  -5.130  23.184  0.00  0.00    -0.343 N 
ATOM      2  H   UNL     1       3.951  -5.904  22.925  0.00  0.00    +0.144 HD
ATOM      3  H   UNL     1       2.582  -5.438  23.780  0.00  0.00    +0.144 HD
ATOM      4  C   UNL     1       4.036  -4.125  23.858  0.00  0.00    +0.127 A 
ATOM      5  C   UNL     1       5.142  -3.528  23.331  0.00  0.00    +0.061 A 
ATOM      6  C   UNL     1       5.900  -3.762  22.079  0.00  0.00    +0.172 C 
ATOM      7  I   UNL     1       6.908  -5.626  22.095  0.00  0.00    -0.058 I 
ATOM      8  N   UNL     1       6.963  -2.722  22.061  0.00  0.00    -0.219 NA
ATOM      9  H   UNL     1       6.822  -2.128  21.242  0.00  0.00    +0.146 HD
ATOM     10  N   UNL     1       6.741  -1.927  23.240  0.00  0.00    -0.218 N 
ATOM     11  C   UNL     1       5.693  -2.462  24.010  0.00  0.00    +0.148 A 
ATOM     12  N   UNL     1       5.243  -2.022  25.181  0.00  0.00    -0.219 NA
ATOM     13  C   UNL     1       4.168  -2.690  25.637  0.00  0.00    +0.225 A 
ATOM     14  N   UNL     1       3.526  -3.712  25.022  0.00  0.00    -0.221 NA
ENDROOT
BRANCH  10  15
ATOM     15  C1* UNL     1       7.721  -1.022  23.835  0.00  0.00    +0.254 C 
ATOM     16  C2* UNL     1       9.179  -1.338  23.459  0.00  0.00    +0.194 C 
ATOM     17  C3* UNL     1       9.504  -0.384  22.309  0.00  0.00    +0.178 C 
ATOM     18  C4* UNL     1       8.247   0.460  22.142  0.00  0.00    +0.177 C 
ATOM     19  O4* UNL     1       7.494   0.333  23.367  0.00  0.00    -0.347 OA
BRANCH  16  20
ATOM     20  O2* UNL     1      10.073  -1.050  24.560  0.00  0.00    -0.385 OA
ATOM     21  H2* UNL     1       9.608  -0.464  25.184  0.00  0.00    +0.210 HD
ENDBRANCH  16  20
BRANCH  17  22
ATOM     22  O3* UNL     1       9.816  -1.105  21.118  0.00  0.00    -0.386 OA
ATOM     23  H3* UNL     1      10.138  -0.476  20.450  0.00  0.00    +0.210 HD
ENDBRANCH  17  22
BRANCH  18  24
ATOM     24  C5* UNL     1       8.526   1.934  21.869  0.00  0.00    +0.190 C 
BRANCH  24  25
ATOM     25  O5* UNL     1       9.885   2.101  21.462  0.00  0.00    -0.392 OA
ATOM     26  H5* UNL     1       9.915   1.875  20.511  0.00  0.00    +0.210 HD
ENDBRANCH  24  25
ENDBRANCH  18  24
ENDBRANCH  10  15
TORSDOF 5
ENDMDL
MODEL 4
REMARK VINA RESULT:      -6.3      2.460      3.743
REMARK  Name = 
REMARK  5 active torsions:
REMARK  status: ('A' for Active; 'I' for Inactive)
REMARK    1  A    between atoms: N_12  and  C1*_13
REMARK    2  A    between atoms: C4*_16  and  C5*_18
REMARK    3  A    between atoms: C5*_18  and  O5*_19
REMARK    4  A    between atoms: C3*_20  and  O3*_22
REMARK    5  A    between atoms: C2*_23  and  O2*_25
REMARK                            x       y       z     vdW  Elec       q    Type
REMARK                         _______ _______ _______ _____ _____    ______ ____
ROOT
ATOM      1  N   UNL     1       7.566  -6.022  22.485  0.00  0.00    -0.343 N 
ATOM      2  H   UNL     1       7.645  -6.466  23.394  0.00  0.00    +0.144 HD
ATOM      3  H   UNL     1       6.926  -6.528  21.877  0.00  0.00    +0.144 HD
ATOM      4  C   UNL     1       7.119  -4.706  22.575  0.00  0.00    +0.127 A 
ATOM      5  C   UNL     1       7.752  -3.780  23.350  0.00  0.00    +0.061 A 
ATOM      6  C   UNL     1       8.915  -3.872  24.263  0.00  0.00    +0.172 C 
ATOM      7  I   UNL     1       8.484  -5.025  25.988  0.00  0.00    -0.058 I 
ATOM      8  N   UNL     1       9.147  -2.484  24.747  0.00  0.00    -0.219 NA
ATOM      9  H   UNL     1      10.077  -2.187  24.445  0.00  0.00    +0.146 HD
ATOM     10  N   UNL     1       8.171  -1.673  24.067  0.00  0.00    -0.218 N 
ATOM     11  C   UNL     1       7.314  -2.474  23.290  0.00  0.00    +0.148 A 
ATOM     12  N   UNL     1       6.272  -2.078  22.567  0.00  0.00    -0.219 NA
ATOM     13  C   UNL     1       5.693  -3.065  21.860  0.00  0.00    +0.225 A 
ATOM     14  N   UNL     1       6.078  -4.362  21.811  0.00  0.00    -0.221 NA
ENDROOT
BRANCH  10  15
ATOM     15  C1* UNL     1       7.776  -0.327  24.470  0.00  0.00    +0.254 C 
ATOM     16  C2* UNL     1       8.647   0.278  25.586  0.00  0.00    +0.194 C 
ATOM     17  C3* UNL     1       9.661   1.162  24.858  0.00  0.00    +0.178 C 
ATOM     18  C4* UNL     1       9.271   1.065  23.389  0.00  0.00    +0.177 C 
ATOM     19  O4* UNL     1       7.910   0.587  23.349  0.00  0.00    -0.347 OA
BRANCH  16  20
ATOM     20  O2* UNL     1       7.858   1.113  26.464  0.00  0.00    -0.385 OA
ATOM     21  H2* UNL     1       8.153   0.958  27.379  0.00  0.00    +0.210 HD
ENDBRANCH  16  20
BRANCH  17  22
ATOM     22  O3* UNL     1      10.994   0.702  25.080  0.00  0.00    -0.386 OA
ATOM     23  H3* UNL     1      11.592   1.185  24.485  0.00  0.00    +0.210 HD
ENDBRANCH  17  22
BRANCH  18  24
ATOM     24  C5* UNL     1       9.364   2.390  22.638  0.00  0.00    +0.190 C 
BRANCH  24  25
ATOM     25  O5* UNL     1      10.193   2.233  21.485  0.00  0.00    -0.392 OA
ATOM     26  H5* UNL     1      10.900   1.608  21.739  0.00  0.00    +0.210 HD
ENDBRANCH  24  25
ENDBRANCH  18  24
ENDBRANCH  10  15
TORSDOF 5
ENDMDL
MODEL 5
REMARK VINA RESULT:      -6.1      3.413      5.522
REMARK  Name = 
REMARK  5 active torsions:
REMARK  status: ('A' for Active; 'I' for Inactive)
REMARK    1  A    between atoms: N_12  and  C1*_13
REMARK    2  A    between atoms: C4*_16  and  C5*_18
REMARK    3  A    between atoms: C5*_18  and  O5*_19
REMARK    4  A    between atoms: C3*_20  and  O3*_22
REMARK    5  A    between atoms: C2*_23  and  O2*_25
REMARK                            x       y       z     vdW  Elec       q    Type
REMARK                         _______ _______ _______ _____ _____    ______ ____
ROOT
ATOM      1  N   UNL     1       9.293   1.231  24.968  0.00  0.00    -0.343 N 
ATOM      2  H   UNL     1       9.236   1.347  23.962  0.00  0.00    +0.144 HD
ATOM      3  H   UNL     1       8.823   1.988  25.459  0.00  0.00    +0.144 HD
ATOM      4  C   UNL     1       8.732   0.031  25.396  0.00  0.00    +0.127 A 
ATOM      5  C   UNL     1       9.129  -1.172  24.894  0.00  0.00    +0.061 A 
ATOM      6  C   UNL     1      10.104  -1.540  23.839  0.00  0.00    +0.172 C 
ATOM      7  I   UNL     1       9.453  -0.947  21.912  0.00  0.00    -0.058 I 
ATOM      8  N   UNL     1      10.126  -3.028  23.824  0.00  0.00    -0.219 NA
ATOM      9  H   UNL     1      11.069  -3.340  24.065  0.00  0.00    +0.146 HD
ATOM     10  N   UNL     1       9.232  -3.435  24.876  0.00  0.00    -0.218 N 
ATOM     11  C   UNL     1       8.605  -2.317  25.456  0.00  0.00    +0.148 A 
ATOM     12  N   UNL     1       7.688  -2.313  26.418  0.00  0.00    -0.219 NA
ATOM     13  C   UNL     1       7.336  -1.082  26.829  0.00  0.00    +0.225 A 
ATOM     14  N   UNL     1       7.828   0.096  26.378  0.00  0.00    -0.221 NA
ENDROOT
BRANCH  10  15
ATOM     15  C1* UNL     1       8.660  -4.771  25.016  0.00  0.00    +0.254 C 
ATOM     16  C2* UNL     1       7.221  -4.785  25.563  0.00  0.00    +0.194 C 
ATOM     17  C3* UNL     1       6.330  -4.906  24.326  0.00  0.00    +0.178 C 
ATOM     18  C4* UNL     1       7.305  -5.020  23.161  0.00  0.00    +0.177 C 
ATOM     19  O4* UNL     1       8.577  -5.415  23.717  0.00  0.00    -0.347 OA
BRANCH  16  20
ATOM     20  O2* UNL     1       6.998  -5.942  26.403  0.00  0.00    -0.385 OA
ATOM     21  H2* UNL     1       7.016  -5.652  27.332  0.00  0.00    +0.210 HD
ENDBRANCH  16  20
BRANCH  17  22
ATOM     22  O3* UNL     1       5.482  -3.766  24.193  0.00  0.00    -0.386 OA
ATOM     23  H3* UNL     1       4.562  -4.071  24.122  0.00  0.00    +0.210 HD
ENDBRANCH  17  22
BRANCH  18  24
ATOM     24  C5* UNL     1       6.881  -6.031  22.100  0.00  0.00    +0.190 C 
BRANCH  24  25
ATOM     25  O5* UNL     1       5.498  -6.348  22.262  0.00  0.00    -0.392 OA
ATOM     26  H5* UNL     1       5.351  -6.449  23.223  0.00  0.00    +0.210 HD
ENDBRANCH  24  25
ENDBRANCH  18  24
ENDBRANCH  10  15
TORSDOF 5
ENDMDL
MODEL 6
REMARK VINA RESULT:      -6.1      3.749      6.085
REMARK  Name = 
REMARK  5 active torsions:
REMARK  status: ('A' for Active; 'I' for Inactive)
REMARK    1  A    between atoms: N_12  and  C1*_13
REMARK    2  A    between atoms: C4*_16  and  C5*_18
REMARK    3  A    between atoms: C5*_18  and  O5*_19
REMARK    4  A    between atoms: C3*_20  and  O3*_22
REMARK    5  A    between atoms: C2*_23  and  O2*_25
REMARK                            x       y       z     vdW  Elec       q    Type
REMARK                         _______ _______ _______ _____ _____    ______ ____
ROOT
ATOM      1  N   UNL     1      10.115   2.982  22.545  0.00  0.00    -0.343 N 
ATOM      2  H   UNL     1       9.333   3.626  22.611  0.00  0.00    +0.144 HD
ATOM      3  H   UNL     1      10.985   3.420  22.839  0.00  0.00    +0.144 HD
ATOM      4  C   UNL     1       9.927   1.840  23.318  0.00  0.00    +0.127 A 
ATOM      5  C   UNL     1       8.825   1.050  23.184  0.00  0.00    +0.061 A 
ATOM      6  C   UNL     1       7.614   1.163  22.337  0.00  0.00    +0.172 C 
ATOM      7  I   UNL     1       6.383   2.785  22.921  0.00  0.00    -0.058 I 
ATOM      8  N   UNL     1       6.826  -0.069  22.610  0.00  0.00    -0.219 NA
ATOM      9  H   UNL     1       6.740  -0.599  21.741  0.00  0.00    +0.146 HD
ATOM     10  N   UNL     1       7.621  -0.837  23.532  0.00  0.00    -0.218 N 
ATOM     11  C   UNL     1       8.775  -0.124  23.906  0.00  0.00    +0.148 A 
ATOM     12  N   UNL     1       9.712  -0.499  24.771  0.00  0.00    -0.219 NA
ATOM     13  C   UNL     1      10.745   0.358  24.859  0.00  0.00    +0.225 A 
ATOM     14  N   UNL     1      10.911   1.505  24.159  0.00  0.00    -0.221 NA
ENDROOT
BRANCH  10  15
ATOM     15  C1* UNL     1       7.121  -1.936  24.353  0.00  0.00    +0.254 C 
ATOM     16  C2* UNL     1       5.690  -2.383  24.003  0.00  0.00    +0.194 C 
ATOM     17  C3* UNL     1       5.869  -3.598  23.091  0.00  0.00    +0.178 C 
ATOM     18  C4* UNL     1       7.376  -3.812  23.029  0.00  0.00    +0.177 C 
ATOM     19  O4* UNL     1       7.945  -3.116  24.157  0.00  0.00    -0.347 OA
BRANCH  16  20
ATOM     20  O2* UNL     1       4.974  -2.801  25.189  0.00  0.00    -0.385 OA
ATOM     21  H2* UNL     1       4.624  -2.007  25.629  0.00  0.00    +0.210 HD
ENDBRANCH  16  20
BRANCH  17  22
ATOM     22  O3* UNL     1       5.318  -3.352  21.798  0.00  0.00    -0.386 OA
ATOM     23  H3* UNL     1       4.745  -4.100  21.558  0.00  0.00    +0.210 HD
ENDBRANCH  17  22
BRANCH  18  24
ATOM     24  C5* UNL     1       7.791  -5.279  23.077  0.00  0.00    +0.190 C 
BRANCH  24  25
ATOM     25  O5* UNL     1       7.052  -6.022  22.106  0.00  0.00    -0.392 OA
ATOM     26  H5* UNL     1       6.271  -6.380  22.572  0.00  0.00    +0.210 HD
ENDBRANCH  24  25
ENDBRANCH  18  24
ENDBRANCH  10  15
TORSDOF 5
ENDMDL
MODEL 7
REMARK VINA RESULT:      -6.0      2.428      3.438
REMARK  Name = 
REMARK  5 active torsions:
REMARK  status: ('A' for Active; 'I' for Inactive)
REMARK    1  A    between atoms: N_12  and  C1*_13
REMARK    2  A    between atoms: C4*_16  and  C5*_18
REMARK    3  A    between atoms: C5*_18  and  O5*_19
REMARK    4  A    between atoms: C3*_20  and  O3*_22
REMARK    5  A    between atoms: C2*_23  and  O2*_25
REMARK                            x       y       z     vdW  Elec       q    Type
REMARK                         _______ _______ _______ _____ _____    ______ ____
ROOT
ATOM      1  N   UNL     1       3.044  -6.938  27.791  0.00  0.00    -0.343 N 
ATOM      2  H   UNL     1       2.849  -7.356  26.887  0.00  0.00    +0.144 HD
ATOM      3  H   UNL     1       2.753  -7.544  28.554  0.00  0.00    +0.144 HD
ATOM      4  C   UNL     1       4.396  -6.655  27.963  0.00  0.00    +0.127 A 
ATOM      5  C   UNL     1       5.092  -5.887  27.078  0.00  0.00    +0.061 A 
ATOM      6  C   UNL     1       4.709  -5.245  25.798  0.00  0.00    +0.172 C 
ATOM      7  I   UNL     1       4.336  -6.669  24.274  0.00  0.00    -0.058 I 
ATOM      8  N   UNL     1       5.911  -4.485  25.362  0.00  0.00    -0.219 NA
ATOM      9  H   UNL     1       5.671  -3.493  25.322  0.00  0.00    +0.146 HD
ATOM     10  N   UNL     1       6.883  -4.674  26.407  0.00  0.00    -0.218 N 
ATOM     11  C   UNL     1       6.396  -5.559  27.385  0.00  0.00    +0.148 A 
ATOM     12  N   UNL     1       7.032  -6.001  28.465  0.00  0.00    -0.219 NA
ATOM     13  C   UNL     1       6.276  -6.776  29.263  0.00  0.00    +0.225 A 
ATOM     14  N   UNL     1       4.978  -7.111  29.077  0.00  0.00    -0.221 NA
ENDROOT
BRANCH  10  15
ATOM     15  C1* UNL     1       8.315  -4.421  26.272  0.00  0.00    +0.254 C 
ATOM     16  C2* UNL     1       8.884  -4.751  24.880  0.00  0.00    +0.194 C 
ATOM     17  C3* UNL     1       8.926  -3.410  24.145  0.00  0.00    +0.178 C 
ATOM     18  C4* UNL     1       8.446  -2.393  25.172  0.00  0.00    +0.177 C 
ATOM     19  O4* UNL     1       8.591  -3.009  26.469  0.00  0.00    -0.347 OA
BRANCH  16  20
ATOM     20  O2* UNL     1      10.234  -5.261  24.981  0.00  0.00    -0.385 OA
ATOM     21  H2* UNL     1      10.783  -4.802  24.319  0.00  0.00    +0.210 HD
ENDBRANCH  16  20
BRANCH  17  22
ATOM     22  O3* UNL     1       8.084  -3.433  22.993  0.00  0.00    -0.386 OA
ATOM     23  H3* UNL     1       8.445  -2.816  22.333  0.00  0.00    +0.210 HD
ENDBRANCH  17  22
BRANCH  18  24
ATOM     24  C5* UNL     1       9.221  -1.079  25.146  0.00  0.00    +0.190 C 
BRANCH  24  25
ATOM     25  O5* UNL     1      10.035  -1.023  23.974  0.00  0.00    -0.392 OA
ATOM     26  H5* UNL     1      10.750  -1.676  24.106  0.00  0.00    +0.210 HD
ENDBRANCH  24  25
ENDBRANCH  18  24
ENDBRANCH  10  15
TORSDOF 5
ENDMDL
MODEL 8
REMARK VINA RESULT:      -6.0      1.871      2.740
REMARK  Name = 
REMARK  5 active torsions:
REMARK  status: ('A' for Active; 'I' for Inactive)
REMARK    1  A    between atoms: N_12  and  C1*_13
REMARK    2  A    between atoms: C4*_16  and  C5*_18
REMARK    3  A    between atoms: C5*_18  and  O5*_19
REMARK    4  A    between atoms: C3*_20  and  O3*_22
REMARK    5  A    between atoms: C2*_23  and  O2*_25
REMARK                            x       y       z     vdW  Elec       q    Type
REMARK                         _______ _______ _______ _____ _____    ______ ____
ROOT
ATOM      1  N   UNL     1       4.478  -6.830  23.817  0.00  0.00    -0.343 N 
ATOM      2  H   UNL     1       3.965  -6.368  24.560  0.00  0.00    +0.144 HD
ATOM      3  H   UNL     1       3.851  -7.197  23.104  0.00  0.00    +0.144 HD
ATOM      4  C   UNL     1       5.386  -5.980  23.191  0.00  0.00    +0.127 A 
ATOM      5  C   UNL     1       6.341  -5.303  23.890  0.00  0.00    +0.061 A 
ATOM      6  C   UNL     1       6.642  -5.216  25.338  0.00  0.00    +0.172 C 
ATOM      7  I   UNL     1       5.128  -4.188  26.406  0.00  0.00    -0.058 I 
ATOM      8  N   UNL     1       7.861  -4.367  25.436  0.00  0.00    -0.219 NA
ATOM      9  H   UNL     1       8.610  -4.923  25.852  0.00  0.00    +0.146 HD
ATOM     10  N   UNL     1       8.224  -4.060  24.078  0.00  0.00    -0.218 N 
ATOM     11  C   UNL     1       7.272  -4.575  23.180  0.00  0.00    +0.148 A 
ATOM     12  N   UNL     1       7.255  -4.446  21.857  0.00  0.00    -0.219 NA
ATOM     13  C   UNL     1       6.261  -5.124  21.257  0.00  0.00    +0.225 A 
ATOM     14  N   UNL     1       5.332  -5.905  21.858  0.00  0.00    -0.221 NA
ENDROOT
BRANCH  10  15
ATOM     15  C1* UNL     1       9.126  -2.984  23.677  0.00  0.00    +0.254 C 
ATOM     16  C2* UNL     1       8.618  -2.146  22.490  0.00  0.00    +0.194 C 
ATOM     17  C3* UNL     1       7.979  -0.910  23.126  0.00  0.00    +0.178 C 
ATOM     18  C4* UNL     1       8.218  -1.081  24.621  0.00  0.00    +0.177 C 
ATOM     19  O4* UNL     1       9.288  -2.038  24.767  0.00  0.00    -0.347 OA
BRANCH  16  20
ATOM     20  O2* UNL     1       9.716  -1.714  21.653  0.00  0.00    -0.385 OA
ATOM     21  H2* UNL     1       9.995  -2.468  21.103  0.00  0.00    +0.210 HD
ENDBRANCH  16  20
BRANCH  17  22
ATOM     22  O3* UNL     1       6.587  -0.839  22.820  0.00  0.00    -0.386 OA
ATOM     23  H3* UNL     1       6.084  -1.166  23.586  0.00  0.00    +0.210 HD
ENDBRANCH  17  22
BRANCH  18  24
ATOM     24  C5* UNL     1       8.595   0.212  25.336  0.00  0.00    +0.190 C 
BRANCH  24  25
ATOM     25  O5* UNL     1      10.014   0.289  25.478  0.00  0.00    -0.392 OA
ATOM     26  H5* UNL     1      10.289  -0.532  25.930  0.00  0.00    +0.210 HD
ENDBRANCH  24  25
ENDBRANCH  18  24
ENDBRANCH  10  15
TORSDOF 5
ENDMDL
MODEL 9
REMARK VINA RESULT:      -6.0      3.444      5.844
REMARK  Name = 
REMARK  5 active torsions:
REMARK  status: ('A' for Active; 'I' for Inactive)
REMARK    1  A    between atoms: N_12  and  C1*_13
REMARK    2  A    between atoms: C4*_16  and  C5*_18
REMARK    3  A    between atoms: C5*_18  and  O5*_19
REMARK    4  A    between atoms: C3*_20  and  O3*_22
REMARK    5  A    between atoms: C2*_23  and  O2*_25
REMARK                            x       y       z     vdW  Elec       q    Type
REMARK                         _______ _______ _______ _____ _____    ______ ____
ROOT
ATOM      1  N   UNL     1       8.561   1.402  23.386  0.00  0.00    -0.343 N 
ATOM      2  H   UNL     1       8.268   1.629  24.331  0.00  0.00    +0.144 HD
ATOM      3  H   UNL     1       9.335   1.989  23.085  0.00  0.00    +0.144 HD
ATOM      4  C   UNL     1       8.957   0.074  23.258  0.00  0.00    +0.127 A 
ATOM      5  C   UNL     1       8.144  -0.960  23.617  0.00  0.00    +0.061 A 
ATOM      6  C   UNL     1       6.794  -1.002  24.227  0.00  0.00    +0.172 C 
ATOM      7  I   UNL     1       6.804  -0.311  26.230  0.00  0.00    -0.058 I 
ATOM      8  N   UNL     1       6.435  -2.444  24.293  0.00  0.00    -0.219 NA
ATOM      9  H   UNL     1       5.604  -2.598  23.720  0.00  0.00    +0.146 HD
ATOM     10  N   UNL     1       7.538  -3.141  23.686  0.00  0.00    -0.218 N 
ATOM     11  C   UNL     1       8.568  -2.244  23.348  0.00  0.00    +0.148 A 
ATOM     12  N   UNL     1       9.750  -2.534  22.815  0.00  0.00    -0.219 NA
ATOM     13  C   UNL     1      10.495  -1.453  22.523  0.00  0.00    +0.225 A 
ATOM     14  N   UNL     1      10.149  -0.156  22.700  0.00  0.00    -0.221 NA
ENDROOT
BRANCH  10  15
ATOM     15  C1* UNL     1       7.807  -4.569  23.833  0.00  0.00    +0.254 C 
ATOM     16  C2* UNL     1       8.680  -4.923  25.051  0.00  0.00    +0.194 C 
ATOM     17  C3* UNL     1       7.689  -5.347  26.135  0.00  0.00    +0.178 C 
ATOM     18  C4* UNL     1       6.326  -5.275  25.459  0.00  0.00    +0.177 C 
ATOM     19  O4* UNL     1       6.564  -5.291  24.036  0.00  0.00    -0.347 OA
BRANCH  16  20
ATOM     20  O2* UNL     1       9.547  -6.044  24.759  0.00  0.00    -0.385 OA
ATOM     21  H2* UNL     1       9.133  -6.573  24.053  0.00  0.00    +0.210 HD
ENDBRANCH  16  20
BRANCH  17  22
ATOM     22  O3* UNL     1       7.762  -4.477  27.264  0.00  0.00    -0.386 OA
ATOM     23  H3* UNL     1       7.203  -3.700  27.094  0.00  0.00    +0.210 HD
ENDBRANCH  17  22
BRANCH  18  24
ATOM     24  C5* UNL     1       5.394  -6.425  25.828  0.00  0.00    +0.190 C 
BRANCH  24  25
ATOM     25  O5* UNL     1       5.653  -6.844  27.169  0.00  0.00    -0.392 OA
ATOM     26  H5* UNL     1       4.942  -6.458  27.718  0.00  0.00    +0.210 HD
ENDBRANCH  24  25
ENDBRANCH  18  24
ENDBRANCH  10  15
TORSDOF 5
ENDMDL
