MODEL 1
REMARK VINA RESULT:      -7.2      0.000      0.000
REMARK  Name = 
REMARK  6 active torsions:
REMARK  status: ('A' for Active; 'I' for Inactive)
REMARK    1  A    between atoms: C_2  and  C_19
REMARK    2  A    between atoms: C_10  and  C_11
REMARK    3  A    between atoms: C_12  and  C_13
REMARK    4  A    between atoms: N_16  and  C_17
REMARK    5  A    between atoms: N_16  and  C_18
REMARK    6  A    between atoms: C_21  and  O_22
REMARK                            x       y       z     vdW  Elec       q    Type
REMARK                         _______ _______ _______ _____ _____    ______ ____
ROOT
ATOM      1  C   UNL     1       9.140   3.707  23.403  0.00  0.00    +0.067 C 
ATOM      2  C   UNL     1       7.755   4.326  23.164  0.00  0.00    -0.034 A 
ATOM      3  C   UNL     1       7.613   5.459  22.354  0.00  0.00    +0.005 A 
ATOM      4  C   UNL     1       6.383   6.108  22.250  0.00  0.00    +0.004 A 
ATOM      5  C   UNL     1       5.260   5.644  22.950  0.00  0.00    -0.047 A 
ATOM      6  C   UNL     1       5.346   4.432  23.669  0.00  0.00    -0.043 A 
ATOM      7  C   UNL     1       4.135   3.846  24.357  0.00  0.00    +0.044 C 
ATOM      8  C   UNL     1       3.998   6.464  22.904  0.00  0.00    +0.044 C 
ATOM      9  C   UNL     1       6.595   3.749  23.740  0.00  0.00    -0.023 A 
ATOM     10  C   UNL     1       6.674   2.393  24.444  0.00  0.00    +0.145 C 
ATOM     11  N   UNL     1       7.977   1.741  24.286  0.00  0.00    -0.280 N 
ATOM     12  C   UNL     1       7.982   0.446  23.820  0.00  0.00    +0.305 C 
ATOM     13  N   UNL     1       9.139  -0.210  23.444  0.00  0.00    -0.292 N 
ATOM     14  C   UNL     1       9.007  -1.619  23.072  0.00  0.00    +0.133 C 
ATOM     15  C   UNL     1      10.521   0.232  23.505  0.00  0.00    +0.133 C 
ATOM     16  O   UNL     1       6.901  -0.156  23.728  0.00  0.00    -0.252 OA
ATOM     17  C   UNL     1       9.058   2.679  24.554  0.00  0.00    +0.122 C 
ENDROOT
BRANCH   1  18
ATOM     18  C   UNL     1      10.265   4.690  23.734  0.00  0.00    -0.035 A 
ATOM     19  C   UNL     1      10.060   5.794  24.581  0.00  0.00    +0.004 A 
ATOM     20  C   UNL     1      11.119   6.636  24.929  0.00  0.00    +0.004 A 
ATOM     21  C   UNL     1      12.402   6.375  24.456  0.00  0.00    +0.045 A 
ATOM     22  C   UNL     1      12.619   5.279  23.634  0.00  0.00    +0.117 A 
ATOM     23  C   UNL     1      11.566   4.442  23.261  0.00  0.00    +0.049 A 
BRANCH  22  24
ATOM     24  O   UNL     1      13.897   5.040  23.222  0.00  0.00    -0.507 OA
ATOM     25  H   UNL     1      13.893   4.869  22.267  0.00  0.00    +0.292 HD
ENDBRANCH  22  24
ENDBRANCH   1  18
TORSDOF 2
ENDMDL
MODEL 2
REMARK VINA RESULT:      -6.9      1.818      4.838
REMARK  Name = 
REMARK  6 active torsions:
REMARK  status: ('A' for Active; 'I' for Inactive)
REMARK    1  A    between atoms: C_2  and  C_19
REMARK    2  A    between atoms: C_10  and  C_11
REMARK    3  A    between atoms: C_12  and  C_13
REMARK    4  A    between atoms: N_16  and  C_17
REMARK    5  A    between atoms: N_16  and  C_18
REMARK    6  A    between atoms: C_21  and  O_22
REMARK                            x       y       z     vdW  Elec       q    Type
REMARK                         _______ _______ _______ _____ _____    ______ ____
ROOT
ATOM      1  C   UNL     1       8.958   4.085  23.833  0.00  0.00    +0.067 C 
ATOM      2  C   UNL     1       9.303   2.614  23.558  0.00  0.00    -0.034 A 
ATOM      3  C   UNL     1      10.230   1.939  24.362  0.00  0.00    +0.005 A 
ATOM      4  C   UNL     1      10.653   0.653  24.031  0.00  0.00    +0.004 A 
ATOM      5  C   UNL     1      10.162   0.001  22.891  0.00  0.00    -0.047 A 
ATOM      6  C   UNL     1       9.133   0.609  22.138  0.00  0.00    -0.043 A 
ATOM      7  C   UNL     1       8.508  -0.101  20.960  0.00  0.00    +0.044 C 
ATOM      8  C   UNL     1      10.757  -1.329  22.513  0.00  0.00    +0.044 C 
ATOM      9  C   UNL     1       8.674   1.907  22.503  0.00  0.00    -0.023 A 
ATOM     10  C   UNL     1       7.500   2.533  21.746  0.00  0.00    +0.145 C 
ATOM     11  N   UNL     1       7.038   3.788  22.343  0.00  0.00    -0.280 N 
ATOM     12  C   UNL     1       5.694   3.895  22.625  0.00  0.00    +0.305 C 
ATOM     13  N   UNL     1       5.165   4.937  23.360  0.00  0.00    -0.292 N 
ATOM     14  C   UNL     1       3.707   4.980  23.489  0.00  0.00    +0.133 C 
ATOM     15  C   UNL     1       5.816   6.112  23.913  0.00  0.00    +0.133 C 
ATOM     16  O   UNL     1       4.928   3.014  22.204  0.00  0.00    -0.252 OA
ATOM     17  C   UNL     1       8.163   4.663  22.640  0.00  0.00    +0.122 C 
ENDROOT
BRANCH   1  18
ATOM     18  C   UNL     1      10.146   5.014  24.095  0.00  0.00    -0.035 A 
ATOM     19  C   UNL     1      10.050   6.111  24.969  0.00  0.00    +0.004 A 
ATOM     20  C   UNL     1      11.167   6.902  25.250  0.00  0.00    +0.004 A 
ATOM     21  C   UNL     1      12.400   6.595  24.682  0.00  0.00    +0.045 A 
ATOM     22  C   UNL     1      12.510   5.504  23.833  0.00  0.00    +0.117 A 
ATOM     23  C   UNL     1      11.398   4.719  23.525  0.00  0.00    +0.049 A 
BRANCH  22  24
ATOM     24  O   UNL     1      13.744   5.219  23.326  0.00  0.00    -0.507 OA
ATOM     25  H   UNL     1      13.642   4.876  22.423  0.00  0.00    +0.292 HD
ENDBRANCH  22  24
ENDBRANCH   1  18
TORSDOF 2
ENDMDL
MODEL 3
REMARK VINA RESULT:      -6.6      4.652      7.351
REMARK  Name = 
REMARK  6 active torsions:
REMARK  status: ('A' for Active; 'I' for Inactive)
REMARK    1  A    between atoms: C_2  and  C_19
REMARK    2  A    between atoms: C_10  and  C_11
REMARK    3  A    between atoms: C_12  and  C_13
REMARK    4  A    between atoms: N_16  and  C_17
REMARK    5  A    between atoms: N_16  and  C_18
REMARK    6  A    between atoms: C_21  and  O_22
REMARK                            x       y       z     vdW  Elec       q    Type
REMARK                         _______ _______ _______ _____ _____    ______ ____
ROOT
ATOM      1  C   UNL     1       7.389  -1.370  25.098  0.00  0.00    +0.067 C 
ATOM      2  C   UNL     1       7.145  -2.738  24.445  0.00  0.00    -0.034 A 
ATOM      3  C   UNL     1       8.222  -3.528  24.024  0.00  0.00    +0.005 A 
ATOM      4  C   UNL     1       8.003  -4.700  23.303  0.00  0.00    +0.004 A 
ATOM      5  C   UNL     1       6.704  -5.121  22.982  0.00  0.00    -0.047 A 
ATOM      6  C   UNL     1       5.600  -4.412  23.506  0.00  0.00    -0.043 A 
ATOM      7  C   UNL     1       4.186  -4.886  23.266  0.00  0.00    +0.044 C 
ATOM      8  C   UNL     1       6.539  -6.321  22.088  0.00  0.00    +0.044 C 
ATOM      9  C   UNL     1       5.828  -3.236  24.277  0.00  0.00    -0.023 A 
ATOM     10  C   UNL     1       4.641  -2.513  24.918  0.00  0.00    +0.145 C 
ATOM     11  N   UNL     1       5.049  -1.427  25.814  0.00  0.00    -0.280 N 
ATOM     12  C   UNL     1       4.529  -1.433  27.089  0.00  0.00    +0.305 C 
ATOM     13  N   UNL     1       4.979  -0.587  28.084  0.00  0.00    -0.292 N 
ATOM     14  C   UNL     1       4.262  -0.628  29.359  0.00  0.00    +0.133 C 
ATOM     15  C   UNL     1       5.971   0.473  28.028  0.00  0.00    +0.133 C 
ATOM     16  O   UNL     1       3.623  -2.237  27.357  0.00  0.00    -0.252 OA
ATOM     17  C   UNL     1       6.058  -0.589  25.183  0.00  0.00    +0.122 C 
ENDROOT
BRANCH   1  18
ATOM     18  C   UNL     1       8.414  -0.470  24.404  0.00  0.00    -0.035 A 
ATOM     19  C   UNL     1       9.658  -0.174  24.989  0.00  0.00    +0.004 A 
ATOM     20  C   UNL     1      10.608   0.589  24.306  0.00  0.00    +0.004 A 
ATOM     21  C   UNL     1      10.339   1.049  23.019  0.00  0.00    +0.045 A 
ATOM     22  C   UNL     1       9.122   0.748  22.426  0.00  0.00    +0.117 A 
ATOM     23  C   UNL     1       8.155   0.005  23.106  0.00  0.00    +0.049 A 
BRANCH  22  24
ATOM     24  O   UNL     1       8.914   1.188  21.151  0.00  0.00    -0.507 OA
ATOM     25  H   UNL     1       9.751   1.525  20.794  0.00  0.00    +0.292 HD
ENDBRANCH  22  24
ENDBRANCH   1  18
TORSDOF 2
ENDMDL
MODEL 4
REMARK VINA RESULT:      -6.4      4.107      8.474
REMARK  Name = 
REMARK  6 active torsions:
REMARK  status: ('A' for Active; 'I' for Inactive)
REMARK    1  A    between atoms: C_2  and  C_19
REMARK    2  A    between atoms: C_10  and  C_11
REMARK    3  A    between atoms: C_12  and  C_13
REMARK    4  A    between atoms: N_16  and  C_17
REMARK    5  A    between atoms: N_16  and  C_18
REMARK    6  A    between atoms: C_21  and  O_22
REMARK                            x       y       z     vdW  Elec       q    Type
REMARK                         _______ _______ _______ _____ _____    ______ ____
ROOT
ATOM      1  C   UNL     1       7.023  -2.510  23.850  0.00  0.00    +0.067 C 
ATOM      2  C   UNL     1       6.332  -2.239  25.194  0.00  0.00    -0.034 A 
ATOM      3  C   UNL     1       6.292  -3.226  26.185  0.00  0.00    +0.005 A 
ATOM      4  C   UNL     1       5.544  -3.037  27.346  0.00  0.00    +0.004 A 
ATOM      5  C   UNL     1       4.817  -1.856  27.553  0.00  0.00    -0.047 A 
ATOM      6  C   UNL     1       4.945  -0.796  26.630  0.00  0.00    -0.043 A 
ATOM      7  C   UNL     1       4.256   0.529  26.864  0.00  0.00    +0.044 C 
ATOM      8  C   UNL     1       3.923  -1.767  28.762  0.00  0.00    +0.044 C 
ATOM      9  C   UNL     1       5.743  -0.978  25.464  0.00  0.00    -0.023 A 
ATOM     10  C   UNL     1       5.956   0.196  24.504  0.00  0.00    +0.145 C 
ATOM     11  N   UNL     1       6.930  -0.097  23.450  0.00  0.00    -0.280 N 
ATOM     12  C   UNL     1       7.964   0.797  23.282  0.00  0.00    +0.305 C 
ATOM     13  N   UNL     1       9.048   0.542  22.464  0.00  0.00    -0.292 N 
ATOM     14  C   UNL     1      10.016   1.627  22.296  0.00  0.00    +0.133 C 
ATOM     15  C   UNL     1       9.316  -0.594  21.599  0.00  0.00    +0.133 C 
ATOM     16  O   UNL     1       7.923   1.875  23.895  0.00  0.00    -0.252 OA
ATOM     17  C   UNL     1       6.662  -1.393  22.844  0.00  0.00    +0.122 C 
ENDROOT
BRANCH   1  18
ATOM     18  C   UNL     1       6.700  -3.853  23.190  0.00  0.00    -0.035 A 
ATOM     19  C   UNL     1       7.712  -4.726  22.751  0.00  0.00    +0.004 A 
ATOM     20  C   UNL     1       7.396  -5.978  22.219  0.00  0.00    +0.004 A 
ATOM     21  C   UNL     1       6.068  -6.387  22.138  0.00  0.00    +0.045 A 
ATOM     22  C   UNL     1       5.063  -5.541  22.585  0.00  0.00    +0.117 A 
ATOM     23  C   UNL     1       5.363  -4.278  23.098  0.00  0.00    +0.049 A 
BRANCH  22  24
ATOM     24  O   UNL     1       3.778  -5.996  22.520  0.00  0.00    -0.507 OA
ATOM     25  H   UNL     1       3.543  -6.142  21.589  0.00  0.00    +0.292 HD
ENDBRANCH  22  24
ENDBRANCH   1  18
TORSDOF 2
ENDMDL
MODEL 5
REMARK VINA RESULT:      -6.3      2.667      5.317
REMARK  Name = 
REMARK  6 active torsions:
REMARK  status: ('A' for Active; 'I' for Inactive)
REMARK    1  A    between atoms: C_2  and  C_19
REMARK    2  A    between atoms: C_10  and  C_11
REMARK    3  A    between atoms: C_12  and  C_13
REMARK    4  A    between atoms: N_16  and  C_17
REMARK    5  A    between atoms: N_16  and  C_18
REMARK    6  A    between atoms: C_21  and  O_22
REMARK                            x       y       z     vdW  Elec       q    Type
REMARK                         _______ _______ _______ _____ _____    ______ ____
ROOT
ATOM      1  C   UNL     1       7.383   2.808  24.988  0.00  0.00    +0.067 C 
ATOM      2  C   UNL     1       8.175   1.591  24.490  0.00  0.00    -0.034 A 
ATOM      3  C   UNL     1       9.574   1.617  24.458  0.00  0.00    +0.005 A 
ATOM      4  C   UNL     1      10.291   0.573  23.874  0.00  0.00    +0.004 A 
ATOM      5  C   UNL     1       9.633  -0.527  23.307  0.00  0.00    -0.047 A 
ATOM      6  C   UNL     1       8.231  -0.638  23.442  0.00  0.00    -0.043 A 
ATOM      7  C   UNL     1       7.493  -1.854  22.933  0.00  0.00    +0.044 C 
ATOM      8  C   UNL     1      10.454  -1.554  22.574  0.00  0.00    +0.044 C 
ATOM      9  C   UNL     1       7.505   0.411  24.076  0.00  0.00    -0.023 A 
ATOM     10  C   UNL     1       6.000   0.257  24.303  0.00  0.00    +0.145 C 
ATOM     11  N   UNL     1       5.429   1.338  25.112  0.00  0.00    -0.280 N 
ATOM     12  C   UNL     1       4.682   0.975  26.210  0.00  0.00    +0.305 C 
ATOM     13  N   UNL     1       4.256   1.885  27.158  0.00  0.00    -0.292 N 
ATOM     14  C   UNL     1       3.378   1.376  28.213  0.00  0.00    +0.133 C 
ATOM     15  C   UNL     1       4.412   3.329  27.200  0.00  0.00    +0.133 C 
ATOM     16  O   UNL     1       4.384  -0.220  26.357  0.00  0.00    -0.252 OA
ATOM     17  C   UNL     1       5.888   2.635  24.637  0.00  0.00    +0.122 C 
ENDROOT
BRANCH   1  18
ATOM     18  C   UNL     1       7.835   4.167  24.448  0.00  0.00    -0.035 A 
ATOM     19  C   UNL     1       8.725   4.990  25.161  0.00  0.00    +0.004 A 
ATOM     20  C   UNL     1       9.180   6.193  24.616  0.00  0.00    +0.004 A 
ATOM     21  C   UNL     1       8.773   6.581  23.343  0.00  0.00    +0.045 A 
ATOM     22  C   UNL     1       7.909   5.768  22.624  0.00  0.00    +0.117 A 
ATOM     23  C   UNL     1       7.428   4.574  23.165  0.00  0.00    +0.049 A 
BRANCH  22  24
ATOM     24  O   UNL     1       7.563   6.168  21.366  0.00  0.00    -0.507 OA
ATOM     25  H   UNL     1       6.617   6.000  21.231  0.00  0.00    +0.292 HD
ENDBRANCH  22  24
ENDBRANCH   1  18
TORSDOF 2
ENDMDL
MODEL 6
REMARK VINA RESULT:      -6.2      4.158      5.815
REMARK  Name = 
REMARK  6 active torsions:
REMARK  status: ('A' for Active; 'I' for Inactive)
REMARK    1  A    between atoms: C_2  and  C_19
REMARK    2  A    between atoms: C_10  and  C_11
REMARK    3  A    between atoms: C_12  and  C_13
REMARK    4  A    between atoms: N_16  and  C_17
REMARK    5  A    between atoms: N_16  and  C_18
REMARK    6  A    between atoms: C_21  and  O_22
REMARK                            x       y       z     vdW  Elec       q    Type
REMARK                         _______ _______ _______ _____ _____    ______ ____
ROOT
ATOM      1  C   UNL     1       7.056  -1.089  24.344  0.00  0.00    +0.067 C 
ATOM      2  C   UNL     1       6.011  -0.546  25.329  0.00  0.00    -0.034 A 
ATOM      3  C   UNL     1       5.593   0.788  25.258  0.00  0.00    +0.005 A 
ATOM      4  C   UNL     1       4.756   1.323  26.236  0.00  0.00    +0.004 A 
ATOM      5  C   UNL     1       4.309   0.541  27.311  0.00  0.00    -0.047 A 
ATOM      6  C   UNL     1       4.610  -0.838  27.334  0.00  0.00    -0.043 A 
ATOM      7  C   UNL     1       4.067  -1.736  28.421  0.00  0.00    +0.044 C 
ATOM      8  C   UNL     1       3.518   1.210  28.404  0.00  0.00    +0.044 C 
ATOM      9  C   UNL     1       5.433  -1.390  26.311  0.00  0.00    -0.023 A 
ATOM     10  C   UNL     1       5.692  -2.898  26.282  0.00  0.00    +0.145 C 
ATOM     11  N   UNL     1       6.411  -3.333  25.081  0.00  0.00    -0.280 N 
ATOM     12  C   UNL     1       5.857  -4.362  24.353  0.00  0.00    +0.305 C 
ATOM     13  N   UNL     1       6.326  -4.733  23.107  0.00  0.00    -0.292 N 
ATOM     14  C   UNL     1       5.712  -5.913  22.497  0.00  0.00    +0.133 C 
ATOM     15  C   UNL     1       7.458  -4.228  22.349  0.00  0.00    +0.133 C 
ATOM     16  O   UNL     1       4.894  -4.978  24.833  0.00  0.00    -0.252 OA
ATOM     17  C   UNL     1       7.556  -2.471  24.825  0.00  0.00    +0.122 C 
ENDROOT
BRANCH   1  18
ATOM     18  C   UNL     1       8.284  -0.204  24.115  0.00  0.00    -0.035 A 
ATOM     19  C   UNL     1       9.358  -0.175  25.022  0.00  0.00    +0.004 A 
ATOM     20  C   UNL     1      10.500   0.584  24.756  0.00  0.00    +0.004 A 
ATOM     21  C   UNL     1      10.597   1.306  23.569  0.00  0.00    +0.045 A 
ATOM     22  C   UNL     1       9.551   1.270  22.659  0.00  0.00    +0.117 A 
ATOM     23  C   UNL     1       8.394   0.534  22.923  0.00  0.00    +0.049 A 
BRANCH  22  24
ATOM     24  O   UNL     1       9.702   1.964  21.494  0.00  0.00    -0.507 OA
ATOM     25  H   UNL     1       9.335   1.439  20.765  0.00  0.00    +0.292 HD
ENDBRANCH  22  24
ENDBRANCH   1  18
TORSDOF 2
ENDMDL
MODEL 7
REMARK VINA RESULT:      -6.2      2.468      5.607
REMARK  Name = 
REMARK  6 active torsions:
REMARK  status: ('A' for Active; 'I' for Inactive)
REMARK    1  A    between atoms: C_2  and  C_19
REMARK    2  A    between atoms: C_10  and  C_11
REMARK    3  A    between atoms: C_12  and  C_13
REMARK    4  A    between atoms: N_16  and  C_17
REMARK    5  A    between atoms: N_16  and  C_18
REMARK    6  A    between atoms: C_21  and  O_22
REMARK                            x       y       z     vdW  Elec       q    Type
REMARK                         _______ _______ _______ _____ _____    ______ ____
ROOT
ATOM      1  C   UNL     1       9.286   2.117  24.264  0.00  0.00    +0.067 C 
ATOM      2  C   UNL     1       8.105   2.188  25.243  0.00  0.00    -0.034 A 
ATOM      3  C   UNL     1       7.769   1.081  26.032  0.00  0.00    +0.005 A 
ATOM      4  C   UNL     1       6.614   1.091  26.813  0.00  0.00    +0.004 A 
ATOM      5  C   UNL     1       5.762   2.205  26.831  0.00  0.00    -0.047 A 
ATOM      6  C   UNL     1       6.147   3.379  26.145  0.00  0.00    -0.043 A 
ATOM      7  C   UNL     1       5.307   4.633  26.218  0.00  0.00    +0.044 C 
ATOM      8  C   UNL     1       4.464   2.103  27.587  0.00  0.00    +0.044 C 
ATOM      9  C   UNL     1       7.349   3.379  25.381  0.00  0.00    -0.023 A 
ATOM     10  C   UNL     1       7.814   4.672  24.708  0.00  0.00    +0.145 C 
ATOM     11  N   UNL     1       9.145   4.557  24.104  0.00  0.00    -0.280 N 
ATOM     12  C   UNL     1      10.079   5.506  24.452  0.00  0.00    +0.305 C 
ATOM     13  N   UNL     1      11.414   5.402  24.111  0.00  0.00    -0.292 N 
ATOM     14  C   UNL     1      12.271   6.538  24.451  0.00  0.00    +0.133 C 
ATOM     15  C   UNL     1      12.096   4.397  23.315  0.00  0.00    +0.133 C 
ATOM     16  O   UNL     1       9.707   6.495  25.103  0.00  0.00    -0.252 OA
ATOM     17  C   UNL     1       9.249   3.338  23.316  0.00  0.00    +0.122 C 
ENDROOT
BRANCH   1  18
ATOM     18  C   UNL     1       9.366   0.857  23.400  0.00  0.00    -0.035 A 
ATOM     19  C   UNL     1       9.155   0.896  22.010  0.00  0.00    +0.004 A 
ATOM     20  C   UNL     1       9.306  -0.253  21.230  0.00  0.00    +0.004 A 
ATOM     21  C   UNL     1       9.692  -1.452  21.822  0.00  0.00    +0.045 A 
ATOM     22  C   UNL     1       9.920  -1.498  23.190  0.00  0.00    +0.117 A 
ATOM     23  C   UNL     1       9.751  -0.363  23.985  0.00  0.00    +0.049 A 
BRANCH  22  24
ATOM     24  O   UNL     1      10.330  -2.685  23.723  0.00  0.00    -0.507 OA
ATOM     25  H   UNL     1       9.913  -2.801  24.592  0.00  0.00    +0.292 HD
ENDBRANCH  22  24
ENDBRANCH   1  18
TORSDOF 2
ENDMDL
MODEL 8
REMARK VINA RESULT:      -6.0      3.230      7.397
REMARK  Name = 
REMARK  6 active torsions:
REMARK  status: ('A' for Active; 'I' for Inactive)
REMARK    1  A    between atoms: C_2  and  C_19
REMARK    2  A    between atoms: C_10  and  C_11
REMARK    3  A    between atoms: C_12  and  C_13
REMARK    4  A    between atoms: N_16  and  C_17
REMARK    5  A    between atoms: N_16  and  C_18
REMARK    6  A    between atoms: C_21  and  O_22
REMARK                            x       y       z     vdW  Elec       q    Type
REMARK                         _______ _______ _______ _____ _____    ______ ____
ROOT
ATOM      1  C   UNL     1       7.494  -1.261  24.309  0.00  0.00    +0.067 C 
ATOM      2  C   UNL     1       6.474  -1.008  25.428  0.00  0.00    -0.034 A 
ATOM      3  C   UNL     1       6.240  -1.978  26.409  0.00  0.00    +0.005 A 
ATOM      4  C   UNL     1       5.215  -1.814  27.340  0.00  0.00    +0.004 A 
ATOM      5  C   UNL     1       4.396  -0.676  27.320  0.00  0.00    -0.047 A 
ATOM      6  C   UNL     1       4.695   0.374  26.424  0.00  0.00    -0.043 A 
ATOM      7  C   UNL     1       3.899   1.659  26.437  0.00  0.00    +0.044 C 
ATOM      8  C   UNL     1       3.224  -0.619  28.264  0.00  0.00    +0.044 C 
ATOM      9  C   UNL     1       5.769   0.220  25.501  0.00  0.00    -0.023 A 
ATOM     10  C   UNL     1       6.152   1.387  24.588  0.00  0.00    +0.145 C 
ATOM     11  N   UNL     1       7.375   1.136  23.821  0.00  0.00    -0.280 N 
ATOM     12  C   UNL     1       8.368   2.087  23.888  0.00  0.00    +0.305 C 
ATOM     13  N   UNL     1       9.635   1.884  23.375  0.00  0.00    -0.292 N 
ATOM     14  C   UNL     1      10.554   3.022  23.420  0.00  0.00    +0.133 C 
ATOM     15  C   UNL     1      10.172   0.751  22.642  0.00  0.00    +0.133 C 
ATOM     16  O   UNL     1       8.116   3.171  24.437  0.00  0.00    -0.252 OA
ATOM     17  C   UNL     1       7.338  -0.185  23.210  0.00  0.00    +0.122 C 
ENDROOT
BRANCH   1  18
ATOM     18  C   UNL     1       7.421  -2.632  23.633  0.00  0.00    -0.035 A 
ATOM     19  C   UNL     1       8.068  -3.759  24.169  0.00  0.00    +0.004 A 
ATOM     20  C   UNL     1       7.928  -5.016  23.576  0.00  0.00    +0.004 A 
ATOM     21  C   UNL     1       7.120  -5.170  22.453  0.00  0.00    +0.045 A 
ATOM     22  C   UNL     1       6.463  -4.068  21.926  0.00  0.00    +0.117 A 
ATOM     23  C   UNL     1       6.613  -2.803  22.495  0.00  0.00    +0.049 A 
BRANCH  22  24
ATOM     24  O   UNL     1       5.654  -4.271  20.846  0.00  0.00    -0.507 OA
ATOM     25  H   UNL     1       6.207  -4.417  20.061  0.00  0.00    +0.292 HD
ENDBRANCH  22  24
ENDBRANCH   1  18
TORSDOF 2
ENDMDL
MODEL 9
REMARK VINA RESULT:      -5.9      4.091      7.685
REMARK  Name = 
REMARK  6 active torsions:
REMARK  status: ('A' for Active; 'I' for Inactive)
REMARK    1  A    between atoms: C_2  and  C_19
REMARK    2  A    between atoms: C_10  and  C_11
REMARK    3  A    between atoms: C_12  and  C_13
REMARK    4  A    between atoms: N_16  and  C_17
REMARK    5  A    between atoms: N_16  and  C_18
REMARK    6  A    between atoms: C_21  and  O_22
REMARK                            x       y       z     vdW  Elec       q    Type
REMARK                         _______ _______ _______ _____ _____    ______ ____
ROOT
ATOM      1  C   UNL     1       6.251  -1.369  25.394  0.00  0.00    +0.067 C 
ATOM      2  C   UNL     1       7.131  -0.521  24.464  0.00  0.00    -0.034 A 
ATOM      3  C   UNL     1       7.560  -1.029  23.232  0.00  0.00    +0.005 A 
ATOM      4  C   UNL     1       8.474  -0.322  22.452  0.00  0.00    +0.004 A 
ATOM      5  C   UNL     1       8.984   0.913  22.877  0.00  0.00    -0.047 A 
ATOM      6  C   UNL     1       8.469   1.505  24.051  0.00  0.00    -0.043 A 
ATOM      7  C   UNL     1       8.920   2.879  24.493  0.00  0.00    +0.044 C 
ATOM      8  C   UNL     1      10.067   1.562  22.057  0.00  0.00    +0.044 C 
ATOM      9  C   UNL     1       7.505   0.798  24.825  0.00  0.00    -0.023 A 
ATOM     10  C   UNL     1       6.880   1.471  26.050  0.00  0.00    +0.145 C 
ATOM     11  N   UNL     1       5.789   0.689  26.639  0.00  0.00    -0.280 N 
ATOM     12  C   UNL     1       4.589   1.333  26.840  0.00  0.00    +0.305 C 
ATOM     13  N   UNL     1       3.434   0.667  27.202  0.00  0.00    -0.292 N 
ATOM     14  C   UNL     1       2.260   1.492  27.488  0.00  0.00    +0.133 C 
ATOM     15  C   UNL     1       3.225  -0.739  27.502  0.00  0.00    +0.133 C 
ATOM     16  O   UNL     1       4.542   2.563  26.685  0.00  0.00    -0.252 OA
ATOM     17  C   UNL     1       6.178  -0.706  26.788  0.00  0.00    +0.122 C 
ENDROOT
BRANCH   1  18
ATOM     18  C   UNL     1       6.689  -2.822  25.590  0.00  0.00    -0.035 A 
ATOM     19  C   UNL     1       5.996  -3.892  24.998  0.00  0.00    +0.004 A 
ATOM     20  C   UNL     1       6.456  -5.204  25.130  0.00  0.00    +0.004 A 
ATOM     21  C   UNL     1       7.628  -5.465  25.835  0.00  0.00    +0.045 A 
ATOM     22  C   UNL     1       8.329  -4.414  26.408  0.00  0.00    +0.117 A 
ATOM     23  C   UNL     1       7.869  -3.101  26.303  0.00  0.00    +0.049 A 
BRANCH  22  24
ATOM     24  O   UNL     1       9.491  -4.710  27.060  0.00  0.00    -0.507 OA
ATOM     25  H   UNL     1       9.412  -4.431  27.987  0.00  0.00    +0.292 HD
ENDBRANCH  22  24
ENDBRANCH   1  18
TORSDOF 2
ENDMDL
