MODEL 1
REMARK VINA RESULT:      -6.9      0.000      0.000
REMARK  Name = 
REMARK  8 active torsions:
REMARK  status: ('A' for Active; 'I' for Inactive)
REMARK    1  A    between atoms: O_1  and  C_2
REMARK    2  A    between atoms: C_2  and  C_4
REMARK    3  A    between atoms: C_5  and  S_9
REMARK    4  A    between atoms: S_9  and  N_12
REMARK    5  A    between atoms: N_12  and  C_13
REMARK    6  A    between atoms: C_14  and  O_15
REMARK    7  A    between atoms: C_17  and  C_20
REMARK    8  A    between atoms: C_20  and  O_21
REMARK                            x       y       z     vdW  Elec       q    Type
REMARK                         _______ _______ _______ _____ _____    ______ ____
ROOT
ATOM      1  N   UNL     1       7.852  -3.643  22.727  0.00  0.00    -0.213 N 
ATOM      2  H   UNL     1       6.960  -3.991  22.340  0.00  0.00    +0.174 HD
ENDROOT
BRANCH   1   3
ATOM      3  C   UNL     1       8.069  -2.238  22.554  0.00  0.00    +0.089 A 
ATOM      4  C   UNL     1       9.263  -1.793  21.987  0.00  0.00    +0.029 A 
ATOM      5  C   UNL     1       9.479  -0.426  21.790  0.00  0.00    +0.017 A 
ATOM      6  C   UNL     1       8.511   0.510  22.185  0.00  0.00    +0.062 A 
ATOM      7  C   UNL     1       7.312   0.071  22.749  0.00  0.00    +0.062 A 
ATOM      8  C   UNL     1       7.090  -1.298  22.905  0.00  0.00    +0.140 A 
BRANCH   6   9
ATOM      9  C   UNL     1       8.779   1.944  21.913  0.00  0.00    +0.337 C 
ATOM     10  O   UNL     1       7.911   2.797  21.994  0.00  0.00    -0.245 OA
BRANCH   9  11
ATOM     11  O   UNL     1      10.046   2.213  21.536  0.00  0.00    -0.477 OA
ATOM     12  H   UNL     1      10.728   1.608  21.880  0.00  0.00    +0.295 HD
ENDBRANCH   9  11
ENDBRANCH   6   9
BRANCH   8  13
ATOM     13  O   UNL     1       5.879  -1.666  23.418  0.00  0.00    -0.505 OA
ATOM     14  H   UNL     1       5.192  -1.246  22.862  0.00  0.00    +0.292 HD
ENDBRANCH   8  13
ENDBRANCH   1   3
BRANCH   1  15
ATOM     15  S   UNL     1       8.054  -4.284  24.276  0.00  0.00    +0.074 S 
ATOM     16  O   UNL     1       9.057  -5.322  24.202  0.00  0.00    -0.150 OA
ATOM     17  O   UNL     1       8.181  -3.178  25.203  0.00  0.00    -0.150 OA
BRANCH  15  22
ATOM     18  C   UNL     1       5.613  -5.546  23.951  0.00  0.00    +0.123 A 
ATOM     19  S   UNL     1       4.418  -6.440  24.797  0.00  0.00    -0.088 S 
ATOM     20  C   UNL     1       5.271  -6.325  26.270  0.00  0.00    +0.048 A 
ATOM     21  C   UNL     1       6.448  -5.623  26.132  0.00  0.00    +0.037 A 
ATOM     22  C   UNL     1       6.637  -5.150  24.794  0.00  0.00    +0.130 A 
BRANCH  18  23
ATOM     23  C   UNL     1       5.460  -5.248  22.540  0.00  0.00    +0.345 C 
ATOM     24  O   UNL     1       4.936  -4.239  22.098  0.00  0.00    -0.244 OA
BRANCH  23  25
ATOM     25  O   UNL     1       5.936  -6.231  21.734  0.00  0.00    -0.477 OA
ATOM     26  H   UNL     1       6.863  -6.480  21.946  0.00  0.00    +0.295 HD
ENDBRANCH  23  25
ENDBRANCH  18  23
ENDBRANCH  15  22
ENDBRANCH   1  15
TORSDOF 8
ENDMDL
MODEL 2
REMARK VINA RESULT:      -6.8      1.776      2.731
REMARK  Name = 
REMARK  8 active torsions:
REMARK  status: ('A' for Active; 'I' for Inactive)
REMARK    1  A    between atoms: O_1  and  C_2
REMARK    2  A    between atoms: C_2  and  C_4
REMARK    3  A    between atoms: C_5  and  S_9
REMARK    4  A    between atoms: S_9  and  N_12
REMARK    5  A    between atoms: N_12  and  C_13
REMARK    6  A    between atoms: C_14  and  O_15
REMARK    7  A    between atoms: C_17  and  C_20
REMARK    8  A    between atoms: C_20  and  O_21
REMARK                            x       y       z     vdW  Elec       q    Type
REMARK                         _______ _______ _______ _____ _____    ______ ____
ROOT
ATOM      1  N   UNL     1       7.730  -2.580  24.901  0.00  0.00    -0.213 N 
ATOM      2  H   UNL     1       7.996  -2.810  25.871  0.00  0.00    +0.174 HD
ENDROOT
BRANCH   1   3
ATOM      3  C   UNL     1       8.334  -1.390  24.382  0.00  0.00    +0.089 A 
ATOM      4  C   UNL     1       9.660  -1.099  24.700  0.00  0.00    +0.029 A 
ATOM      5  C   UNL     1      10.270   0.047  24.181  0.00  0.00    +0.017 A 
ATOM      6  C   UNL     1       9.548   0.927  23.361  0.00  0.00    +0.062 A 
ATOM      7  C   UNL     1       8.221   0.638  23.034  0.00  0.00    +0.062 A 
ATOM      8  C   UNL     1       7.634  -0.529  23.526  0.00  0.00    +0.140 A 
BRANCH   6   9
ATOM      9  C   UNL     1      10.261   2.104  22.807  0.00  0.00    +0.337 C 
ATOM     10  O   UNL     1      10.904   2.867  23.509  0.00  0.00    -0.245 OA
BRANCH   9  11
ATOM     11  O   UNL     1      10.106   2.277  21.479  0.00  0.00    -0.477 OA
ATOM     12  H   UNL     1       9.862   1.479  20.974  0.00  0.00    +0.295 HD
ENDBRANCH   9  11
ENDBRANCH   6   9
BRANCH   8  13
ATOM     13  O   UNL     1       6.350  -0.779  23.132  0.00  0.00    -0.505 OA
ATOM     14  H   UNL     1       6.278  -0.502  22.197  0.00  0.00    +0.292 HD
ENDBRANCH   8  13
ENDBRANCH   1   3
BRANCH   1  15
ATOM     15  S   UNL     1       7.830  -3.983  23.966  0.00  0.00    +0.074 S 
ATOM     16  O   UNL     1       7.498  -3.636  22.603  0.00  0.00    -0.150 OA
ATOM     17  O   UNL     1       9.073  -4.649  24.294  0.00  0.00    -0.150 OA
BRANCH  15  22
ATOM     18  C   UNL     1       6.306  -5.527  25.685  0.00  0.00    +0.123 A 
ATOM     19  S   UNL     1       4.963  -6.594  25.729  0.00  0.00    -0.088 S 
ATOM     20  C   UNL     1       4.731  -6.490  24.043  0.00  0.00    +0.048 A 
ATOM     21  C   UNL     1       5.652  -5.657  23.445  0.00  0.00    +0.037 A 
ATOM     22  C   UNL     1       6.581  -5.118  24.391  0.00  0.00    +0.130 A 
BRANCH  18  23
ATOM     23  C   UNL     1       7.033  -5.193  26.895  0.00  0.00    +0.345 C 
ATOM     24  O   UNL     1       6.715  -4.308  27.670  0.00  0.00    -0.244 OA
BRANCH  23  25
ATOM     25  O   UNL     1       8.142  -5.954  27.076  0.00  0.00    -0.477 OA
ATOM     26  H   UNL     1       8.406  -6.440  26.264  0.00  0.00    +0.295 HD
ENDBRANCH  23  25
ENDBRANCH  18  23
ENDBRANCH  15  22
ENDBRANCH   1  15
TORSDOF 8
ENDMDL
MODEL 3
REMARK VINA RESULT:      -6.8      2.421      3.432
REMARK  Name = 
REMARK  8 active torsions:
REMARK  status: ('A' for Active; 'I' for Inactive)
REMARK    1  A    between atoms: O_1  and  C_2
REMARK    2  A    between atoms: C_2  and  C_4
REMARK    3  A    between atoms: C_5  and  S_9
REMARK    4  A    between atoms: S_9  and  N_12
REMARK    5  A    between atoms: N_12  and  C_13
REMARK    6  A    between atoms: C_14  and  O_15
REMARK    7  A    between atoms: C_17  and  C_20
REMARK    8  A    between atoms: C_20  and  O_21
REMARK                            x       y       z     vdW  Elec       q    Type
REMARK                         _______ _______ _______ _____ _____    ______ ____
ROOT
ATOM      1  N   UNL     1       9.570  -2.988  23.979  0.00  0.00    -0.213 N 
ATOM      2  H   UNL     1      10.341  -3.494  23.515  0.00  0.00    +0.174 HD
ENDROOT
BRANCH   1   3
ATOM      3  C   UNL     1       9.645  -1.562  23.873  0.00  0.00    +0.089 A 
ATOM      4  C   UNL     1       9.414  -0.777  25.002  0.00  0.00    +0.029 A 
ATOM      5  C   UNL     1       9.507   0.616  24.918  0.00  0.00    +0.017 A 
ATOM      6  C   UNL     1       9.805   1.236  23.696  0.00  0.00    +0.062 A 
ATOM      7  C   UNL     1      10.042   0.455  22.562  0.00  0.00    +0.062 A 
ATOM      8  C   UNL     1       9.985  -0.936  22.666  0.00  0.00    +0.140 A 
BRANCH   6   9
ATOM      9  C   UNL     1       9.930   2.714  23.678  0.00  0.00    +0.337 C 
ATOM     10  O   UNL     1       9.315   3.430  24.451  0.00  0.00    -0.245 OA
BRANCH   9  11
ATOM     11  O   UNL     1      10.746   3.194  22.718  0.00  0.00    -0.477 OA
ATOM     12  H   UNL     1      11.663   3.377  22.995  0.00  0.00    +0.295 HD
ENDBRANCH   9  11
ENDBRANCH   6   9
BRANCH   8  13
ATOM     13  O   UNL     1      10.274  -1.645  21.534  0.00  0.00    -0.505 OA
ATOM     14  H   UNL     1      11.246  -1.743  21.498  0.00  0.00    +0.292 HD
ENDBRANCH   8  13
ENDBRANCH   1   3
BRANCH   1  15
ATOM     15  S   UNL     1       8.111  -3.731  23.567  0.00  0.00    +0.074 S 
ATOM     16  O   UNL     1       7.546  -3.016  22.445  0.00  0.00    -0.150 OA
ATOM     17  O   UNL     1       8.339  -5.160  23.513  0.00  0.00    -0.150 OA
BRANCH  15  22
ATOM     18  C   UNL     1       7.063  -3.928  26.121  0.00  0.00    +0.123 A 
ATOM     19  S   UNL     1       5.713  -3.475  27.079  0.00  0.00    -0.088 S 
ATOM     20  C   UNL     1       4.948  -2.701  25.765  0.00  0.00    +0.048 A 
ATOM     21  C   UNL     1       5.699  -2.778  24.612  0.00  0.00    +0.037 A 
ATOM     22  C   UNL     1       6.914  -3.509  24.810  0.00  0.00    +0.130 A 
BRANCH  18  23
ATOM     23  C   UNL     1       8.155  -4.697  26.689  0.00  0.00    +0.345 C 
ATOM     24  O   UNL     1       9.306  -4.305  26.774  0.00  0.00    -0.244 OA
BRANCH  23  25
ATOM     25  O   UNL     1       7.776  -5.934  27.099  0.00  0.00    -0.477 OA
ATOM     26  H   UNL     1       8.539  -6.507  27.334  0.00  0.00    +0.295 HD
ENDBRANCH  23  25
ENDBRANCH  18  23
ENDBRANCH  15  22
ENDBRANCH   1  15
TORSDOF 8
ENDMDL
MODEL 4
REMARK VINA RESULT:      -6.5      2.227      2.900
REMARK  Name = 
REMARK  8 active torsions:
REMARK  status: ('A' for Active; 'I' for Inactive)
REMARK    1  A    between atoms: O_1  and  C_2
REMARK    2  A    between atoms: C_2  and  C_4
REMARK    3  A    between atoms: C_5  and  S_9
REMARK    4  A    between atoms: S_9  and  N_12
REMARK    5  A    between atoms: N_12  and  C_13
REMARK    6  A    between atoms: C_14  and  O_15
REMARK    7  A    between atoms: C_17  and  C_20
REMARK    8  A    between atoms: C_20  and  O_21
REMARK                            x       y       z     vdW  Elec       q    Type
REMARK                         _______ _______ _______ _____ _____    ______ ____
ROOT
ATOM      1  N   UNL     1       9.593  -2.245  23.381  0.00  0.00    -0.213 N 
ATOM      2  H   UNL     1      10.102  -2.793  22.669  0.00  0.00    +0.174 HD
ENDROOT
BRANCH   1   3
ATOM      3  C   UNL     1       9.840  -0.835  23.338  0.00  0.00    +0.089 A 
ATOM      4  C   UNL     1      10.169  -0.160  24.512  0.00  0.00    +0.029 A 
ATOM      5  C   UNL     1      10.437   1.213  24.480  0.00  0.00    +0.017 A 
ATOM      6  C   UNL     1      10.350   1.926  23.275  0.00  0.00    +0.062 A 
ATOM      7  C   UNL     1      10.025   1.254  22.094  0.00  0.00    +0.062 A 
ATOM      8  C   UNL     1       9.799  -0.123  22.131  0.00  0.00    +0.140 A 
BRANCH   6   9
ATOM      9  C   UNL     1      10.684   3.371  23.297  0.00  0.00    +0.337 C 
ATOM     10  O   UNL     1      11.829   3.774  23.419  0.00  0.00    -0.245 OA
BRANCH   9  11
ATOM     11  O   UNL     1       9.618   4.192  23.208  0.00  0.00    -0.477 OA
ATOM     12  H   UNL     1       9.796   5.077  22.840  0.00  0.00    +0.295 HD
ENDBRANCH   9  11
ENDBRANCH   6   9
BRANCH   8  13
ATOM     13  O   UNL     1       9.533  -0.730  20.936  0.00  0.00    -0.505 OA
ATOM     14  H   UNL     1      10.039  -0.248  20.251  0.00  0.00    +0.292 HD
ENDBRANCH   8  13
ENDBRANCH   1   3
BRANCH   1  15
ATOM     15  S   UNL     1       7.986  -2.760  23.412  0.00  0.00    +0.074 S 
ATOM     16  O   UNL     1       7.153  -1.610  23.683  0.00  0.00    -0.150 OA
ATOM     17  O   UNL     1       7.763  -3.594  22.249  0.00  0.00    -0.150 OA
BRANCH  15  22
ATOM     18  C   UNL     1       6.492  -4.477  24.985  0.00  0.00    +0.123 A 
ATOM     19  S   UNL     1       6.574  -5.452  26.395  0.00  0.00    -0.088 S 
ATOM     20  C   UNL     1       8.185  -4.989  26.711  0.00  0.00    +0.048 A 
ATOM     21  C   UNL     1       8.664  -4.109  25.765  0.00  0.00    +0.037 A 
ATOM     22  C   UNL     1       7.677  -3.793  24.777  0.00  0.00    +0.130 A 
BRANCH  18  23
ATOM     23  C   UNL     1       5.274  -4.404  24.201  0.00  0.00    +0.345 C 
ATOM     24  O   UNL     1       4.330  -3.675  24.455  0.00  0.00    -0.244 OA
BRANCH  23  25
ATOM     25  O   UNL     1       5.267  -5.262  23.149  0.00  0.00    -0.477 OA
ATOM     26  H   UNL     1       4.470  -5.163  22.583  0.00  0.00    +0.295 HD
ENDBRANCH  23  25
ENDBRANCH  18  23
ENDBRANCH  15  22
ENDBRANCH   1  15
TORSDOF 8
ENDMDL
MODEL 5
REMARK VINA RESULT:      -6.4      2.374      3.188
REMARK  Name = 
REMARK  8 active torsions:
REMARK  status: ('A' for Active; 'I' for Inactive)
REMARK    1  A    between atoms: O_1  and  C_2
REMARK    2  A    between atoms: C_2  and  C_4
REMARK    3  A    between atoms: C_5  and  S_9
REMARK    4  A    between atoms: S_9  and  N_12
REMARK    5  A    between atoms: N_12  and  C_13
REMARK    6  A    between atoms: C_14  and  O_15
REMARK    7  A    between atoms: C_17  and  C_20
REMARK    8  A    between atoms: C_20  and  O_21
REMARK                            x       y       z     vdW  Elec       q    Type
REMARK                         _______ _______ _______ _____ _____    ______ ____
ROOT
ATOM      1  N   UNL     1      10.208  -2.274  23.261  0.00  0.00    -0.213 N 
ATOM      2  H   UNL     1      10.077  -2.702  22.331  0.00  0.00    +0.174 HD
ENDROOT
BRANCH   1   3
ATOM      3  C   UNL     1      10.196  -0.842  23.266  0.00  0.00    +0.089 A 
ATOM      4  C   UNL     1      10.586  -0.156  24.415  0.00  0.00    +0.029 A 
ATOM      5  C   UNL     1      10.601   1.242  24.426  0.00  0.00    +0.017 A 
ATOM      6  C   UNL     1      10.200   1.966  23.293  0.00  0.00    +0.062 A 
ATOM      7  C   UNL     1       9.813   1.284  22.137  0.00  0.00    +0.062 A 
ATOM      8  C   UNL     1       9.838  -0.111  22.124  0.00  0.00    +0.140 A 
BRANCH   6   9
ATOM      9  C   UNL     1      10.277   3.446  23.351  0.00  0.00    +0.337 C 
ATOM     10  O   UNL     1       9.335   4.135  23.707  0.00  0.00    -0.245 OA
BRANCH   9  11
ATOM     11  O   UNL     1      11.455   3.960  22.943  0.00  0.00    -0.477 OA
ATOM     12  H   UNL     1      11.720   3.739  22.031  0.00  0.00    +0.295 HD
ENDBRANCH   9  11
ENDBRANCH   6   9
BRANCH   8  13
ATOM     13  O   UNL     1       9.494  -0.717  20.950  0.00  0.00    -0.505 OA
ATOM     14  H   UNL     1       9.176  -1.615  21.173  0.00  0.00    +0.292 HD
ENDBRANCH   8  13
ENDBRANCH   1   3
BRANCH   1  15
ATOM     15  S   UNL     1       9.213  -3.072  24.368  0.00  0.00    +0.074 S 
ATOM     16  O   UNL     1       9.803  -4.361  24.650  0.00  0.00    -0.150 OA
ATOM     17  O   UNL     1       8.893  -2.141  25.431  0.00  0.00    -0.150 OA
BRANCH  15  22
ATOM     18  C   UNL     1       6.641  -4.090  24.345  0.00  0.00    +0.123 A 
ATOM     19  S   UNL     1       5.264  -4.290  23.340  0.00  0.00    -0.088 S 
ATOM     20  C   UNL     1       6.039  -3.561  22.007  0.00  0.00    +0.048 A 
ATOM     21  C   UNL     1       7.324  -3.166  22.310  0.00  0.00    +0.037 A 
ATOM     22  C   UNL     1       7.683  -3.493  23.656  0.00  0.00    +0.130 A 
BRANCH  18  23
ATOM     23  C   UNL     1       6.638  -4.564  25.715  0.00  0.00    +0.345 C 
ATOM     24  O   UNL     1       6.092  -3.993  26.644  0.00  0.00    -0.244 OA
BRANCH  23  25
ATOM     25  O   UNL     1       7.340  -5.714  25.881  0.00  0.00    -0.477 OA
ATOM     26  H   UNL     1       7.364  -6.266  25.069  0.00  0.00    +0.295 HD
ENDBRANCH  23  25
ENDBRANCH  18  23
ENDBRANCH  15  22
ENDBRANCH   1  15
TORSDOF 8
ENDMDL
MODEL 6
REMARK VINA RESULT:      -6.4      1.746      2.178
REMARK  Name = 
REMARK  8 active torsions:
REMARK  status: ('A' for Active; 'I' for Inactive)
REMARK    1  A    between atoms: O_1  and  C_2
REMARK    2  A    between atoms: C_2  and  C_4
REMARK    3  A    between atoms: C_5  and  S_9
REMARK    4  A    between atoms: S_9  and  N_12
REMARK    5  A    between atoms: N_12  and  C_13
REMARK    6  A    between atoms: C_14  and  O_15
REMARK    7  A    between atoms: C_17  and  C_20
REMARK    8  A    between atoms: C_20  and  O_21
REMARK                            x       y       z     vdW  Elec       q    Type
REMARK                         _______ _______ _______ _____ _____    ______ ____
ROOT
ATOM      1  N   UNL     1       9.286  -3.554  24.386  0.00  0.00    -0.213 N 
ATOM      2  H   UNL     1      10.042  -4.213  24.143  0.00  0.00    +0.174 HD
ENDROOT
BRANCH   1   3
ATOM      3  C   UNL     1       9.536  -2.195  24.010  0.00  0.00    +0.089 A 
ATOM      4  C   UNL     1       9.975  -1.910  22.719  0.00  0.00    +0.029 A 
ATOM      5  C   UNL     1      10.200  -0.585  22.330  0.00  0.00    +0.017 A 
ATOM      6  C   UNL     1      10.013   0.464  23.243  0.00  0.00    +0.062 A 
ATOM      7  C   UNL     1       9.567   0.185  24.537  0.00  0.00    +0.062 A 
ATOM      8  C   UNL     1       9.308  -1.137  24.902  0.00  0.00    +0.140 A 
BRANCH   6   9
ATOM      9  C   UNL     1      10.228   1.850  22.761  0.00  0.00    +0.337 C 
ATOM     10  O   UNL     1      10.718   2.717  23.466  0.00  0.00    -0.245 OA
BRANCH   9  11
ATOM     11  O   UNL     1       9.802   2.076  21.502  0.00  0.00    -0.477 OA
ATOM     12  H   UNL     1      10.241   1.552  20.807  0.00  0.00    +0.295 HD
ENDBRANCH   9  11
ENDBRANCH   6   9
BRANCH   8  13
ATOM     13  O   UNL     1       8.830  -1.339  26.165  0.00  0.00    -0.505 OA
ATOM     14  H   UNL     1       9.260  -2.148  26.508  0.00  0.00    +0.292 HD
ENDBRANCH   8  13
ENDBRANCH   1   3
BRANCH   1  15
ATOM     15  S   UNL     1       7.809  -4.235  23.933  0.00  0.00    +0.074 S 
ATOM     16  O   UNL     1       6.937  -3.165  23.503  0.00  0.00    -0.150 OA
ATOM     17  O   UNL     1       8.086  -5.371  23.079  0.00  0.00    -0.150 OA
BRANCH  15  22
ATOM     18  C   UNL     1       5.795  -5.626  25.224  0.00  0.00    +0.123 A 
ATOM     19  S   UNL     1       5.293  -6.174  26.771  0.00  0.00    -0.088 S 
ATOM     20  C   UNL     1       6.641  -5.467  27.540  0.00  0.00    +0.048 A 
ATOM     21  C   UNL     1       7.468  -4.824  26.645  0.00  0.00    +0.037 A 
ATOM     22  C   UNL     1       6.967  -4.894  25.306  0.00  0.00    +0.130 A 
BRANCH  18  23
ATOM     23  C   UNL     1       5.000  -5.900  24.043  0.00  0.00    +0.345 C 
ATOM     24  O   UNL     1       4.349  -5.066  23.437  0.00  0.00    -0.244 OA
BRANCH  23  25
ATOM     25  O   UNL     1       5.020  -7.208  23.681  0.00  0.00    -0.477 OA
ATOM     26  H   UNL     1       5.922  -7.527  23.460  0.00  0.00    +0.295 HD
ENDBRANCH  23  25
ENDBRANCH  18  23
ENDBRANCH  15  22
ENDBRANCH   1  15
TORSDOF 8
ENDMDL
MODEL 7
REMARK VINA RESULT:      -6.4      2.756      3.625
REMARK  Name = 
REMARK  8 active torsions:
REMARK  status: ('A' for Active; 'I' for Inactive)
REMARK    1  A    between atoms: O_1  and  C_2
REMARK    2  A    between atoms: C_2  and  C_4
REMARK    3  A    between atoms: C_5  and  S_9
REMARK    4  A    between atoms: S_9  and  N_12
REMARK    5  A    between atoms: N_12  and  C_13
REMARK    6  A    between atoms: C_14  and  O_15
REMARK    7  A    between atoms: C_17  and  C_20
REMARK    8  A    between atoms: C_20  and  O_21
REMARK                            x       y       z     vdW  Elec       q    Type
REMARK                         _______ _______ _______ _____ _____    ______ ____
ROOT
ATOM      1  N   UNL     1       7.937  -0.717  23.133  0.00  0.00    -0.213 N 
ATOM      2  H   UNL     1       6.934  -0.588  23.343  0.00  0.00    +0.174 HD
ENDROOT
BRANCH   1   3
ATOM      3  C   UNL     1       8.723   0.477  23.217  0.00  0.00    +0.089 A 
ATOM      4  C   UNL     1       9.499   0.865  22.127  0.00  0.00    +0.029 A 
ATOM      5  C   UNL     1      10.254   2.042  22.186  0.00  0.00    +0.017 A 
ATOM      6  C   UNL     1      10.257   2.825  23.351  0.00  0.00    +0.062 A 
ATOM      7  C   UNL     1       9.477   2.443  24.445  0.00  0.00    +0.062 A 
ATOM      8  C   UNL     1       8.698   1.288  24.360  0.00  0.00    +0.140 A 
BRANCH   6   9
ATOM      9  C   UNL     1      11.044   4.082  23.340  0.00  0.00    +0.337 C 
ATOM     10  O   UNL     1      12.260   4.092  23.427  0.00  0.00    -0.245 OA
BRANCH   9  11
ATOM     11  O   UNL     1      10.301   5.205  23.264  0.00  0.00    -0.477 OA
ATOM     12  H   UNL     1      10.656   5.910  22.691  0.00  0.00    +0.295 HD
ENDBRANCH   9  11
ENDBRANCH   6   9
BRANCH   8  13
ATOM     13  O   UNL     1       7.922   0.995  25.445  0.00  0.00    -0.505 OA
ATOM     14  H   UNL     1       6.997   0.941  25.130  0.00  0.00    +0.292 HD
ENDBRANCH   8  13
ENDBRANCH   1   3
BRANCH   1  15
ATOM     15  S   UNL     1       8.490  -2.082  23.960  0.00  0.00    +0.074 S 
ATOM     16  O   UNL     1       9.916  -2.187  23.745  0.00  0.00    -0.150 OA
ATOM     17  O   UNL     1       7.928  -2.052  25.295  0.00  0.00    -0.150 OA
BRANCH  15  22
ATOM     18  C   UNL     1       8.053  -4.809  23.786  0.00  0.00    +0.123 A 
ATOM     19  S   UNL     1       7.256  -6.004  22.847  0.00  0.00    -0.088 S 
ATOM     20  C   UNL     1       6.662  -4.846  21.744  0.00  0.00    +0.048 A 
ATOM     21  C   UNL     1       7.055  -3.567  22.075  0.00  0.00    +0.037 A 
ATOM     22  C   UNL     1       7.881  -3.546  23.244  0.00  0.00    +0.130 A 
BRANCH  18  23
ATOM     23  C   UNL     1       8.829  -5.175  24.955  0.00  0.00    +0.345 C 
ATOM     24  O   UNL     1       8.351  -5.472  26.037  0.00  0.00    -0.244 OA
BRANCH  23  25
ATOM     25  O   UNL     1      10.168  -5.128  24.741  0.00  0.00    -0.477 OA
ATOM     26  H   UNL     1      10.635  -4.543  25.378  0.00  0.00    +0.295 HD
ENDBRANCH  23  25
ENDBRANCH  18  23
ENDBRANCH  15  22
ENDBRANCH   1  15
TORSDOF 8
ENDMDL
MODEL 8
REMARK VINA RESULT:      -6.2      2.966      6.906
REMARK  Name = 
REMARK  8 active torsions:
REMARK  status: ('A' for Active; 'I' for Inactive)
REMARK    1  A    between atoms: O_1  and  C_2
REMARK    2  A    between atoms: C_2  and  C_4
REMARK    3  A    between atoms: C_5  and  S_9
REMARK    4  A    between atoms: S_9  and  N_12
REMARK    5  A    between atoms: N_12  and  C_13
REMARK    6  A    between atoms: C_14  and  O_15
REMARK    7  A    between atoms: C_17  and  C_20
REMARK    8  A    between atoms: C_20  and  O_21
REMARK                            x       y       z     vdW  Elec       q    Type
REMARK                         _______ _______ _______ _____ _____    ______ ____
ROOT
ATOM      1  N   UNL     1       8.488  -1.518  25.053  0.00  0.00    -0.213 N 
ATOM      2  H   UNL     1       7.874  -1.081  25.759  0.00  0.00    +0.174 HD
ENDROOT
BRANCH   1   3
ATOM      3  C   UNL     1       7.854  -2.521  24.250  0.00  0.00    +0.089 A 
ATOM      4  C   UNL     1       6.612  -2.256  23.675  0.00  0.00    +0.029 A 
ATOM      5  C   UNL     1       5.993  -3.217  22.870  0.00  0.00    +0.017 A 
ATOM      6  C   UNL     1       6.601  -4.463  22.656  0.00  0.00    +0.062 A 
ATOM      7  C   UNL     1       7.847  -4.733  23.226  0.00  0.00    +0.062 A 
ATOM      8  C   UNL     1       8.474  -3.752  23.996  0.00  0.00    +0.140 A 
BRANCH   6   9
ATOM      9  C   UNL     1       5.915  -5.426  21.760  0.00  0.00    +0.337 C 
ATOM     10  O   UNL     1       5.970  -5.339  20.544  0.00  0.00    -0.245 OA
BRANCH   9  11
ATOM     11  O   UNL     1       5.202  -6.375  22.400  0.00  0.00    -0.477 OA
ATOM     12  H   UNL     1       4.444  -6.739  21.907  0.00  0.00    +0.295 HD
ENDBRANCH   9  11
ENDBRANCH   6   9
BRANCH   8  13
ATOM     13  O   UNL     1       9.712  -4.059  24.485  0.00  0.00    -0.505 OA
ATOM     14  H   UNL     1      10.357  -3.860  23.778  0.00  0.00    +0.292 HD
ENDBRANCH   8  13
ENDBRANCH   1   3
BRANCH   1  15
ATOM     15  S   UNL     1       9.346  -0.302  24.256  0.00  0.00    +0.074 S 
ATOM     16  O   UNL     1      10.474   0.064  25.084  0.00  0.00    -0.150 OA
ATOM     17  O   UNL     1       9.525  -0.712  22.879  0.00  0.00    -0.150 OA
BRANCH  15  22
ATOM     18  C   UNL     1       8.852   2.321  23.529  0.00  0.00    +0.123 A 
ATOM     19  S   UNL     1       7.657   3.552  23.595  0.00  0.00    -0.088 S 
ATOM     20  C   UNL     1       6.573   2.554  24.454  0.00  0.00    +0.048 A 
ATOM     21  C   UNL     1       7.098   1.303  24.691  0.00  0.00    +0.037 A 
ATOM     22  C   UNL     1       8.428   1.174  24.176  0.00  0.00    +0.130 A 
BRANCH  18  23
ATOM     23  C   UNL     1      10.135   2.562  22.897  0.00  0.00    +0.345 C 
ATOM     24  O   UNL     1      11.071   3.136  23.427  0.00  0.00    -0.244 OA
BRANCH  23  25
ATOM     25  O   UNL     1      10.191   2.108  21.619  0.00  0.00    -0.477 OA
ATOM     26  H   UNL     1      10.794   2.639  21.053  0.00  0.00    +0.295 HD
ENDBRANCH  23  25
ENDBRANCH  18  23
ENDBRANCH  15  22
ENDBRANCH   1  15
TORSDOF 8
ENDMDL
MODEL 9
REMARK VINA RESULT:      -6.2      2.386      3.351
REMARK  Name = 
REMARK  8 active torsions:
REMARK  status: ('A' for Active; 'I' for Inactive)
REMARK    1  A    between atoms: O_1  and  C_2
REMARK    2  A    between atoms: C_2  and  C_4
REMARK    3  A    between atoms: C_5  and  S_9
REMARK    4  A    between atoms: S_9  and  N_12
REMARK    5  A    between atoms: N_12  and  C_13
REMARK    6  A    between atoms: C_14  and  O_15
REMARK    7  A    between atoms: C_17  and  C_20
REMARK    8  A    between atoms: C_20  and  O_21
REMARK                            x       y       z     vdW  Elec       q    Type
REMARK                         _______ _______ _______ _____ _____    ______ ____
ROOT
ATOM      1  N   UNL     1       9.280  -2.121  23.278  0.00  0.00    -0.213 N 
ATOM      2  H   UNL     1       9.690  -2.652  22.493  0.00  0.00    +0.174 HD
ENDROOT
BRANCH   1   3
ATOM      3  C   UNL     1       9.634  -0.734  23.309  0.00  0.00    +0.089 A 
ATOM      4  C   UNL     1       9.785  -0.038  22.110  0.00  0.00    +0.029 A 
ATOM      5  C   UNL     1      10.106   1.323  22.125  0.00  0.00    +0.017 A 
ATOM      6  C   UNL     1      10.305   1.992  23.342  0.00  0.00    +0.062 A 
ATOM      7  C   UNL     1      10.151   1.302  24.546  0.00  0.00    +0.062 A 
ATOM      8  C   UNL     1       9.792  -0.047  24.520  0.00  0.00    +0.140 A 
BRANCH   6   9
ATOM      9  C   UNL     1      10.604   3.445  23.295  0.00  0.00    +0.337 C 
ATOM     10  O   UNL     1      11.742   3.879  23.356  0.00  0.00    -0.245 OA
BRANCH   9  11
ATOM     11  O   UNL     1       9.515   4.236  23.218  0.00  0.00    -0.477 OA
ATOM     12  H   UNL     1       9.580   4.987  22.600  0.00  0.00    +0.295 HD
ENDBRANCH   9  11
ENDBRANCH   6   9
BRANCH   8  13
ATOM     13  O   UNL     1       9.609  -0.653  25.731  0.00  0.00    -0.505 OA
ATOM     14  H   UNL     1       8.735  -1.091  25.703  0.00  0.00    +0.292 HD
ENDBRANCH   8  13
ENDBRANCH   1   3
BRANCH   1  15
ATOM     15  S   UNL     1       7.644  -2.518  23.404  0.00  0.00    +0.074 S 
ATOM     16  O   UNL     1       6.898  -1.291  23.567  0.00  0.00    -0.150 OA
ATOM     17  O   UNL     1       7.331  -3.456  22.346  0.00  0.00    -0.150 OA
BRANCH  15  22
ATOM     18  C   UNL     1       7.996  -4.499  25.304  0.00  0.00    +0.123 A 
ATOM     19  S   UNL     1       7.444  -5.027  26.841  0.00  0.00    -0.088 S 
ATOM     20  C   UNL     1       6.322  -3.748  26.958  0.00  0.00    +0.048 A 
ATOM     21  C   UNL     1       6.358  -2.925  25.853  0.00  0.00    +0.037 A 
ATOM     22  C   UNL     1       7.311  -3.373  24.883  0.00  0.00    +0.130 A 
BRANCH  18  23
ATOM     23  C   UNL     1       9.021  -5.235  24.588  0.00  0.00    +0.345 C 
ATOM     24  O   UNL     1       8.800  -6.067  23.724  0.00  0.00    -0.244 OA
BRANCH  23  25
ATOM     25  O   UNL     1      10.278  -4.929  24.997  0.00  0.00    -0.477 OA
ATOM     26  H   UNL     1      10.322  -4.697  25.951  0.00  0.00    +0.295 HD
ENDBRANCH  23  25
ENDBRANCH  18  23
ENDBRANCH  15  22
ENDBRANCH   1  15
TORSDOF 8
ENDMDL
