MODEL 1
REMARK VINA RESULT:      -8.7      0.000      0.000
REMARK  Name = 
REMARK  4 active torsions:
REMARK  status: ('A' for Active; 'I' for Inactive)
REMARK    1  A    between atoms: C_7  and  N_11
REMARK    2  A    between atoms: N_14  and  C_15
REMARK    3  A    between atoms: C_15  and  C_16
REMARK    4  A    between atoms: C_18  and  C_22
REMARK                            x       y       z     vdW  Elec       q    Type
REMARK                         _______ _______ _______ _____ _____    ______ ____
ROOT
ATOM      1  N   UNL     1       7.049  -3.649  26.178  0.00  0.00    -0.325 N 
ATOM      2  C   UNL     1       7.907  -3.452  24.991  0.00  0.00    +0.120 C 
ATOM      3  C   UNL     1       8.970  -2.353  25.254  0.00  0.00    +0.103 C 
ATOM      4  N   UNL     1       8.443  -1.065  25.776  0.00  0.00    -0.295 NA
ATOM      5  C   UNL     1       7.616  -1.369  26.970  0.00  0.00    +0.103 C 
ATOM      6  C   UNL     1       6.491  -2.404  26.736  0.00  0.00    +0.120 C 
ENDROOT
BRANCH   1  11
ATOM      7  O   UNL     1       6.371  -6.871  30.257  0.00  0.00    -0.223 OA
ATOM      8  C   UNL     1       6.105  -6.603  29.096  0.00  0.00    +0.419 A 
ATOM      9  O   UNL     1       6.638  -5.517  28.400  0.00  0.00    -0.406 OA
ATOM     10  C   UNL     1       6.039  -5.634  27.147  0.00  0.00    +0.178 A 
ATOM     11  C   UNL     1       6.206  -4.759  26.078  0.00  0.00    +0.075 A 
ATOM     12  C   UNL     1       5.465  -5.077  24.925  0.00  0.00    +0.027 A 
ATOM     13  C   UNL     1       4.619  -6.209  24.864  0.00  0.00    +0.004 A 
ATOM     14  C   UNL     1       4.472  -7.054  25.963  0.00  0.00    +0.029 A 
ATOM     15  C   UNL     1       5.196  -6.727  27.083  0.00  0.00    +0.089 A 
ATOM     16  N   UNL     1       5.250  -7.333  28.304  0.00  0.00    -0.288 N 
ATOM     17  H   UNL     1       4.753  -8.148  28.619  0.00  0.00    +0.172 HD
ENDBRANCH   1  11
BRANCH   4  18
ATOM     18  C   UNL     1       7.689  -0.363  24.727  0.00  0.00    +0.119 C 
BRANCH  18  19
ATOM     19  C   UNL     1       8.547   0.354  23.708  0.00  0.00    -0.033 A 
ATOM     20  C   UNL     1       8.683  -0.127  22.405  0.00  0.00    +0.005 A 
ATOM     21  C   UNL     1       9.404   0.606  21.464  0.00  0.00    +0.001 A 
ATOM     22  C   UNL     1       9.971   1.840  21.810  0.00  0.00    +0.008 A 
ATOM     23  C   UNL     1       9.858   2.360  23.112  0.00  0.00    -0.018 A 
ATOM     24  C   UNL     1       9.170   1.565  24.051  0.00  0.00    +0.013 A 
BRANCH  23  25
ATOM     25  C   UNL     1      10.385   3.695  23.493  0.00  0.00    -0.018 A 
ATOM     26  C   UNL     1       9.537   4.673  24.052  0.00  0.00    +0.008 A 
ATOM     27  C   UNL     1      10.009   5.928  24.444  0.00  0.00    +0.001 A 
ATOM     28  C   UNL     1      11.347   6.251  24.263  0.00  0.00    +0.000 A 
ATOM     29  C   UNL     1      12.207   5.321  23.689  0.00  0.00    +0.001 A 
ATOM     30  C   UNL     1      11.733   4.057  23.313  0.00  0.00    +0.008 A 
ENDBRANCH  23  25
ENDBRANCH  18  19
ENDBRANCH   4  18
TORSDOF 4
ENDMDL
MODEL 2
REMARK VINA RESULT:      -8.4      1.653      2.405
REMARK  Name = 
REMARK  4 active torsions:
REMARK  status: ('A' for Active; 'I' for Inactive)
REMARK    1  A    between atoms: C_7  and  N_11
REMARK    2  A    between atoms: N_14  and  C_15
REMARK    3  A    between atoms: C_15  and  C_16
REMARK    4  A    between atoms: C_18  and  C_22
REMARK                            x       y       z     vdW  Elec       q    Type
REMARK                         _______ _______ _______ _____ _____    ______ ____
ROOT
ATOM      1  N   UNL     1       7.663  -2.658  24.227  0.00  0.00    -0.325 N 
ATOM      2  C   UNL     1       8.711  -2.707  23.185  0.00  0.00    +0.120 C 
ATOM      3  C   UNL     1       9.810  -1.645  23.456  0.00  0.00    +0.103 C 
ATOM      4  N   UNL     1       9.320  -0.260  23.682  0.00  0.00    -0.295 NA
ATOM      5  C   UNL     1       8.293  -0.317  24.752  0.00  0.00    +0.103 C 
ATOM      6  C   UNL     1       7.134  -1.307  24.490  0.00  0.00    +0.120 C 
ENDROOT
BRANCH   1  11
ATOM      7  O   UNL     1       7.107  -5.985  28.238  0.00  0.00    -0.223 OA
ATOM      8  C   UNL     1       6.772  -5.662  27.110  0.00  0.00    +0.419 A 
ATOM      9  O   UNL     1       7.312  -4.581  26.412  0.00  0.00    -0.406 OA
ATOM     10  C   UNL     1       6.618  -4.619  25.204  0.00  0.00    +0.178 A 
ATOM     11  C   UNL     1       6.755  -3.716  24.154  0.00  0.00    +0.075 A 
ATOM     12  C   UNL     1       5.915  -3.952  23.051  0.00  0.00    +0.027 A 
ATOM     13  C   UNL     1       5.005  -5.033  23.016  0.00  0.00    +0.004 A 
ATOM     14  C   UNL     1       4.891  -5.909  24.096  0.00  0.00    +0.029 A 
ATOM     15  C   UNL     1       5.712  -5.663  25.168  0.00  0.00    +0.089 A 
ATOM     16  N   UNL     1       5.821  -6.315  26.361  0.00  0.00    -0.288 N 
ATOM     17  H   UNL     1       5.304  -7.113  26.686  0.00  0.00    +0.172 HD
ENDBRANCH   1  11
BRANCH   4  18
ATOM     18  C   UNL     1       8.803   0.306  22.428  0.00  0.00    +0.119 C 
BRANCH  18  19
ATOM     19  C   UNL     1       8.427   1.770  22.506  0.00  0.00    -0.033 A 
ATOM     20  C   UNL     1       7.142   2.208  22.188  0.00  0.00    +0.005 A 
ATOM     21  C   UNL     1       6.801   3.549  22.360  0.00  0.00    +0.001 A 
ATOM     22  C   UNL     1       7.735   4.456  22.879  0.00  0.00    +0.008 A 
ATOM     23  C   UNL     1       9.041   4.055  23.211  0.00  0.00    -0.018 A 
ATOM     24  C   UNL     1       9.367   2.705  22.972  0.00  0.00    +0.013 A 
BRANCH  23  25
ATOM     25  C   UNL     1      10.032   4.973  23.828  0.00  0.00    -0.018 A 
ATOM     26  C   UNL     1      11.395   4.909  23.473  0.00  0.00    +0.008 A 
ATOM     27  C   UNL     1      12.346   5.776  24.017  0.00  0.00    +0.001 A 
ATOM     28  C   UNL     1      11.961   6.721  24.958  0.00  0.00    +0.000 A 
ATOM     29  C   UNL     1      10.629   6.796  25.353  0.00  0.00    +0.001 A 
ATOM     30  C   UNL     1       9.676   5.935  24.792  0.00  0.00    +0.008 A 
ENDBRANCH  23  25
ENDBRANCH  18  19
ENDBRANCH   4  18
TORSDOF 4
ENDMDL
MODEL 3
REMARK VINA RESULT:      -8.3      4.092     10.195
REMARK  Name = 
REMARK  4 active torsions:
REMARK  status: ('A' for Active; 'I' for Inactive)
REMARK    1  A    between atoms: C_7  and  N_11
REMARK    2  A    between atoms: N_14  and  C_15
REMARK    3  A    between atoms: C_15  and  C_16
REMARK    4  A    between atoms: C_18  and  C_22
REMARK                            x       y       z     vdW  Elec       q    Type
REMARK                         _______ _______ _______ _____ _____    ______ ____
ROOT
ATOM      1  N   UNL     1       9.794   1.908  23.598  0.00  0.00    -0.325 N 
ATOM      2  C   UNL     1       9.437   1.145  24.812  0.00  0.00    +0.120 C 
ATOM      3  C   UNL     1       9.832  -0.349  24.662  0.00  0.00    +0.103 C 
ATOM      4  N   UNL     1       9.347  -1.017  23.427  0.00  0.00    -0.295 NA
ATOM      5  C   UNL     1       9.769  -0.187  22.272  0.00  0.00    +0.103 C 
ATOM      6  C   UNL     1       9.332   1.294  22.339  0.00  0.00    +0.120 C 
ENDROOT
BRANCH   1  11
ATOM      7  O   UNL     1      13.922   5.096  23.079  0.00  0.00    -0.223 OA
ATOM      8  C   UNL     1      12.729   4.979  23.307  0.00  0.00    +0.419 A 
ATOM      9  O   UNL     1      12.055   3.758  23.354  0.00  0.00    -0.406 OA
ATOM     10  C   UNL     1      10.745   4.142  23.635  0.00  0.00    +0.178 A 
ATOM     11  C   UNL     1       9.651   3.290  23.746  0.00  0.00    +0.075 A 
ATOM     12  C   UNL     1       8.423   3.926  24.004  0.00  0.00    +0.027 A 
ATOM     13  C   UNL     1       8.318   5.329  24.144  0.00  0.00    +0.004 A 
ATOM     14  C   UNL     1       9.439   6.148  24.013  0.00  0.00    +0.029 A 
ATOM     15  C   UNL     1      10.629   5.514  23.756  0.00  0.00    +0.089 A 
ATOM     16  N   UNL     1      11.876   6.029  23.557  0.00  0.00    -0.288 N 
ATOM     17  H   UNL     1      12.161   6.994  23.559  0.00  0.00    +0.172 HD
ENDBRANCH   1  11
BRANCH   4  18
ATOM     18  C   UNL     1       7.890  -1.203  23.489  0.00  0.00    +0.119 C 
BRANCH  18  19
ATOM     19  C   UNL     1       7.433  -2.641  23.382  0.00  0.00    -0.033 A 
ATOM     20  C   UNL     1       7.568  -3.361  22.195  0.00  0.00    +0.005 A 
ATOM     21  C   UNL     1       7.225  -4.711  22.157  0.00  0.00    +0.001 A 
ATOM     22  C   UNL     1       6.770  -5.360  23.313  0.00  0.00    +0.008 A 
ATOM     23  C   UNL     1       6.618  -4.671  24.529  0.00  0.00    -0.018 A 
ATOM     24  C   UNL     1       6.922  -3.295  24.516  0.00  0.00    +0.013 A 
BRANCH  23  25
ATOM     25  C   UNL     1       6.207  -5.342  25.788  0.00  0.00    -0.018 A 
ATOM     26  C   UNL     1       5.069  -6.174  25.825  0.00  0.00    +0.008 A 
ATOM     27  C   UNL     1       4.672  -6.839  26.987  0.00  0.00    +0.001 A 
ATOM     28  C   UNL     1       5.393  -6.668  28.161  0.00  0.00    +0.000 A 
ATOM     29  C   UNL     1       6.506  -5.834  28.170  0.00  0.00    +0.001 A 
ATOM     30  C   UNL     1       6.910  -5.182  26.997  0.00  0.00    +0.008 A 
ENDBRANCH  23  25
ENDBRANCH  18  19
ENDBRANCH   4  18
TORSDOF 4
ENDMDL
MODEL 4
REMARK VINA RESULT:      -8.3      2.535      3.422
REMARK  Name = 
REMARK  4 active torsions:
REMARK  status: ('A' for Active; 'I' for Inactive)
REMARK    1  A    between atoms: C_7  and  N_11
REMARK    2  A    between atoms: N_14  and  C_15
REMARK    3  A    between atoms: C_15  and  C_16
REMARK    4  A    between atoms: C_18  and  C_22
REMARK                            x       y       z     vdW  Elec       q    Type
REMARK                         _______ _______ _______ _____ _____    ______ ____
ROOT
ATOM      1  N   UNL     1       7.592  -3.374  24.865  0.00  0.00    -0.325 N 
ATOM      2  C   UNL     1       8.715  -3.527  23.916  0.00  0.00    +0.120 C 
ATOM      3  C   UNL     1       9.785  -2.427  24.144  0.00  0.00    +0.103 C 
ATOM      4  N   UNL     1       9.273  -1.032  24.174  0.00  0.00    -0.295 NA
ATOM      5  C   UNL     1       8.169  -0.980  25.164  0.00  0.00    +0.103 C 
ATOM      6  C   UNL     1       7.038  -2.009  24.933  0.00  0.00    +0.120 C 
ENDROOT
BRANCH   1  11
ATOM      7  O   UNL     1       5.951  -5.411  20.323  0.00  0.00    -0.223 OA
ATOM      8  C   UNL     1       5.905  -5.434  21.543  0.00  0.00    +0.419 A 
ATOM      9  O   UNL     1       6.602  -4.552  22.370  0.00  0.00    -0.406 OA
ATOM     10  C   UNL     1       6.236  -4.977  23.647  0.00  0.00    +0.178 A 
ATOM     11  C   UNL     1       6.696  -4.446  24.847  0.00  0.00    +0.075 A 
ATOM     12  C   UNL     1       6.201  -5.071  26.006  0.00  0.00    +0.027 A 
ATOM     13  C   UNL     1       5.298  -6.157  25.946  0.00  0.00    +0.004 A 
ATOM     14  C   UNL     1       4.871  -6.667  24.720  0.00  0.00    +0.029 A 
ATOM     15  C   UNL     1       5.366  -6.051  23.598  0.00  0.00    +0.089 A 
ATOM     16  N   UNL     1       5.159  -6.325  22.278  0.00  0.00    -0.288 N 
ATOM     17  H   UNL     1       4.593  -7.050  21.873  0.00  0.00    +0.172 HD
ENDBRANCH   1  11
BRANCH   4  18
ATOM     18  C   UNL     1       8.849  -0.618  22.829  0.00  0.00    +0.119 C 
BRANCH  18  19
ATOM     19  C   UNL     1       8.465   0.840  22.711  0.00  0.00    -0.033 A 
ATOM     20  C   UNL     1       7.162   1.226  22.394  0.00  0.00    +0.005 A 
ATOM     21  C   UNL     1       6.818   2.577  22.385  0.00  0.00    +0.001 A 
ATOM     22  C   UNL     1       7.768   3.551  22.721  0.00  0.00    +0.008 A 
ATOM     23  C   UNL     1       9.091   3.205  23.045  0.00  0.00    -0.018 A 
ATOM     24  C   UNL     1       9.417   1.835  22.990  0.00  0.00    +0.013 A 
BRANCH  23  25
ATOM     25  C   UNL     1      10.102   4.205  23.474  0.00  0.00    -0.018 A 
ATOM     26  C   UNL     1      11.470   4.021  23.181  0.00  0.00    +0.008 A 
ATOM     27  C   UNL     1      12.440   4.956  23.549  0.00  0.00    +0.001 A 
ATOM     28  C   UNL     1      12.071   6.098  24.247  0.00  0.00    +0.000 A 
ATOM     29  C   UNL     1      10.735   6.300  24.576  0.00  0.00    +0.001 A 
ATOM     30  C   UNL     1       9.762   5.367  24.191  0.00  0.00    +0.008 A 
ENDBRANCH  23  25
ENDBRANCH  18  19
ENDBRANCH   4  18
TORSDOF 4
ENDMDL
MODEL 5
REMARK VINA RESULT:      -8.3      2.008      2.844
REMARK  Name = 
REMARK  4 active torsions:
REMARK  status: ('A' for Active; 'I' for Inactive)
REMARK    1  A    between atoms: C_7  and  N_11
REMARK    2  A    between atoms: N_14  and  C_15
REMARK    3  A    between atoms: C_15  and  C_16
REMARK    4  A    between atoms: C_18  and  C_22
REMARK                            x       y       z     vdW  Elec       q    Type
REMARK                         _______ _______ _______ _____ _____    ______ ____
ROOT
ATOM      1  N   UNL     1       7.259  -5.238  25.738  0.00  0.00    -0.325 N 
ATOM      2  C   UNL     1       6.787  -4.194  24.804  0.00  0.00    +0.120 C 
ATOM      3  C   UNL     1       7.806  -3.981  23.653  0.00  0.00    +0.103 C 
ATOM      4  N   UNL     1       9.211  -3.749  24.077  0.00  0.00    -0.295 NA
ATOM      5  C   UNL     1       9.592  -4.854  24.991  0.00  0.00    +0.103 C 
ATOM      6  C   UNL     1       8.648  -5.056  26.198  0.00  0.00    +0.120 C 
ENDROOT
BRANCH   1  11
ATOM      7  O   UNL     1       3.097  -8.088  24.313  0.00  0.00    -0.223 OA
ATOM      8  C   UNL     1       3.700  -7.515  25.206  0.00  0.00    +0.419 A 
ATOM      9  O   UNL     1       4.887  -6.805  25.020  0.00  0.00    -0.406 OA
ATOM     10  C   UNL     1       5.178  -6.354  26.306  0.00  0.00    +0.178 A 
ATOM     11  C   UNL     1       6.299  -5.619  26.679  0.00  0.00    +0.075 A 
ATOM     12  C   UNL     1       6.382  -5.310  28.049  0.00  0.00    +0.027 A 
ATOM     13  C   UNL     1       5.391  -5.717  28.972  0.00  0.00    +0.004 A 
ATOM     14  C   UNL     1       4.288  -6.463  28.557  0.00  0.00    +0.029 A 
ATOM     15  C   UNL     1       4.224  -6.762  27.219  0.00  0.00    +0.089 A 
ATOM     16  N   UNL     1       3.299  -7.481  26.521  0.00  0.00    -0.288 N 
ATOM     17  H   UNL     1       2.475  -7.941  26.867  0.00  0.00    +0.172 HD
ENDBRANCH   1  11
BRANCH   4  18
ATOM     18  C   UNL     1       9.341  -2.425  24.703  0.00  0.00    +0.119 C 
BRANCH  18  19
ATOM     19  C   UNL     1       9.556  -1.287  23.730  0.00  0.00    -0.033 A 
ATOM     20  C   UNL     1       9.714  -1.519  22.363  0.00  0.00    +0.005 A 
ATOM     21  C   UNL     1       9.817  -0.444  21.482  0.00  0.00    +0.001 A 
ATOM     22  C   UNL     1       9.734   0.872  21.958  0.00  0.00    +0.008 A 
ATOM     23  C   UNL     1       9.576   1.149  23.327  0.00  0.00    -0.018 A 
ATOM     24  C   UNL     1       9.532   0.039  24.194  0.00  0.00    +0.013 A 
BRANCH  23  25
ATOM     25  C   UNL     1       9.414   2.527  23.855  0.00  0.00    -0.018 A 
ATOM     26  C   UNL     1       8.343   2.850  24.715  0.00  0.00    +0.008 A 
ATOM     27  C   UNL     1       8.179   4.131  25.248  0.00  0.00    +0.001 A 
ATOM     28  C   UNL     1       9.074   5.138  24.913  0.00  0.00    +0.000 A 
ATOM     29  C   UNL     1      10.127   4.863  24.047  0.00  0.00    +0.001 A 
ATOM     30  C   UNL     1      10.297   3.573  23.528  0.00  0.00    +0.008 A 
ENDBRANCH  23  25
ENDBRANCH  18  19
ENDBRANCH   4  18
TORSDOF 4
ENDMDL
MODEL 6
REMARK VINA RESULT:      -8.2      4.343     10.373
REMARK  Name = 
REMARK  4 active torsions:
REMARK  status: ('A' for Active; 'I' for Inactive)
REMARK    1  A    between atoms: C_7  and  N_11
REMARK    2  A    between atoms: N_14  and  C_15
REMARK    3  A    between atoms: C_15  and  C_16
REMARK    4  A    between atoms: C_18  and  C_22
REMARK                            x       y       z     vdW  Elec       q    Type
REMARK                         _______ _______ _______ _____ _____    ______ ____
ROOT
ATOM      1  N   UNL     1       9.881   1.969  22.994  0.00  0.00    -0.325 N 
ATOM      2  C   UNL     1      10.139   1.041  24.116  0.00  0.00    +0.120 C 
ATOM      3  C   UNL     1      10.536  -0.364  23.591  0.00  0.00    +0.103 C 
ATOM      4  N   UNL     1       9.616  -0.955  22.585  0.00  0.00    -0.295 NA
ATOM      5  C   UNL     1       9.438   0.040  21.499  0.00  0.00    +0.103 C 
ATOM      6  C   UNL     1       8.967   1.437  21.966  0.00  0.00    +0.120 C 
ENDROOT
BRANCH   1  11
ATOM      7  O   UNL     1      13.976   5.237  23.169  0.00  0.00    -0.223 OA
ATOM      8  C   UNL     1      12.780   5.068  23.346  0.00  0.00    +0.419 A 
ATOM      9  O   UNL     1      12.122   3.853  23.148  0.00  0.00    -0.406 OA
ATOM     10  C   UNL     1      10.802   4.165  23.468  0.00  0.00    +0.178 A 
ATOM     11  C   UNL     1       9.717   3.297  23.395  0.00  0.00    +0.075 A 
ATOM     12  C   UNL     1       8.476   3.861  23.742  0.00  0.00    +0.027 A 
ATOM     13  C   UNL     1       8.350   5.212  24.140  0.00  0.00    +0.004 A 
ATOM     14  C   UNL     1       9.462   6.052  24.189  0.00  0.00    +0.029 A 
ATOM     15  C   UNL     1      10.665   5.489  23.842  0.00  0.00    +0.089 A 
ATOM     16  N   UNL     1      11.909   6.044  23.770  0.00  0.00    -0.288 N 
ATOM     17  H   UNL     1      12.181   6.994  23.958  0.00  0.00    +0.172 HD
ENDBRANCH   1  11
BRANCH   4  18
ATOM     18  C   UNL     1       8.345  -1.334  23.221  0.00  0.00    +0.119 C 
BRANCH  18  19
ATOM     19  C   UNL     1       8.318  -2.736  23.787  0.00  0.00    -0.033 A 
ATOM     20  C   UNL     1       9.414  -3.267  24.468  0.00  0.00    +0.005 A 
ATOM     21  C   UNL     1       9.323  -4.526  25.059  0.00  0.00    +0.001 A 
ATOM     22  C   UNL     1       8.126  -5.252  24.999  0.00  0.00    +0.008 A 
ATOM     23  C   UNL     1       6.999  -4.753  24.323  0.00  0.00    -0.018 A 
ATOM     24  C   UNL     1       7.145  -3.503  23.690  0.00  0.00    +0.013 A 
BRANCH  23  25
ATOM     25  C   UNL     1       5.695  -5.464  24.300  0.00  0.00    -0.018 A 
ATOM     26  C   UNL     1       4.798  -5.294  23.225  0.00  0.00    +0.008 A 
ATOM     27  C   UNL     1       3.576  -5.968  23.164  0.00  0.00    +0.001 A 
ATOM     28  C   UNL     1       3.203  -6.818  24.196  0.00  0.00    +0.000 A 
ATOM     29  C   UNL     1       4.051  -6.990  25.285  0.00  0.00    +0.001 A 
ATOM     30  C   UNL     1       5.283  -6.325  25.335  0.00  0.00    +0.008 A 
ENDBRANCH  23  25
ENDBRANCH  18  19
ENDBRANCH   4  18
TORSDOF 4
ENDMDL
MODEL 7
REMARK VINA RESULT:      -8.0      4.727     10.373
REMARK  Name = 
REMARK  4 active torsions:
REMARK  status: ('A' for Active; 'I' for Inactive)
REMARK    1  A    between atoms: C_7  and  N_11
REMARK    2  A    between atoms: N_14  and  C_15
REMARK    3  A    between atoms: C_15  and  C_16
REMARK    4  A    between atoms: C_18  and  C_22
REMARK                            x       y       z     vdW  Elec       q    Type
REMARK                         _______ _______ _______ _____ _____    ______ ____
ROOT
ATOM      1  N   UNL     1       9.028   3.640  23.411  0.00  0.00    -0.325 N 
ATOM      2  C   UNL     1       9.211   2.361  24.130  0.00  0.00    +0.120 C 
ATOM      3  C   UNL     1       8.817   1.160  23.230  0.00  0.00    +0.103 C 
ATOM      4  N   UNL     1       7.478   1.249  22.593  0.00  0.00    -0.295 NA
ATOM      5  C   UNL     1       7.402   2.551  21.887  0.00  0.00    +0.103 C 
ATOM      6  C   UNL     1       7.711   3.787  22.763  0.00  0.00    +0.120 C 
ENDROOT
BRANCH   1  11
ATOM      7  O   UNL     1      13.988   5.146  22.640  0.00  0.00    -0.223 OA
ATOM      8  C   UNL     1      12.931   5.329  23.222  0.00  0.00    +0.419 A 
ATOM      9  O   UNL     1      11.799   4.530  23.061  0.00  0.00    -0.406 OA
ATOM     10  C   UNL     1      10.875   5.134  23.912  0.00  0.00    +0.178 A 
ATOM     11  C   UNL     1       9.552   4.742  24.091  0.00  0.00    +0.075 A 
ATOM     12  C   UNL     1       8.810   5.535  24.984  0.00  0.00    +0.027 A 
ATOM     13  C   UNL     1       9.376   6.646  25.651  0.00  0.00    +0.004 A 
ATOM     14  C   UNL     1      10.704   7.012  25.434  0.00  0.00    +0.029 A 
ATOM     15  C   UNL     1      11.414   6.232  24.555  0.00  0.00    +0.089 A 
ATOM     16  N   UNL     1      12.703   6.342  24.124  0.00  0.00    -0.288 N 
ATOM     17  H   UNL     1      13.388   7.035  24.373  0.00  0.00    +0.172 HD
ENDBRANCH   1  11
BRANCH   4  18
ATOM     18  C   UNL     1       6.423   1.091  23.605  0.00  0.00    +0.119 C 
BRANCH  18  19
ATOM     19  C   UNL     1       6.452  -0.229  24.344  0.00  0.00    -0.033 A 
ATOM     20  C   UNL     1       6.410  -0.283  25.738  0.00  0.00    +0.005 A 
ATOM     21  C   UNL     1       6.343  -1.515  26.385  0.00  0.00    +0.001 A 
ATOM     22  C   UNL     1       6.289  -2.703  25.643  0.00  0.00    +0.008 A 
ATOM     23  C   UNL     1       6.330  -2.692  24.238  0.00  0.00    -0.018 A 
ATOM     24  C   UNL     1       6.454  -1.432  23.619  0.00  0.00    +0.013 A 
BRANCH  23  25
ATOM     25  C   UNL     1       6.204  -3.926  23.420  0.00  0.00    -0.018 A 
ATOM     26  C   UNL     1       7.279  -4.381  22.629  0.00  0.00    +0.008 A 
ATOM     27  C   UNL     1       7.199  -5.551  21.870  0.00  0.00    +0.001 A 
ATOM     28  C   UNL     1       6.024  -6.290  21.860  0.00  0.00    +0.000 A 
ATOM     29  C   UNL     1       4.933  -5.856  22.607  0.00  0.00    +0.001 A 
ATOM     30  C   UNL     1       5.023  -4.691  23.380  0.00  0.00    +0.008 A 
ENDBRANCH  23  25
ENDBRANCH  18  19
ENDBRANCH   4  18
TORSDOF 4
ENDMDL
MODEL 8
REMARK VINA RESULT:      -7.9      1.815      2.546
REMARK  Name = 
REMARK  4 active torsions:
REMARK  status: ('A' for Active; 'I' for Inactive)
REMARK    1  A    between atoms: C_7  and  N_11
REMARK    2  A    between atoms: N_14  and  C_15
REMARK    3  A    between atoms: C_15  and  C_16
REMARK    4  A    between atoms: C_18  and  C_22
REMARK                            x       y       z     vdW  Elec       q    Type
REMARK                         _______ _______ _______ _____ _____    ______ ____
ROOT
ATOM      1  N   UNL     1       6.134  -4.409  23.607  0.00  0.00    -0.325 N 
ATOM      2  C   UNL     1       5.425  -3.125  23.425  0.00  0.00    +0.120 C 
ATOM      3  C   UNL     1       6.263  -2.150  22.556  0.00  0.00    +0.103 C 
ATOM      4  N   UNL     1       7.668  -1.948  22.995  0.00  0.00    -0.295 NA
ATOM      5  C   UNL     1       8.293  -3.287  23.130  0.00  0.00    +0.103 C 
ATOM      6  C   UNL     1       7.534  -4.271  24.050  0.00  0.00    +0.120 C 
ENDROOT
BRANCH   1  11
ATOM      7  O   UNL     1       6.831  -5.687  28.642  0.00  0.00    -0.223 OA
ATOM      8  C   UNL     1       6.224  -5.881  27.601  0.00  0.00    +0.419 A 
ATOM      9  O   UNL     1       6.479  -5.205  26.407  0.00  0.00    -0.406 OA
ATOM     10  C   UNL     1       5.545  -5.762  25.535  0.00  0.00    +0.178 A 
ATOM     11  C   UNL     1       5.350  -5.398  24.207  0.00  0.00    +0.075 A 
ATOM     12  C   UNL     1       4.319  -6.088  23.544  0.00  0.00    +0.027 A 
ATOM     13  C   UNL     1       3.545  -7.081  24.187  0.00  0.00    +0.004 A 
ATOM     14  C   UNL     1       3.766  -7.407  25.525  0.00  0.00    +0.029 A 
ATOM     15  C   UNL     1       4.771  -6.721  26.160  0.00  0.00    +0.089 A 
ATOM     16  N   UNL     1       5.208  -6.796  27.450  0.00  0.00    -0.288 N 
ATOM     17  H   UNL     1       4.863  -7.378  28.194  0.00  0.00    +0.172 HD
ENDBRANCH   1  11
BRANCH   4  18
ATOM     18  C   UNL     1       7.703  -1.177  24.247  0.00  0.00    +0.119 C 
BRANCH  18  19
ATOM     19  C   UNL     1       8.730  -0.066  24.274  0.00  0.00    -0.033 A 
ATOM     20  C   UNL     1      10.082  -0.331  24.493  0.00  0.00    +0.005 A 
ATOM     21  C   UNL     1      11.014   0.702  24.420  0.00  0.00    +0.001 A 
ATOM     22  C   UNL     1      10.605   2.004  24.097  0.00  0.00    +0.008 A 
ATOM     23  C   UNL     1       9.253   2.313  23.870  0.00  0.00    -0.018 A 
ATOM     24  C   UNL     1       8.332   1.255  24.008  0.00  0.00    +0.013 A 
BRANCH  23  25
ATOM     25  C   UNL     1       8.795   3.664  23.458  0.00  0.00    -0.018 A 
ATOM     26  C   UNL     1       9.512   4.817  23.839  0.00  0.00    +0.008 A 
ATOM     27  C   UNL     1       9.120   6.099  23.445  0.00  0.00    +0.001 A 
ATOM     28  C   UNL     1       7.977   6.267  22.676  0.00  0.00    +0.000 A 
ATOM     29  C   UNL     1       7.229   5.154  22.305  0.00  0.00    +0.001 A 
ATOM     30  C   UNL     1       7.635   3.868  22.688  0.00  0.00    +0.008 A 
ENDBRANCH  23  25
ENDBRANCH  18  19
ENDBRANCH   4  18
TORSDOF 4
ENDMDL
MODEL 9
REMARK VINA RESULT:      -7.9      3.700     10.496
REMARK  Name = 
REMARK  4 active torsions:
REMARK  status: ('A' for Active; 'I' for Inactive)
REMARK    1  A    between atoms: C_7  and  N_11
REMARK    2  A    between atoms: N_14  and  C_15
REMARK    3  A    between atoms: C_15  and  C_16
REMARK    4  A    between atoms: C_18  and  C_22
REMARK                            x       y       z     vdW  Elec       q    Type
REMARK                         _______ _______ _______ _____ _____    ______ ____
ROOT
ATOM      1  N   UNL     1       7.847  -1.114  23.289  0.00  0.00    -0.325 N 
ATOM      2  C   UNL     1       8.368  -2.286  22.555  0.00  0.00    +0.120 C 
ATOM      3  C   UNL     1       7.212  -3.226  22.123  0.00  0.00    +0.103 C 
ATOM      4  N   UNL     1       6.272  -3.623  23.203  0.00  0.00    -0.295 NA
ATOM      5  C   UNL     1       5.795  -2.383  23.862  0.00  0.00    +0.103 C 
ATOM      6  C   UNL     1       6.913  -1.448  24.380  0.00  0.00    +0.120 C 
ENDROOT
BRANCH   1  11
ATOM      7  O   UNL     1       7.018   3.860  21.856  0.00  0.00    -0.223 OA
ATOM      8  C   UNL     1       7.768   3.042  22.367  0.00  0.00    +0.419 A 
ATOM      9  O   UNL     1       7.476   1.683  22.493  0.00  0.00    -0.406 OA
ATOM     10  C   UNL     1       8.612   1.186  23.130  0.00  0.00    +0.178 A 
ATOM     11  C   UNL     1       8.813  -0.132  23.529  0.00  0.00    +0.075 A 
ATOM     12  C   UNL     1      10.033  -0.379  24.184  0.00  0.00    +0.027 A 
ATOM     13  C   UNL     1      10.983   0.643  24.411  0.00  0.00    +0.004 A 
ATOM     14  C   UNL     1      10.737   1.954  24.005  0.00  0.00    +0.029 A 
ATOM     15  C   UNL     1       9.540   2.181  23.373  0.00  0.00    +0.089 A 
ATOM     16  N   UNL     1       9.007   3.338  22.885  0.00  0.00    -0.288 N 
ATOM     17  H   UNL     1       9.401   4.263  22.902  0.00  0.00    +0.172 HD
ENDBRANCH   1  11
BRANCH   4  18
ATOM     18  C   UNL     1       6.935  -4.543  24.139  0.00  0.00    +0.119 C 
BRANCH  18  19
ATOM     19  C   UNL     1       5.997  -5.461  24.891  0.00  0.00    -0.033 A 
ATOM     20  C   UNL     1       6.123  -5.662  26.267  0.00  0.00    +0.005 A 
ATOM     21  C   UNL     1       5.186  -6.438  26.945  0.00  0.00    +0.001 A 
ATOM     22  C   UNL     1       4.099  -6.997  26.260  0.00  0.00    +0.008 A 
ATOM     23  C   UNL     1       3.935  -6.820  24.875  0.00  0.00    -0.018 A 
ATOM     24  C   UNL     1       4.932  -6.075  24.212  0.00  0.00    +0.013 A 
BRANCH  23  25
ATOM     25  C   UNL     1       2.759  -7.338  24.131  0.00  0.00    -0.018 A 
ATOM     26  C   UNL     1       2.090  -8.504  24.558  0.00  0.00    +0.008 A 
ATOM     27  C   UNL     1       0.966  -9.001  23.894  0.00  0.00    +0.001 A 
ATOM     28  C   UNL     1       0.491  -8.355  22.760  0.00  0.00    +0.000 A 
ATOM     29  C   UNL     1       1.142  -7.217  22.294  0.00  0.00    +0.001 A 
ATOM     30  C   UNL     1       2.259  -6.712  22.973  0.00  0.00    +0.008 A 
ENDBRANCH  23  25
ENDBRANCH  18  19
ENDBRANCH   4  18
TORSDOF 4
ENDMDL
