MODEL 1
REMARK VINA RESULT:      -8.4      0.000      0.000
REMARK  Name = 
REMARK  6 active torsions:
REMARK  status: ('A' for Active; 'I' for Inactive)
REMARK    1  A    between atoms: C_1  and  C_2
REMARK    2  A    between atoms: C_3  and  C_4
REMARK    3  A    between atoms: C_4  and  C_5
REMARK    4  A    between atoms: C_5  and  N_6
REMARK    5  A    between atoms: C_9  and  C_12
REMARK    6  A    between atoms: C_28  and  O_29
REMARK                            x       y       z     vdW  Elec       q    Type
REMARK                         _______ _______ _______ _____ _____    ______ ____
ROOT
ATOM      1  C   UNL     1       7.529  -3.155  22.772  0.00  0.00    +0.089 C 
ENDROOT
BRANCH   1   2
ATOM      2  N   UNL     1       8.663  -2.214  22.765  0.00  0.00    -0.302 NA
ATOM      3  C   UNL     1       9.505  -2.301  23.977  0.00  0.00    +0.085 C 
ATOM      4  C   UNL     1       9.035  -1.497  25.208  0.00  0.00    +0.025 C 
ATOM      5  C   UNL     1       8.471  -0.100  24.903  0.00  0.00    +0.044 C 
ATOM      6  C   UNL     1       7.541  -0.194  23.686  0.00  0.00    +0.025 C 
ATOM      7  C   UNL     1       8.287  -0.822  22.513  0.00  0.00    +0.085 C 
BRANCH   5   8
ATOM      8  C   UNL     1       9.457   1.018  24.666  0.00  0.00    +0.094 A 
ATOM      9  C   UNL     1       9.127   2.402  24.585  0.00  0.00    +0.045 A 
ATOM     10  C   UNL     1       8.005   3.207  24.857  0.00  0.00    +0.016 A 
ATOM     11  C   UNL     1       8.044   4.551  24.468  0.00  0.00    +0.039 A 
ATOM     12  C   UNL     1       9.160   5.067  23.810  0.00  0.00    +0.127 A 
ATOM     13  C   UNL     1      10.290   4.294  23.542  0.00  0.00    +0.088 A 
ATOM     14  F   UNL     1       9.140   6.346  23.412  0.00  0.00    -0.205 F 
ATOM     15  C   UNL     1      10.226   2.970  23.964  0.00  0.00    +0.170 A 
ATOM     16  O   UNL     1      11.189   2.021  23.811  0.00  0.00    -0.354 OA
ATOM     17  N   UNL     1      10.718   0.797  24.269  0.00  0.00    -0.082 NA
ENDBRANCH   5   8
ENDBRANCH   1   2
BRANCH   1  18
ATOM     18  C   UNL     1       7.870  -4.610  23.199  0.00  0.00    +0.058 C 
BRANCH  18  30
ATOM     19  C   UNL     1       9.291  -4.993  26.012  0.00  0.00    +0.066 C 
ATOM     20  C   UNL     1       7.837  -5.230  25.703  0.00  0.00    +0.049 A 
ATOM     21  N   UNL     1       7.159  -5.649  26.818  0.00  0.00    -0.236 NA
ATOM     22  C   UNL     1       5.902  -5.929  26.735  0.00  0.00    +0.141 A 
ATOM     23  N   UNL     1       5.195  -5.869  25.558  0.00  0.00    -0.294 N 
ATOM     24  C   UNL     1       3.755  -6.077  25.483  0.00  0.00    +0.127 C 
ATOM     25  C   UNL     1       3.158  -6.831  26.657  0.00  0.00    +0.025 C 
ATOM     26  C   UNL     1       3.690  -6.244  27.953  0.00  0.00    +0.041 C 
ATOM     27  C   UNL     1       5.799  -5.385  24.414  0.00  0.00    +0.258 A 
ATOM     28  O   UNL     1       5.196  -5.224  23.352  0.00  0.00    -0.267 OA
ATOM     29  C   UNL     1       5.197  -6.421  28.007  0.00  0.00    +0.180 C 
ATOM     30  C   UNL     1       7.248  -5.047  24.506  0.00  0.00    +0.039 A 
BRANCH  29  31
ATOM     31  O   UNL     1       5.501  -7.785  28.283  0.00  0.00    -0.384 OA
ATOM     32  H   UNL     1       4.753  -8.172  28.769  0.00  0.00    +0.210 HD
ENDBRANCH  29  31
ENDBRANCH  18  30
ENDBRANCH   1  18
TORSDOF 5
ENDMDL
MODEL 2
REMARK VINA RESULT:      -8.2      1.849      2.708
REMARK  Name = 
REMARK  6 active torsions:
REMARK  status: ('A' for Active; 'I' for Inactive)
REMARK    1  A    between atoms: C_1  and  C_2
REMARK    2  A    between atoms: C_3  and  C_4
REMARK    3  A    between atoms: C_4  and  C_5
REMARK    4  A    between atoms: C_5  and  N_6
REMARK    5  A    between atoms: C_9  and  C_12
REMARK    6  A    between atoms: C_28  and  O_29
REMARK                            x       y       z     vdW  Elec       q    Type
REMARK                         _______ _______ _______ _____ _____    ______ ____
ROOT
ATOM      1  C   UNL     1       8.894  -3.239  24.952  0.00  0.00    +0.089 C 
ENDROOT
BRANCH   1   2
ATOM      2  N   UNL     1       8.327  -2.301  23.967  0.00  0.00    -0.302 NA
ATOM      3  C   UNL     1       9.057  -2.288  22.680  0.00  0.00    +0.085 C 
ATOM      4  C   UNL     1      10.307  -1.386  22.602  0.00  0.00    +0.025 C 
ATOM      5  C   UNL     1      10.175  -0.019  23.292  0.00  0.00    +0.044 C 
ATOM      6  C   UNL     1       9.492  -0.213  24.653  0.00  0.00    +0.025 C 
ATOM      7  C   UNL     1       8.161  -0.935  24.464  0.00  0.00    +0.085 C 
BRANCH   5   8
ATOM      8  C   UNL     1       9.453   1.076  22.546  0.00  0.00    +0.094 A 
ATOM      9  C   UNL     1       9.232   2.396  23.035  0.00  0.00    +0.045 A 
ATOM     10  C   UNL     1       9.687   3.182  24.110  0.00  0.00    +0.016 A 
ATOM     11  C   UNL     1       9.072   4.420  24.334  0.00  0.00    +0.039 A 
ATOM     12  C   UNL     1       8.023   4.847  23.521  0.00  0.00    +0.127 A 
ATOM     13  C   UNL     1       7.563   4.094  22.440  0.00  0.00    +0.088 A 
ATOM     14  F   UNL     1       7.430   6.017  23.795  0.00  0.00    -0.205 F 
ATOM     15  C   UNL     1       8.213   2.881  22.233  0.00  0.00    +0.170 A 
ATOM     16  O   UNL     1       7.943   1.971  21.259  0.00  0.00    -0.354 OA
ATOM     17  N   UNL     1       8.733   0.843  21.439  0.00  0.00    -0.082 NA
ENDBRANCH   5   8
ENDBRANCH   1   2
BRANCH   1  18
ATOM     18  C   UNL     1       8.829  -4.742  24.559  0.00  0.00    +0.058 C 
BRANCH  18  30
ATOM     19  C   UNL     1       7.193  -5.097  21.860  0.00  0.00    +0.066 C 
ATOM     20  C   UNL     1       6.716  -5.431  23.249  0.00  0.00    +0.049 A 
ATOM     21  N   UNL     1       5.438  -5.927  23.223  0.00  0.00    -0.236 NA
ATOM     22  C   UNL     1       4.852  -6.242  24.328  0.00  0.00    +0.141 A 
ATOM     23  N   UNL     1       5.432  -6.069  25.562  0.00  0.00    -0.294 N 
ATOM     24  C   UNL     1       4.817  -6.525  26.802  0.00  0.00    +0.127 C 
ATOM     25  C   UNL     1       3.319  -6.756  26.723  0.00  0.00    +0.025 C 
ATOM     26  C   UNL     1       3.000  -7.560  25.474  0.00  0.00    +0.041 C 
ATOM     27  C   UNL     1       6.743  -5.642  25.655  0.00  0.00    +0.258 A 
ATOM     28  O   UNL     1       7.345  -5.551  26.726  0.00  0.00    -0.267 OA
ATOM     29  C   UNL     1       3.412  -6.768  24.245  0.00  0.00    +0.180 C 
ATOM     30  C   UNL     1       7.429  -5.288  24.381  0.00  0.00    +0.039 A 
BRANCH  29  31
ATOM     31  O   UNL     1       2.479  -5.713  24.031  0.00  0.00    -0.384 OA
ATOM     32  H   UNL     1       2.391  -5.572  23.073  0.00  0.00    +0.210 HD
ENDBRANCH  29  31
ENDBRANCH  18  30
ENDBRANCH   1  18
TORSDOF 5
ENDMDL
MODEL 3
REMARK VINA RESULT:      -8.2      1.765      2.377
REMARK  Name = 
REMARK  6 active torsions:
REMARK  status: ('A' for Active; 'I' for Inactive)
REMARK    1  A    between atoms: C_1  and  C_2
REMARK    2  A    between atoms: C_3  and  C_4
REMARK    3  A    between atoms: C_4  and  C_5
REMARK    4  A    between atoms: C_5  and  N_6
REMARK    5  A    between atoms: C_9  and  C_12
REMARK    6  A    between atoms: C_28  and  O_29
REMARK                            x       y       z     vdW  Elec       q    Type
REMARK                         _______ _______ _______ _____ _____    ______ ____
ROOT
ATOM      1  C   UNL     1       9.124  -3.161  24.534  0.00  0.00    +0.089 C 
ENDROOT
BRANCH   1   2
ATOM      2  N   UNL     1       8.313  -2.069  23.969  0.00  0.00    -0.302 NA
ATOM      3  C   UNL     1       8.368  -1.999  22.492  0.00  0.00    +0.085 C 
ATOM      4  C   UNL     1       9.560  -1.236  21.877  0.00  0.00    +0.025 C 
ATOM      5  C   UNL     1       9.957   0.057  22.607  0.00  0.00    +0.044 C 
ATOM      6  C   UNL     1       9.952  -0.204  24.120  0.00  0.00    +0.025 C 
ATOM      7  C   UNL     1       8.593  -0.752  24.544  0.00  0.00    +0.085 C 
BRANCH   5   8
ATOM      8  C   UNL     1       9.142   1.296  22.332  0.00  0.00    +0.094 A 
ATOM      9  C   UNL     1       9.449   2.605  22.805  0.00  0.00    +0.045 A 
ATOM     10  C   UNL     1      10.542   3.243  23.422  0.00  0.00    +0.016 A 
ATOM     11  C   UNL     1      10.368   4.549  23.893  0.00  0.00    +0.039 A 
ATOM     12  C   UNL     1       9.134   5.189  23.769  0.00  0.00    +0.127 A 
ATOM     13  C   UNL     1       8.041   4.585  23.149  0.00  0.00    +0.088 A 
ATOM     14  F   UNL     1       8.994   6.422  24.274  0.00  0.00    -0.205 F 
ATOM     15  C   UNL     1       8.257   3.295  22.672  0.00  0.00    +0.170 A 
ATOM     16  O   UNL     1       7.351   2.499  22.044  0.00  0.00    -0.354 OA
ATOM     17  N   UNL     1       7.908   1.249  21.810  0.00  0.00    -0.082 NA
ENDBRANCH   5   8
ENDBRANCH   1   2
BRANCH   1  18
ATOM     18  C   UNL     1       8.703  -4.596  24.110  0.00  0.00    +0.058 C 
BRANCH  18  30
ATOM     19  C   UNL     1       7.838  -5.256  27.093  0.00  0.00    +0.066 C 
ATOM     20  C   UNL     1       6.964  -5.328  25.870  0.00  0.00    +0.049 A 
ATOM     21  N   UNL     1       5.695  -5.730  26.195  0.00  0.00    -0.236 NA
ATOM     22  C   UNL     1       4.812  -5.876  25.266  0.00  0.00    +0.141 A 
ATOM     23  N   UNL     1       5.086  -5.688  23.933  0.00  0.00    -0.294 N 
ATOM     24  C   UNL     1       4.065  -5.745  22.895  0.00  0.00    +0.127 C 
ATOM     25  C   UNL     1       2.801  -6.490  23.284  0.00  0.00    +0.025 C 
ATOM     26  C   UNL     1       2.345  -6.022  24.655  0.00  0.00    +0.041 C 
ATOM     27  C   UNL     1       6.323  -5.213  23.543  0.00  0.00    +0.258 A 
ATOM     28  O   UNL     1       6.600  -4.941  22.374  0.00  0.00    -0.267 OA
ATOM     29  C   UNL     1       3.414  -6.354  25.682  0.00  0.00    +0.180 C 
ATOM     30  C   UNL     1       7.344  -5.030  24.613  0.00  0.00    +0.039 A 
BRANCH  29  31
ATOM     31  O   UNL     1       3.393  -7.754  25.947  0.00  0.00    -0.384 OA
ATOM     32  H   UNL     1       3.192  -8.219  25.117  0.00  0.00    +0.210 HD
ENDBRANCH  29  31
ENDBRANCH  18  30
ENDBRANCH   1  18
TORSDOF 5
ENDMDL
MODEL 4
REMARK VINA RESULT:      -7.9      3.481      9.466
REMARK  Name = 
REMARK  6 active torsions:
REMARK  status: ('A' for Active; 'I' for Inactive)
REMARK    1  A    between atoms: C_1  and  C_2
REMARK    2  A    between atoms: C_3  and  C_4
REMARK    3  A    between atoms: C_4  and  C_5
REMARK    4  A    between atoms: C_5  and  N_6
REMARK    5  A    between atoms: C_9  and  C_12
REMARK    6  A    between atoms: C_28  and  O_29
REMARK                            x       y       z     vdW  Elec       q    Type
REMARK                         _______ _______ _______ _____ _____    ______ ____
ROOT
ATOM      1  C   UNL     1       7.535  -0.785  23.009  0.00  0.00    +0.089 C 
ENDROOT
BRANCH   1   2
ATOM      2  N   UNL     1       7.997  -1.578  24.161  0.00  0.00    -0.302 NA
ATOM      3  C   UNL     1       8.826  -2.742  23.780  0.00  0.00    +0.085 C 
ATOM      4  C   UNL     1       8.073  -4.029  23.383  0.00  0.00    +0.025 C 
ATOM      5  C   UNL     1       6.839  -4.358  24.239  0.00  0.00    +0.044 C 
ATOM      6  C   UNL     1       6.032  -3.072  24.462  0.00  0.00    +0.025 C 
ATOM      7  C   UNL     1       6.929  -1.998  25.069  0.00  0.00    +0.085 C 
BRANCH   5   8
ATOM      8  C   UNL     1       7.071  -5.017  25.577  0.00  0.00    +0.094 A 
ATOM      9  C   UNL     1       6.091  -5.743  26.316  0.00  0.00    +0.045 A 
ATOM     10  C   UNL     1       4.804  -6.260  26.081  0.00  0.00    +0.016 A 
ATOM     11  C   UNL     1       4.091  -6.782  27.167  0.00  0.00    +0.039 A 
ATOM     12  C   UNL     1       4.641  -6.768  28.448  0.00  0.00    +0.127 A 
ATOM     13  C   UNL     1       5.921  -6.276  28.705  0.00  0.00    +0.088 A 
ATOM     14  F   UNL     1       3.909  -7.236  29.468  0.00  0.00    -0.205 F 
ATOM     15  C   UNL     1       6.609  -5.787  27.599  0.00  0.00    +0.170 A 
ATOM     16  O   UNL     1       7.858  -5.248  27.592  0.00  0.00    -0.354 OA
ATOM     17  N   UNL     1       8.160  -4.781  26.320  0.00  0.00    -0.082 NA
ENDBRANCH   5   8
ENDBRANCH   1   2
BRANCH   1  18
ATOM     18  C   UNL     1       8.644  -0.013  22.240  0.00  0.00    +0.058 C 
BRANCH  18  30
ATOM     19  C   UNL     1      10.868   0.761  24.371  0.00  0.00    +0.066 C 
ATOM     20  C   UNL     1       9.891   1.700  23.713  0.00  0.00    +0.049 A 
ATOM     21  N   UNL     1      10.071   2.985  24.154  0.00  0.00    -0.236 NA
ATOM     22  C   UNL     1       9.301   3.924  23.718  0.00  0.00    +0.141 A 
ATOM     23  N   UNL     1       8.261   3.700  22.848  0.00  0.00    -0.294 N 
ATOM     24  C   UNL     1       7.462   4.774  22.271  0.00  0.00    +0.127 C 
ATOM     25  C   UNL     1       7.510   6.085  23.034  0.00  0.00    +0.025 C 
ATOM     26  C   UNL     1       8.953   6.421  23.365  0.00  0.00    +0.041 C 
ATOM     27  C   UNL     1       8.070   2.443  22.310  0.00  0.00    +0.258 A 
ATOM     28  O   UNL     1       7.212   2.200  21.460  0.00  0.00    -0.267 OA
ATOM     29  C   UNL     1       9.529   5.340  24.265  0.00  0.00    +0.180 C 
ATOM     30  C   UNL     1       8.964   1.356  22.799  0.00  0.00    +0.039 A 
BRANCH  29  31
ATOM     31  O   UNL     1       8.997   5.490  25.578  0.00  0.00    -0.384 OA
ATOM     32  H   UNL     1       9.083   4.639  26.041  0.00  0.00    +0.210 HD
ENDBRANCH  29  31
ENDBRANCH  18  30
ENDBRANCH   1  18
TORSDOF 5
ENDMDL
MODEL 5
REMARK VINA RESULT:      -7.9      3.581      9.115
REMARK  Name = 
REMARK  6 active torsions:
REMARK  status: ('A' for Active; 'I' for Inactive)
REMARK    1  A    between atoms: C_1  and  C_2
REMARK    2  A    between atoms: C_3  and  C_4
REMARK    3  A    between atoms: C_4  and  C_5
REMARK    4  A    between atoms: C_5  and  N_6
REMARK    5  A    between atoms: C_9  and  C_12
REMARK    6  A    between atoms: C_28  and  O_29
REMARK                            x       y       z     vdW  Elec       q    Type
REMARK                         _______ _______ _______ _____ _____    ______ ____
ROOT
ATOM      1  C   UNL     1       9.786  -1.866  23.008  0.00  0.00    +0.089 C 
ENDROOT
BRANCH   1   2
ATOM      2  N   UNL     1       8.448  -2.012  23.607  0.00  0.00    -0.302 NA
ATOM      3  C   UNL     1       8.386  -3.050  24.659  0.00  0.00    +0.085 C 
ATOM      4  C   UNL     1       8.173  -4.504  24.187  0.00  0.00    +0.025 C 
ATOM      5  C   UNL     1       7.170  -4.680  23.035  0.00  0.00    +0.044 C 
ATOM      6  C   UNL     1       7.428  -3.594  21.981  0.00  0.00    +0.025 C 
ATOM      7  C   UNL     1       7.374  -2.217  22.635  0.00  0.00    +0.085 C 
BRANCH   5   8
ATOM      8  C   UNL     1       5.701  -4.675  23.379  0.00  0.00    +0.094 A 
ATOM      9  C   UNL     1       5.117  -5.328  24.503  0.00  0.00    +0.045 A 
ATOM     10  C   UNL     1       5.574  -5.952  25.679  0.00  0.00    +0.016 A 
ATOM     11  C   UNL     1       4.646  -6.641  26.468  0.00  0.00    +0.039 A 
ATOM     12  C   UNL     1       3.308  -6.721  26.082  0.00  0.00    +0.127 A 
ATOM     13  C   UNL     1       2.827  -6.099  24.929  0.00  0.00    +0.088 A 
ATOM     14  F   UNL     1       2.459  -7.428  26.840  0.00  0.00    -0.205 F 
ATOM     15  C   UNL     1       3.773  -5.404  24.182  0.00  0.00    +0.170 A 
ATOM     16  O   UNL     1       3.554  -4.728  23.022  0.00  0.00    -0.354 OA
ATOM     17  N   UNL     1       4.760  -4.251  22.523  0.00  0.00    -0.082 NA
ENDBRANCH   5   8
ENDBRANCH   1   2
BRANCH   1  18
ATOM     18  C   UNL     1       9.978  -0.623  22.094  0.00  0.00    +0.058 C 
BRANCH  18  30
ATOM     19  C   UNL     1      11.251   0.548  24.758  0.00  0.00    +0.066 C 
ATOM     20  C   UNL     1      10.206   1.208  23.898  0.00  0.00    +0.049 A 
ATOM     21  N   UNL     1       9.842   2.425  24.413  0.00  0.00    -0.236 NA
ATOM     22  C   UNL     1       8.933   3.124  23.822  0.00  0.00    +0.141 A 
ATOM     23  N   UNL     1       8.262   2.692  22.704  0.00  0.00    -0.294 N 
ATOM     24  C   UNL     1       7.316   3.525  21.973  0.00  0.00    +0.127 C 
ATOM     25  C   UNL     1       6.747   4.688  22.764  0.00  0.00    +0.025 C 
ATOM     26  C   UNL     1       7.877   5.414  23.473  0.00  0.00    +0.041 C 
ATOM     27  C   UNL     1       8.629   1.509  22.093  0.00  0.00    +0.258 A 
ATOM     28  O   UNL     1       8.126   1.112  21.040  0.00  0.00    -0.267 OA
ATOM     29  C   UNL     1       8.545   4.468  24.456  0.00  0.00    +0.180 C 
ATOM     30  C   UNL     1       9.688   0.703  22.763  0.00  0.00    +0.039 A 
BRANCH  29  31
ATOM     31  O   UNL     1       7.699   4.291  25.588  0.00  0.00    -0.384 OA
ATOM     32  H   UNL     1       6.783   4.200  25.274  0.00  0.00    +0.210 HD
ENDBRANCH  29  31
ENDBRANCH  18  30
ENDBRANCH   1  18
TORSDOF 5
ENDMDL
MODEL 6
REMARK VINA RESULT:      -7.9      1.813      2.958
REMARK  Name = 
REMARK  6 active torsions:
REMARK  status: ('A' for Active; 'I' for Inactive)
REMARK    1  A    between atoms: C_1  and  C_2
REMARK    2  A    between atoms: C_3  and  C_4
REMARK    3  A    between atoms: C_4  and  C_5
REMARK    4  A    between atoms: C_5  and  N_6
REMARK    5  A    between atoms: C_9  and  C_12
REMARK    6  A    between atoms: C_28  and  O_29
REMARK                            x       y       z     vdW  Elec       q    Type
REMARK                         _______ _______ _______ _____ _____    ______ ____
ROOT
ATOM      1  C   UNL     1       8.329  -4.027  23.995  0.00  0.00    +0.089 C 
ENDROOT
BRANCH   1   2
ATOM      2  N   UNL     1       9.059  -2.793  24.336  0.00  0.00    -0.302 NA
ATOM      3  C   UNL     1       8.220  -1.783  25.016  0.00  0.00    +0.085 C 
ATOM      4  C   UNL     1       7.376  -0.860  24.112  0.00  0.00    +0.025 C 
ATOM      5  C   UNL     1       8.078  -0.373  22.834  0.00  0.00    +0.044 C 
ATOM      6  C   UNL     1       8.819  -1.555  22.192  0.00  0.00    +0.025 C 
ATOM      7  C   UNL     1       9.766  -2.183  23.209  0.00  0.00    +0.085 C 
BRANCH   5   8
ATOM      8  C   UNL     1       9.039   0.784  22.959  0.00  0.00    +0.094 A 
ATOM      9  C   UNL     1       8.875   1.897  23.834  0.00  0.00    +0.045 A 
ATOM     10  C   UNL     1       8.039   2.240  24.913  0.00  0.00    +0.016 A 
ATOM     11  C   UNL     1       8.097   3.549  25.406  0.00  0.00    +0.039 A 
ATOM     12  C   UNL     1       8.949   4.488  24.826  0.00  0.00    +0.127 A 
ATOM     13  C   UNL     1       9.799   4.169  23.766  0.00  0.00    +0.088 A 
ATOM     14  F   UNL     1       8.943   5.742  25.298  0.00  0.00    -0.205 F 
ATOM     15  C   UNL     1       9.731   2.854  23.317  0.00  0.00    +0.170 A 
ATOM     16  O   UNL     1      10.446   2.306  22.298  0.00  0.00    -0.354 OA
ATOM     17  N   UNL     1      10.029   0.999  22.082  0.00  0.00    -0.082 NA
ENDBRANCH   5   8
ENDBRANCH   1   2
BRANCH   1  18
ATOM     18  C   UNL     1       7.215  -4.443  24.996  0.00  0.00    +0.058 C 
BRANCH  18  30
ATOM     19  C   UNL     1       5.856  -3.447  22.304  0.00  0.00    +0.066 C 
ATOM     20  C   UNL     1       5.344  -4.526  23.221  0.00  0.00    +0.049 A 
ATOM     21  N   UNL     1       4.173  -5.058  22.749  0.00  0.00    -0.236 NA
ATOM     22  C   UNL     1       3.571  -5.979  23.422  0.00  0.00    +0.141 A 
ATOM     23  N   UNL     1       4.025  -6.442  24.633  0.00  0.00    -0.294 N 
ATOM     24  C   UNL     1       3.409  -7.557  25.341  0.00  0.00    +0.127 C 
ATOM     25  C   UNL     1       1.980  -7.862  24.930  0.00  0.00    +0.025 C 
ATOM     26  C   UNL     1       1.888  -7.889  23.414  0.00  0.00    +0.041 C 
ATOM     27  C   UNL     1       5.236  -6.002  25.131  0.00  0.00    +0.258 A 
ATOM     28  O   UNL     1       5.737  -6.443  26.166  0.00  0.00    -0.267 OA
ATOM     29  C   UNL     1       2.249  -6.521  22.861  0.00  0.00    +0.180 C 
ATOM     30  C   UNL     1       5.942  -4.946  24.351  0.00  0.00    +0.039 A 
BRANCH  29  31
ATOM     31  O   UNL     1       1.169  -5.620  23.096  0.00  0.00    -0.384 OA
ATOM     32  H   UNL     1       0.970  -5.159  22.263  0.00  0.00    +0.210 HD
ENDBRANCH  29  31
ENDBRANCH  18  30
ENDBRANCH   1  18
TORSDOF 5
ENDMDL
MODEL 7
REMARK VINA RESULT:      -7.7      3.430      9.786
REMARK  Name = 
REMARK  6 active torsions:
REMARK  status: ('A' for Active; 'I' for Inactive)
REMARK    1  A    between atoms: C_1  and  C_2
REMARK    2  A    between atoms: C_3  and  C_4
REMARK    3  A    between atoms: C_4  and  C_5
REMARK    4  A    between atoms: C_5  and  N_6
REMARK    5  A    between atoms: C_9  and  C_12
REMARK    6  A    between atoms: C_28  and  O_29
REMARK                            x       y       z     vdW  Elec       q    Type
REMARK                         _______ _______ _______ _____ _____    ______ ____
ROOT
ATOM      1  C   UNL     1       9.449  -0.614  24.684  0.00  0.00    +0.089 C 
ENDROOT
BRANCH   1   2
ATOM      2  N   UNL     1       8.185  -1.269  25.064  0.00  0.00    -0.302 NA
ATOM      3  C   UNL     1       8.271  -2.021  26.334  0.00  0.00    +0.085 C 
ATOM      4  C   UNL     1       8.822  -3.461  26.252  0.00  0.00    +0.025 C 
ATOM      5  C   UNL     1       8.345  -4.277  25.039  0.00  0.00    +0.044 C 
ATOM      6  C   UNL     1       8.409  -3.392  23.787  0.00  0.00    +0.025 C 
ATOM      7  C   UNL     1       7.608  -2.114  24.017  0.00  0.00    +0.085 C 
BRANCH   5   8
ATOM      8  C   UNL     1       6.975  -4.905  25.112  0.00  0.00    +0.094 A 
ATOM      9  C   UNL     1       6.316  -5.302  26.312  0.00  0.00    +0.045 A 
ATOM     10  C   UNL     1       6.504  -5.120  27.695  0.00  0.00    +0.016 A 
ATOM     11  C   UNL     1       5.692  -5.844  28.576  0.00  0.00    +0.039 A 
ATOM     12  C   UNL     1       4.738  -6.737  28.089  0.00  0.00    +0.127 A 
ATOM     13  C   UNL     1       4.522  -6.925  26.723  0.00  0.00    +0.088 A 
ATOM     14  F   UNL     1       4.012  -7.446  28.964  0.00  0.00    -0.205 F 
ATOM     15  C   UNL     1       5.330  -6.171  25.878  0.00  0.00    +0.170 A 
ATOM     16  O   UNL     1       5.317  -6.184  24.518  0.00  0.00    -0.354 OA
ATOM     17  N   UNL     1       6.337  -5.375  24.032  0.00  0.00    -0.082 NA
ENDBRANCH   5   8
ENDBRANCH   1   2
BRANCH   1  18
ATOM     18  C   UNL     1       9.467   0.039  23.274  0.00  0.00    +0.058 C 
BRANCH  18  30
ATOM     19  C   UNL     1       6.580   1.113  22.501  0.00  0.00    +0.066 C 
ATOM     20  C   UNL     1       7.770   1.946  22.896  0.00  0.00    +0.049 A 
ATOM     21  N   UNL     1       7.462   3.281  22.884  0.00  0.00    -0.236 NA
ATOM     22  C   UNL     1       8.371   4.151  23.168  0.00  0.00    +0.141 A 
ATOM     23  N   UNL     1       9.673   3.811  23.450  0.00  0.00    -0.294 N 
ATOM     24  C   UNL     1      10.672   4.781  23.879  0.00  0.00    +0.127 C 
ATOM     25  C   UNL     1      10.350   6.224  23.535  0.00  0.00    +0.025 C 
ATOM     26  C   UNL     1       8.911   6.522  23.920  0.00  0.00    +0.041 C 
ATOM     27  C   UNL     1      10.033   2.482  23.550  0.00  0.00    +0.258 A 
ATOM     28  O   UNL     1      11.161   2.115  23.885  0.00  0.00    -0.267 OA
ATOM     29  C   UNL     1       7.979   5.634  23.114  0.00  0.00    +0.180 C 
ATOM     30  C   UNL     1       8.984   1.472  23.235  0.00  0.00    +0.039 A 
BRANCH  29  31
ATOM     31  O   UNL     1       7.916   6.113  21.773  0.00  0.00    -0.384 OA
ATOM     32  H   UNL     1       7.312   6.875  21.749  0.00  0.00    +0.210 HD
ENDBRANCH  29  31
ENDBRANCH  18  30
ENDBRANCH   1  18
TORSDOF 5
ENDMDL
MODEL 8
REMARK VINA RESULT:      -7.7      1.925      3.147
REMARK  Name = 
REMARK  6 active torsions:
REMARK  status: ('A' for Active; 'I' for Inactive)
REMARK    1  A    between atoms: C_1  and  C_2
REMARK    2  A    between atoms: C_3  and  C_4
REMARK    3  A    between atoms: C_4  and  C_5
REMARK    4  A    between atoms: C_5  and  N_6
REMARK    5  A    between atoms: C_9  and  C_12
REMARK    6  A    between atoms: C_28  and  O_29
REMARK                            x       y       z     vdW  Elec       q    Type
REMARK                         _______ _______ _______ _____ _____    ______ ____
ROOT
ATOM      1  C   UNL     1       7.877  -4.731  26.319  0.00  0.00    +0.089 C 
ENDROOT
BRANCH   1   2
ATOM      2  N   UNL     1       8.785  -3.654  25.889  0.00  0.00    -0.302 NA
ATOM      3  C   UNL     1       8.254  -2.298  26.150  0.00  0.00    +0.085 C 
ATOM      4  C   UNL     1       7.295  -1.713  25.091  0.00  0.00    +0.025 C 
ATOM      5  C   UNL     1       7.681  -1.994  23.630  0.00  0.00    +0.044 C 
ATOM      6  C   UNL     1       8.112  -3.462  23.502  0.00  0.00    +0.025 C 
ATOM      7  C   UNL     1       9.228  -3.761  24.498  0.00  0.00    +0.085 C 
BRANCH   5   8
ATOM      8  C   UNL     1       8.747  -1.126  23.008  0.00  0.00    +0.094 A 
ATOM      9  C   UNL     1       9.106   0.181  23.451  0.00  0.00    +0.045 A 
ATOM     10  C   UNL     1       8.844   0.992  24.570  0.00  0.00    +0.016 A 
ATOM     11  C   UNL     1       9.269   2.326  24.536  0.00  0.00    +0.039 A 
ATOM     12  C   UNL     1       9.917   2.835  23.411  0.00  0.00    +0.127 A 
ATOM     13  C   UNL     1      10.202   2.047  22.295  0.00  0.00    +0.088 A 
ATOM     14  F   UNL     1      10.268   4.127  23.399  0.00  0.00    -0.205 F 
ATOM     15  C   UNL     1       9.785   0.722  22.374  0.00  0.00    +0.170 A 
ATOM     16  O   UNL     1       9.937  -0.235  21.418  0.00  0.00    -0.354 OA
ATOM     17  N   UNL     1       9.304  -1.404  21.821  0.00  0.00    -0.082 NA
ENDBRANCH   5   8
ENDBRANCH   1   2
BRANCH   1  18
ATOM     18  C   UNL     1       6.498  -4.265  26.864  0.00  0.00    +0.058 C 
BRANCH  18  30
ATOM     19  C   UNL     1       5.556  -6.716  28.651  0.00  0.00    +0.066 C 
ATOM     20  C   UNL     1       4.956  -6.278  27.341  0.00  0.00    +0.049 A 
ATOM     21  N   UNL     1       3.910  -7.089  26.984  0.00  0.00    -0.236 NA
ATOM     22  C   UNL     1       3.290  -6.881  25.872  0.00  0.00    +0.141 A 
ATOM     23  N   UNL     1       3.650  -5.896  24.984  0.00  0.00    -0.294 N 
ATOM     24  C   UNL     1       2.885  -5.590  23.782  0.00  0.00    +0.127 C 
ATOM     25  C   UNL     1       1.969  -6.703  23.308  0.00  0.00    +0.025 C 
ATOM     26  C   UNL     1       1.183  -7.244  24.490  0.00  0.00    +0.041 C 
ATOM     27  C   UNL     1       4.647  -4.999  25.315  0.00  0.00    +0.258 A 
ATOM     28  O   UNL     1       4.955  -4.043  24.601  0.00  0.00    -0.267 OA
ATOM     29  C   UNL     1       2.145  -7.835  25.507  0.00  0.00    +0.180 C 
ATOM     30  C   UNL     1       5.359  -5.226  26.604  0.00  0.00    +0.039 A 
BRANCH  29  31
ATOM     31  O   UNL     1       2.633  -9.084  25.022  0.00  0.00    -0.384 OA
ATOM     32  H   UNL     1       2.412  -9.152  24.078  0.00  0.00    +0.210 HD
ENDBRANCH  29  31
ENDBRANCH  18  30
ENDBRANCH   1  18
TORSDOF 5
ENDMDL
MODEL 9
REMARK VINA RESULT:      -7.7      3.725      9.260
REMARK  Name = 
REMARK  6 active torsions:
REMARK  status: ('A' for Active; 'I' for Inactive)
REMARK    1  A    between atoms: C_1  and  C_2
REMARK    2  A    between atoms: C_3  and  C_4
REMARK    3  A    between atoms: C_4  and  C_5
REMARK    4  A    between atoms: C_5  and  N_6
REMARK    5  A    between atoms: C_9  and  C_12
REMARK    6  A    between atoms: C_28  and  O_29
REMARK                            x       y       z     vdW  Elec       q    Type
REMARK                         _______ _______ _______ _____ _____    ______ ____
ROOT
ATOM      1  C   UNL     1       9.399  -1.929  24.057  0.00  0.00    +0.089 C 
ENDROOT
BRANCH   1   2
ATOM      2  N   UNL     1       7.994  -2.251  24.358  0.00  0.00    -0.302 NA
ATOM      3  C   UNL     1       7.839  -3.383  25.297  0.00  0.00    +0.085 C 
ATOM      4  C   UNL     1       7.881  -4.801  24.688  0.00  0.00    +0.025 C 
ATOM      5  C   UNL     1       7.149  -4.960  23.346  0.00  0.00    +0.044 C 
ATOM      6  C   UNL     1       7.489  -3.763  22.448  0.00  0.00    +0.025 C 
ATOM      7  C   UNL     1       7.159  -2.463  23.174  0.00  0.00    +0.085 C 
BRANCH   5   8
ATOM      8  C   UNL     1       5.649  -5.121  23.381  0.00  0.00    +0.094 A 
ATOM      9  C   UNL     1       4.914  -5.750  24.429  0.00  0.00    +0.045 A 
ATOM     10  C   UNL     1       5.175  -6.206  25.734  0.00  0.00    +0.016 A 
ATOM     11  C   UNL     1       4.182  -6.944  26.389  0.00  0.00    +0.039 A 
ATOM     12  C   UNL     1       2.976  -7.233  25.751  0.00  0.00    +0.127 A 
ATOM     13  C   UNL     1       2.687  -6.779  24.464  0.00  0.00    +0.088 A 
ATOM     14  F   UNL     1       2.069  -7.980  26.394  0.00  0.00    -0.205 F 
ATOM     15  C   UNL     1       3.687  -6.030  23.852  0.00  0.00    +0.170 A 
ATOM     16  O   UNL     1       3.649  -5.489  22.605  0.00  0.00    -0.354 OA
ATOM     17  N   UNL     1       4.872  -4.900  22.312  0.00  0.00    -0.082 NA
ENDBRANCH   5   8
ENDBRANCH   1   2
BRANCH   1  18
ATOM     18  C   UNL     1       9.833  -0.469  24.370  0.00  0.00    +0.058 C 
BRANCH  18  30
ATOM     19  C   UNL     1       9.477   0.102  21.267  0.00  0.00    +0.066 C 
ATOM     20  C   UNL     1       8.837   0.863  22.398  0.00  0.00    +0.049 A 
ATOM     21  N   UNL     1       8.048   1.879  21.923  0.00  0.00    -0.236 NA
ATOM     22  C   UNL     1       7.440   2.658  22.752  0.00  0.00    +0.141 A 
ATOM     23  N   UNL     1       7.572   2.553  24.116  0.00  0.00    -0.294 N 
ATOM     24  C   UNL     1       6.802   3.359  25.054  0.00  0.00    +0.127 C 
ATOM     25  C   UNL     1       6.220   4.634  24.471  0.00  0.00    +0.025 C 
ATOM     26  C   UNL     1       5.552   4.319  23.144  0.00  0.00    +0.041 C 
ATOM     27  C   UNL     1       8.294   1.509  24.662  0.00  0.00    +0.258 A 
ATOM     28  O   UNL     1       8.375   1.310  25.875  0.00  0.00    -0.267 OA
ATOM     29  C   UNL     1       6.591   3.795  22.168  0.00  0.00    +0.180 C 
ATOM     30  C   UNL     1       8.988   0.597  23.708  0.00  0.00    +0.039 A 
BRANCH  29  31
ATOM     31  O   UNL     1       7.400   4.878  21.716  0.00  0.00    -0.384 OA
ATOM     32  H   UNL     1       7.449   4.839  20.746  0.00  0.00    +0.210 HD
ENDBRANCH  29  31
ENDBRANCH  18  30
ENDBRANCH   1  18
TORSDOF 5
ENDMDL
