MODEL 1
REMARK VINA RESULT:      -8.2      0.000      0.000
REMARK  Name = 
REMARK  4 active torsions:
REMARK  status: ('A' for Active; 'I' for Inactive)
REMARK    1  A    between atoms: C_2  and  C_6
REMARK    2  A    between atoms: C_11  and  C_15
REMARK    3  A    between atoms: C_19  and  O_20
REMARK    4  A    between atoms: O_20  and  C_21
REMARK                            x       y       z     vdW  Elec       q    Type
REMARK                         _______ _______ _______ _____ _____    ______ ____
ROOT
ATOM      1  C   UNL     1       6.212  -5.663  26.101  0.00  0.00    +0.063 A 
ATOM      2  C   UNL     1       6.124  -4.807  24.980  0.00  0.00    +0.045 A 
ATOM      3  C   UNL     1       7.151  -3.874  24.736  0.00  0.00    +0.090 A 
ATOM      4  C   UNL     1       8.229  -3.835  25.604  0.00  0.00    +0.067 A 
ATOM      5  N   UNL     1       9.015  -2.843  25.103  0.00  0.00    -0.338 N 
ATOM      6  H   UNL     1       9.886  -2.447  25.462  0.00  0.00    +0.167 HD
ATOM      7  C   UNL     1       8.406  -2.286  24.000  0.00  0.00    +0.139 A 
ATOM      8  C   UNL     1       8.365  -4.652  26.722  0.00  0.00    +0.028 A 
ATOM      9  N   UNL     1       7.274  -2.938  23.740  0.00  0.00    -0.228 NA
ATOM     10  C   UNL     1       7.329  -5.562  26.956  0.00  0.00    +0.018 A 
ENDROOT
BRANCH   1  14
ATOM     11  N   UNL     1       4.308  -6.992  25.430  0.00  0.00    -0.250 N 
ATOM     12  H   UNL     1       4.357  -6.538  24.525  0.00  0.00    +0.288 HD
ATOM     13  H   UNL     1       3.579  -7.676  25.567  0.00  0.00    +0.288 HD
ATOM     14  C   UNL     1       5.155  -6.653  26.382  0.00  0.00    +0.266 C 
ATOM     15  N   UNL     1       5.063  -7.208  27.569  0.00  0.00    -0.288 N 
ATOM     16  H   UNL     1       4.355  -7.886  27.808  0.00  0.00    +0.301 HD
ATOM     17  H   UNL     1       5.737  -6.967  28.291  0.00  0.00    +0.301 HD
ENDBRANCH   1  14
BRANCH   7  18
ATOM     18  C   UNL     1       9.004  -1.095  23.341  0.00  0.00    +0.013 A 
ATOM     19  C   UNL     1       9.620  -0.035  24.120  0.00  0.00    -0.054 A 
ATOM     20  O   UNL     1       9.786  -0.106  25.397  0.00  0.00    -0.871 OA
ATOM     21  C   UNL     1      10.011   1.113  23.360  0.00  0.00    +0.114 A 
ATOM     22  C   UNL     1       9.923   1.146  21.957  0.00  0.00    +0.045 A 
ATOM     23  C   UNL     1       9.378   0.085  21.248  0.00  0.00    +0.004 A 
ATOM     24  C   UNL     1       8.904  -1.019  21.940  0.00  0.00    +0.011 A 
BRANCH  21  25
ATOM     25  O   UNL     1      10.535   2.200  24.050  0.00  0.00    -0.489 OA
BRANCH  25  26
ATOM     26  C   UNL     1      10.436   3.458  23.382  0.00  0.00    +0.173 C 
ATOM     27  C   UNL     1      11.793   4.177  23.344  0.00  0.00    +0.044 C 
ATOM     28  C   UNL     1      11.540   5.633  23.725  0.00  0.00    +0.004 C 
ATOM     29  C   UNL     1      10.030   5.792  23.738  0.00  0.00    +0.004 C 
ATOM     30  C   UNL     1       9.537   4.419  24.167  0.00  0.00    +0.044 C 
ENDBRANCH  25  26
ENDBRANCH  21  25
ENDBRANCH   7  18
TORSDOF 4
ENDMDL
MODEL 2
REMARK VINA RESULT:      -7.7      3.573      9.038
REMARK  Name = 
REMARK  4 active torsions:
REMARK  status: ('A' for Active; 'I' for Inactive)
REMARK    1  A    between atoms: C_2  and  C_6
REMARK    2  A    between atoms: C_11  and  C_15
REMARK    3  A    between atoms: C_19  and  O_20
REMARK    4  A    between atoms: O_20  and  C_21
REMARK                            x       y       z     vdW  Elec       q    Type
REMARK                         _______ _______ _______ _____ _____    ______ ____
ROOT
ATOM      1  C   UNL     1      11.172   4.330  23.569  0.00  0.00    +0.063 A 
ATOM      2  C   UNL     1      11.539   2.965  23.565  0.00  0.00    +0.045 A 
ATOM      3  C   UNL     1      10.598   1.991  23.950  0.00  0.00    +0.090 A 
ATOM      4  C   UNL     1       9.327   2.407  24.313  0.00  0.00    +0.067 A 
ATOM      5  N   UNL     1       8.685   1.250  24.631  0.00  0.00    -0.338 N 
ATOM      6  H   UNL     1       7.743   1.097  24.997  0.00  0.00    +0.167 HD
ATOM      7  C   UNL     1       9.554   0.190  24.501  0.00  0.00    +0.139 A 
ATOM      8  C   UNL     1       8.914   3.735  24.337  0.00  0.00    +0.028 A 
ATOM      9  N   UNL     1      10.726   0.629  24.045  0.00  0.00    -0.228 NA
ATOM     10  C   UNL     1       9.867   4.688  23.964  0.00  0.00    +0.018 A 
ENDROOT
BRANCH   1  14
ATOM     11  N   UNL     1      12.559   6.248  24.058  0.00  0.00    -0.250 N 
ATOM     12  H   UNL     1      12.188   6.229  25.002  0.00  0.00    +0.288 HD
ATOM     13  H   UNL     1      13.230   6.969  23.837  0.00  0.00    +0.288 HD
ATOM     14  C   UNL     1      12.135   5.373  23.167  0.00  0.00    +0.266 C 
ATOM     15  N   UNL     1      12.581   5.425  21.933  0.00  0.00    -0.288 N 
ATOM     16  H   UNL     1      13.236   6.122  21.612  0.00  0.00    +0.301 HD
ATOM     17  H   UNL     1      12.275   4.731  21.257  0.00  0.00    +0.301 HD
ENDBRANCH   1  14
BRANCH   7  18
ATOM     18  C   UNL     1       9.131  -1.175  24.912  0.00  0.00    +0.013 A 
ATOM     19  C   UNL     1       9.223  -2.299  23.996  0.00  0.00    -0.054 A 
ATOM     20  O   UNL     1       9.767  -2.213  22.830  0.00  0.00    -0.871 OA
ATOM     21  C   UNL     1       8.638  -3.512  24.480  0.00  0.00    +0.114 A 
ATOM     22  C   UNL     1       8.137  -3.630  25.789  0.00  0.00    +0.045 A 
ATOM     23  C   UNL     1       8.120  -2.543  26.651  0.00  0.00    +0.004 A 
ATOM     24  C   UNL     1       8.597  -1.319  26.206  0.00  0.00    +0.011 A 
BRANCH  21  25
ATOM     25  O   UNL     1       8.617  -4.607  23.626  0.00  0.00    -0.489 OA
BRANCH  25  26
ATOM     26  C   UNL     1       7.329  -5.173  23.381  0.00  0.00    +0.173 C 
ATOM     27  C   UNL     1       7.348  -6.090  22.148  0.00  0.00    +0.044 C 
ATOM     28  C   UNL     1       6.113  -5.752  21.318  0.00  0.00    +0.004 C 
ATOM     29  C   UNL     1       5.278  -4.831  22.192  0.00  0.00    +0.004 C 
ATOM     30  C   UNL     1       6.319  -4.082  23.008  0.00  0.00    +0.044 C 
ENDBRANCH  25  26
ENDBRANCH  21  25
ENDBRANCH   7  18
TORSDOF 4
ENDMDL
MODEL 3
REMARK VINA RESULT:      -7.6      3.229      9.015
REMARK  Name = 
REMARK  4 active torsions:
REMARK  status: ('A' for Active; 'I' for Inactive)
REMARK    1  A    between atoms: C_2  and  C_6
REMARK    2  A    between atoms: C_11  and  C_15
REMARK    3  A    between atoms: C_19  and  O_20
REMARK    4  A    between atoms: O_20  and  C_21
REMARK                            x       y       z     vdW  Elec       q    Type
REMARK                         _______ _______ _______ _____ _____    ______ ____
ROOT
ATOM      1  C   UNL     1      10.139   2.341  23.346  0.00  0.00    +0.063 A 
ATOM      2  C   UNL     1       9.801   1.561  24.475  0.00  0.00    +0.045 A 
ATOM      3  C   UNL     1       9.460   0.205  24.306  0.00  0.00    +0.090 A 
ATOM      4  C   UNL     1       9.478  -0.326  23.028  0.00  0.00    +0.067 A 
ATOM      5  N   UNL     1       9.099  -1.621  23.209  0.00  0.00    -0.338 N 
ATOM      6  H   UNL     1       8.931  -2.362  22.524  0.00  0.00    +0.167 HD
ATOM      7  C   UNL     1       8.826  -1.840  24.540  0.00  0.00    +0.139 A 
ATOM      8  C   UNL     1       9.799   0.395  21.883  0.00  0.00    +0.028 A 
ATOM      9  N   UNL     1       9.082  -0.731  25.234  0.00  0.00    -0.228 NA
ATOM     10  C   UNL     1      10.122   1.743  22.069  0.00  0.00    +0.018 A 
ENDROOT
BRANCH   1  14
ATOM     11  N   UNL     1      11.664   4.189  23.033  0.00  0.00    -0.250 N 
ATOM     12  H   UNL     1      12.320   3.531  22.627  0.00  0.00    +0.288 HD
ATOM     13  H   UNL     1      11.953   5.155  23.092  0.00  0.00    +0.288 HD
ATOM     14  C   UNL     1      10.504   3.763  23.490  0.00  0.00    +0.266 C 
ATOM     15  N   UNL     1       9.672   4.608  24.058  0.00  0.00    -0.288 N 
ATOM     16  H   UNL     1       9.881   5.588  24.182  0.00  0.00    +0.301 HD
ATOM     17  H   UNL     1       8.766   4.282  24.381  0.00  0.00    +0.301 HD
ENDBRANCH   1  14
BRANCH   7  18
ATOM     18  C   UNL     1       8.270  -3.146  24.983  0.00  0.00    +0.013 A 
ATOM     19  C   UNL     1       7.405  -3.927  24.116  0.00  0.00    -0.054 A 
ATOM     20  O   UNL     1       7.156  -3.602  22.893  0.00  0.00    -0.871 OA
ATOM     21  C   UNL     1       6.826  -5.080  24.735  0.00  0.00    +0.114 A 
ATOM     22  C   UNL     1       7.178  -5.487  26.035  0.00  0.00    +0.045 A 
ATOM     23  C   UNL     1       8.053  -4.739  26.808  0.00  0.00    +0.004 A 
ATOM     24  C   UNL     1       8.579  -3.565  26.290  0.00  0.00    +0.011 A 
BRANCH  21  25
ATOM     25  O   UNL     1       5.924  -5.831  23.991  0.00  0.00    -0.489 OA
BRANCH  25  26
ATOM     26  C   UNL     1       4.553  -5.690  24.361  0.00  0.00    +0.173 C 
ATOM     27  C   UNL     1       3.846  -7.054  24.411  0.00  0.00    +0.044 C 
ATOM     28  C   UNL     1       2.503  -6.889  23.704  0.00  0.00    +0.004 C 
ATOM     29  C   UNL     1       2.346  -5.396  23.475  0.00  0.00    +0.004 C 
ATOM     30  C   UNL     1       3.778  -4.917  23.289  0.00  0.00    +0.044 C 
ENDBRANCH  25  26
ENDBRANCH  21  25
ENDBRANCH   7  18
TORSDOF 4
ENDMDL
MODEL 4
REMARK VINA RESULT:      -7.2      3.550      9.399
REMARK  Name = 
REMARK  4 active torsions:
REMARK  status: ('A' for Active; 'I' for Inactive)
REMARK    1  A    between atoms: C_2  and  C_6
REMARK    2  A    between atoms: C_11  and  C_15
REMARK    3  A    between atoms: C_19  and  O_20
REMARK    4  A    between atoms: O_20  and  C_21
REMARK                            x       y       z     vdW  Elec       q    Type
REMARK                         _______ _______ _______ _____ _____    ______ ____
ROOT
ATOM      1  C   UNL     1       9.048   0.697  22.505  0.00  0.00    +0.063 A 
ATOM      2  C   UNL     1       8.219   0.280  23.572  0.00  0.00    +0.045 A 
ATOM      3  C   UNL     1       8.029  -1.094  23.809  0.00  0.00    +0.090 A 
ATOM      4  C   UNL     1       8.675  -2.002  22.986  0.00  0.00    +0.067 A 
ATOM      5  N   UNL     1       8.280  -3.214  23.466  0.00  0.00    -0.338 N 
ATOM      6  H   UNL     1       8.480  -4.156  23.123  0.00  0.00    +0.167 HD
ATOM      7  C   UNL     1       7.400  -3.032  24.508  0.00  0.00    +0.139 A 
ATOM      8  C   UNL     1       9.498  -1.649  21.923  0.00  0.00    +0.028 A 
ATOM      9  N   UNL     1       7.266  -1.729  24.755  0.00  0.00    -0.228 NA
ATOM     10  C   UNL     1       9.665  -0.279  21.695  0.00  0.00    +0.018 A 
ENDROOT
BRANCH   1  14
ATOM     11  N   UNL     1       8.239   2.918  22.003  0.00  0.00    -0.250 N 
ATOM     12  H   UNL     1       7.303   2.529  21.965  0.00  0.00    +0.288 HD
ATOM     13  H   UNL     1       8.338   3.908  21.830  0.00  0.00    +0.288 HD
ATOM     14  C   UNL     1       9.270   2.130  22.235  0.00  0.00    +0.266 C 
ATOM     15  N   UNL     1      10.487   2.626  22.239  0.00  0.00    -0.288 N 
ATOM     16  H   UNL     1      10.687   3.598  22.055  0.00  0.00    +0.301 HD
ATOM     17  H   UNL     1      11.276   2.021  22.448  0.00  0.00    +0.301 HD
ENDBRANCH   1  14
BRANCH   7  18
ATOM     18  C   UNL     1       6.723  -4.203  25.125  0.00  0.00    +0.013 A 
ATOM     19  C   UNL     1       6.055  -5.201  24.309  0.00  0.00    -0.054 A 
ATOM     20  O   UNL     1       6.097  -5.199  23.020  0.00  0.00    -0.871 OA
ATOM     21  C   UNL     1       5.320  -6.182  25.049  0.00  0.00    +0.114 A 
ATOM     22  C   UNL     1       5.360  -6.243  26.453  0.00  0.00    +0.045 A 
ATOM     23  C   UNL     1       6.059  -5.300  27.192  0.00  0.00    +0.004 A 
ATOM     24  C   UNL     1       6.719  -4.275  26.530  0.00  0.00    +0.011 A 
BRANCH  21  25
ATOM     25  O   UNL     1       4.590  -7.122  24.332  0.00  0.00    -0.489 OA
BRANCH  25  26
ATOM     26  C   UNL     1       3.177  -6.915  24.307  0.00  0.00    +0.173 C 
ATOM     27  C   UNL     1       2.418  -8.250  24.290  0.00  0.00    +0.044 C 
ATOM     28  C   UNL     1       1.320  -8.128  23.237  0.00  0.00    +0.004 C 
ATOM     29  C   UNL     1       1.300  -6.662  22.840  0.00  0.00    +0.004 C 
ATOM     30  C   UNL     1       2.751  -6.236  23.001  0.00  0.00    +0.044 C 
ENDBRANCH  25  26
ENDBRANCH  21  25
ENDBRANCH   7  18
TORSDOF 4
ENDMDL
MODEL 5
REMARK VINA RESULT:      -7.1      2.481      2.961
REMARK  Name = 
REMARK  4 active torsions:
REMARK  status: ('A' for Active; 'I' for Inactive)
REMARK    1  A    between atoms: C_2  and  C_6
REMARK    2  A    between atoms: C_11  and  C_15
REMARK    3  A    between atoms: C_19  and  O_20
REMARK    4  A    between atoms: O_20  and  C_21
REMARK                            x       y       z     vdW  Elec       q    Type
REMARK                         _______ _______ _______ _____ _____    ______ ____
ROOT
ATOM      1  C   UNL     1       4.851  -5.194  23.059  0.00  0.00    +0.063 A 
ATOM      2  C   UNL     1       4.940  -3.896  23.610  0.00  0.00    +0.045 A 
ATOM      3  C   UNL     1       6.101  -3.128  23.395  0.00  0.00    +0.090 A 
ATOM      4  C   UNL     1       7.122  -3.673  22.634  0.00  0.00    +0.067 A 
ATOM      5  N   UNL     1       8.077  -2.702  22.629  0.00  0.00    -0.338 N 
ATOM      6  H   UNL     1       9.016  -2.703  22.227  0.00  0.00    +0.167 HD
ATOM      7  C   UNL     1       7.655  -1.637  23.393  0.00  0.00    +0.139 A 
ATOM      8  C   UNL     1       7.088  -4.944  22.071  0.00  0.00    +0.028 A 
ATOM      9  N   UNL     1       6.422  -1.871  23.840  0.00  0.00    -0.228 NA
ATOM     10  C   UNL     1       5.932  -5.696  22.306  0.00  0.00    +0.018 A 
ENDROOT
BRANCH   1  14
ATOM     11  N   UNL     1       3.768  -7.245  23.738  0.00  0.00    -0.250 N 
ATOM     12  H   UNL     1       4.689  -7.629  23.917  0.00  0.00    +0.288 HD
ATOM     13  H   UNL     1       2.973  -7.844  23.912  0.00  0.00    +0.288 HD
ATOM     14  C   UNL     1       3.647  -6.021  23.264  0.00  0.00    +0.266 C 
ATOM     15  N   UNL     1       2.455  -5.539  22.989  0.00  0.00    -0.288 N 
ATOM     16  H   UNL     1       1.605  -6.069  23.109  0.00  0.00    +0.301 HD
ATOM     17  H   UNL     1       2.364  -4.585  22.653  0.00  0.00    +0.301 HD
ENDBRANCH   1  14
BRANCH   7  18
ATOM     18  C   UNL     1       8.573  -0.496  23.651  0.00  0.00    +0.013 A 
ATOM     19  C   UNL     1       8.354   0.799  23.031  0.00  0.00    -0.054 A 
ATOM     20  O   UNL     1       7.314   1.073  22.320  0.00  0.00    -0.871 OA
ATOM     21  C   UNL     1       9.402   1.750  23.252  0.00  0.00    +0.114 A 
ATOM     22  C   UNL     1      10.484   1.484  24.110  0.00  0.00    +0.045 A 
ATOM     23  C   UNL     1      10.623   0.250  24.727  0.00  0.00    +0.004 A 
ATOM     24  C   UNL     1       9.682  -0.739  24.481  0.00  0.00    +0.011 A 
BRANCH  21  25
ATOM     25  O   UNL     1       9.300   2.985  22.623  0.00  0.00    -0.489 OA
BRANCH  25  26
ATOM     26  C   UNL     1       8.823   4.054  23.440  0.00  0.00    +0.173 C 
ATOM     27  C   UNL     1       7.766   4.891  22.702  0.00  0.00    +0.044 C 
ATOM     28  C   UNL     1       8.108   6.359  22.943  0.00  0.00    +0.004 C 
ATOM     29  C   UNL     1       9.195   6.352  24.004  0.00  0.00    +0.004 C 
ATOM     30  C   UNL     1       9.944   5.057  23.731  0.00  0.00    +0.044 C 
ENDBRANCH  25  26
ENDBRANCH  21  25
ENDBRANCH   7  18
TORSDOF 4
ENDMDL
MODEL 6
REMARK VINA RESULT:      -7.1      1.985      2.543
REMARK  Name = 
REMARK  4 active torsions:
REMARK  status: ('A' for Active; 'I' for Inactive)
REMARK    1  A    between atoms: C_2  and  C_6
REMARK    2  A    between atoms: C_11  and  C_15
REMARK    3  A    between atoms: C_19  and  O_20
REMARK    4  A    between atoms: O_20  and  C_21
REMARK                            x       y       z     vdW  Elec       q    Type
REMARK                         _______ _______ _______ _____ _____    ______ ____
ROOT
ATOM      1  C   UNL     1       5.734  -6.110  27.311  0.00  0.00    +0.063 A 
ATOM      2  C   UNL     1       6.681  -5.061  27.324  0.00  0.00    +0.045 A 
ATOM      3  C   UNL     1       6.881  -4.291  26.162  0.00  0.00    +0.090 A 
ATOM      4  C   UNL     1       6.127  -4.583  25.038  0.00  0.00    +0.067 A 
ATOM      5  N   UNL     1       6.562  -3.684  24.112  0.00  0.00    -0.338 N 
ATOM      6  H   UNL     1       6.309  -3.576  23.128  0.00  0.00    +0.167 HD
ATOM      7  C   UNL     1       7.566  -2.913  24.655  0.00  0.00    +0.139 A 
ATOM      8  C   UNL     1       5.185  -5.603  24.969  0.00  0.00    +0.028 A 
ATOM      9  N   UNL     1       7.746  -3.252  25.931  0.00  0.00    -0.228 NA
ATOM     10  C   UNL     1       5.009  -6.366  26.128  0.00  0.00    +0.018 A 
ENDROOT
BRANCH   1  14
ATOM     11  N   UNL     1       4.293  -7.408  28.753  0.00  0.00    -0.250 N 
ATOM     12  H   UNL     1       3.523  -7.169  28.137  0.00  0.00    +0.288 HD
ATOM     13  H   UNL     1       4.085  -7.990  29.552  0.00  0.00    +0.288 HD
ATOM     14  C   UNL     1       5.499  -6.933  28.512  0.00  0.00    +0.266 C 
ATOM     15  N   UNL     1       6.487  -7.205  29.334  0.00  0.00    -0.288 N 
ATOM     16  H   UNL     1       6.373  -7.759  30.170  0.00  0.00    +0.301 HD
ATOM     17  H   UNL     1       7.421  -6.862  29.129  0.00  0.00    +0.301 HD
ENDBRANCH   1  14
BRANCH   7  18
ATOM     18  C   UNL     1       8.298  -1.937  23.805  0.00  0.00    +0.013 A 
ATOM     19  C   UNL     1       7.685  -0.683  23.403  0.00  0.00    -0.054 A 
ATOM     20  O   UNL     1       6.535  -0.292  23.835  0.00  0.00    -0.871 OA
ATOM     21  C   UNL     1       8.451   0.080  22.464  0.00  0.00    +0.114 A 
ATOM     22  C   UNL     1       9.747  -0.299  22.074  0.00  0.00    +0.045 A 
ATOM     23  C   UNL     1      10.317  -1.479  22.528  0.00  0.00    +0.004 A 
ATOM     24  C   UNL     1       9.586  -2.301  23.373  0.00  0.00    +0.011 A 
BRANCH  21  25
ATOM     25  O   UNL     1       7.891   1.252  21.972  0.00  0.00    -0.489 OA
BRANCH  25  26
ATOM     26  C   UNL     1       8.539   2.459  22.374  0.00  0.00    +0.173 C 
ATOM     27  C   UNL     1       8.949   2.405  23.854  0.00  0.00    +0.044 C 
ATOM     28  C   UNL     1       8.550   3.739  24.480  0.00  0.00    +0.004 C 
ATOM     29  C   UNL     1       8.145   4.627  23.316  0.00  0.00    +0.004 C 
ATOM     30  C   UNL     1       7.569   3.644  22.309  0.00  0.00    +0.044 C 
ENDBRANCH  25  26
ENDBRANCH  21  25
ENDBRANCH   7  18
TORSDOF 4
ENDMDL
MODEL 7
REMARK VINA RESULT:      -7.1      3.039      9.008
REMARK  Name = 
REMARK  4 active torsions:
REMARK  status: ('A' for Active; 'I' for Inactive)
REMARK    1  A    between atoms: C_2  and  C_6
REMARK    2  A    between atoms: C_11  and  C_15
REMARK    3  A    between atoms: C_19  and  O_20
REMARK    4  A    between atoms: O_20  and  C_21
REMARK                            x       y       z     vdW  Elec       q    Type
REMARK                         _______ _______ _______ _____ _____    ______ ____
ROOT
ATOM      1  C   UNL     1      10.205   2.492  23.224  0.00  0.00    +0.063 A 
ATOM      2  C   UNL     1      10.034   1.745  24.412  0.00  0.00    +0.045 A 
ATOM      3  C   UNL     1       9.737   0.371  24.332  0.00  0.00    +0.090 A 
ATOM      4  C   UNL     1       9.632  -0.211  23.079  0.00  0.00    +0.067 A 
ATOM      5  N   UNL     1       9.334  -1.512  23.348  0.00  0.00    -0.338 N 
ATOM      6  H   UNL     1       9.123  -2.285  22.714  0.00  0.00    +0.167 HD
ATOM      7  C   UNL     1       9.226  -1.687  24.710  0.00  0.00    +0.139 A 
ATOM      8  C   UNL     1       9.788   0.476  21.880  0.00  0.00    +0.028 A 
ATOM      9  N   UNL     1       9.510  -0.542  25.330  0.00  0.00    -0.228 NA
ATOM     10  C   UNL     1      10.070   1.843  21.980  0.00  0.00    +0.018 A 
ENDROOT
BRANCH   1  14
ATOM     11  N   UNL     1      11.759   4.337  23.073  0.00  0.00    -0.250 N 
ATOM     12  H   UNL     1      12.496   3.656  22.929  0.00  0.00    +0.288 HD
ATOM     13  H   UNL     1      12.022   5.312  23.080  0.00  0.00    +0.288 HD
ATOM     14  C   UNL     1      10.521   3.932  23.275  0.00  0.00    +0.266 C 
ATOM     15  N   UNL     1       9.572   4.812  23.506  0.00  0.00    -0.288 N 
ATOM     16  H   UNL     1       9.742   5.806  23.554  0.00  0.00    +0.301 HD
ATOM     17  H   UNL     1       8.614   4.498  23.631  0.00  0.00    +0.301 HD
ENDBRANCH   1  14
BRANCH   7  18
ATOM     18  C   UNL     1       8.782  -2.995  25.260  0.00  0.00    +0.013 A 
ATOM     19  C   UNL     1       7.755  -3.071  26.284  0.00  0.00    -0.054 A 
ATOM     20  O   UNL     1       7.096  -2.042  26.696  0.00  0.00    -0.871 OA
ATOM     21  C   UNL     1       7.545  -4.381  26.822  0.00  0.00    +0.114 A 
ATOM     22  C   UNL     1       8.191  -5.515  26.300  0.00  0.00    +0.045 A 
ATOM     23  C   UNL     1       9.126  -5.403  25.281  0.00  0.00    +0.004 A 
ATOM     24  C   UNL     1       9.432  -4.147  24.780  0.00  0.00    +0.011 A 
BRANCH  21  25
ATOM     25  O   UNL     1       6.634  -4.516  27.862  0.00  0.00    -0.489 OA
BRANCH  25  26
ATOM     26  C   UNL     1       5.504  -5.345  27.587  0.00  0.00    +0.173 C 
ATOM     27  C   UNL     1       4.192  -4.554  27.701  0.00  0.00    +0.044 C 
ATOM     28  C   UNL     1       3.214  -5.419  28.492  0.00  0.00    +0.004 C 
ATOM     29  C   UNL     1       3.881  -6.779  28.611  0.00  0.00    +0.004 C 
ATOM     30  C   UNL     1       5.363  -6.440  28.648  0.00  0.00    +0.044 C 
ENDBRANCH  25  26
ENDBRANCH  21  25
ENDBRANCH   7  18
TORSDOF 4
ENDMDL
MODEL 8
REMARK VINA RESULT:      -7.0      3.483      8.887
REMARK  Name = 
REMARK  4 active torsions:
REMARK  status: ('A' for Active; 'I' for Inactive)
REMARK    1  A    between atoms: C_2  and  C_6
REMARK    2  A    between atoms: C_11  and  C_15
REMARK    3  A    between atoms: C_19  and  O_20
REMARK    4  A    between atoms: O_20  and  C_21
REMARK                            x       y       z     vdW  Elec       q    Type
REMARK                         _______ _______ _______ _____ _____    ______ ____
ROOT
ATOM      1  C   UNL     1      10.527   4.076  23.791  0.00  0.00    +0.063 A 
ATOM      2  C   UNL     1      10.941   2.752  23.519  0.00  0.00    +0.045 A 
ATOM      3  C   UNL     1      10.059   1.683  23.766  0.00  0.00    +0.090 A 
ATOM      4  C   UNL     1       8.797   1.969  24.260  0.00  0.00    +0.067 A 
ATOM      5  N   UNL     1       8.215   0.745  24.393  0.00  0.00    -0.338 N 
ATOM      6  H   UNL     1       7.302   0.486  24.771  0.00  0.00    +0.167 HD
ATOM      7  C   UNL     1       9.113  -0.234  24.029  0.00  0.00    +0.139 A 
ATOM      8  C   UNL     1       8.339   3.250  24.547  0.00  0.00    +0.028 A 
ATOM      9  N   UNL     1      10.241   0.333  23.603  0.00  0.00    -0.228 NA
ATOM     10  C   UNL     1       9.234   4.297  24.309  0.00  0.00    +0.018 A 
ENDROOT
BRANCH   1  14
ATOM     11  N   UNL     1      11.396   6.263  24.343  0.00  0.00    -0.250 N 
ATOM     12  H   UNL     1      10.721   6.299  25.099  0.00  0.00    +0.288 HD
ATOM     13  H   UNL     1      12.003   7.060  24.224  0.00  0.00    +0.288 HD
ATOM     14  C   UNL     1      11.427   5.217  23.541  0.00  0.00    +0.266 C 
ATOM     15  N   UNL     1      12.270   5.190  22.533  0.00  0.00    -0.288 N 
ATOM     16  H   UNL     1      12.901   5.948  22.320  0.00  0.00    +0.301 HD
ATOM     17  H   UNL     1      12.313   4.369  21.935  0.00  0.00    +0.301 HD
ENDBRANCH   1  14
BRANCH   7  18
ATOM     18  C   UNL     1       8.763  -1.668  24.203  0.00  0.00    +0.013 A 
ATOM     19  C   UNL     1       8.429  -2.504  23.064  0.00  0.00    -0.054 A 
ATOM     20  O   UNL     1       8.517  -2.098  21.843  0.00  0.00    -0.871 OA
ATOM     21  C   UNL     1       7.966  -3.816  23.403  0.00  0.00    +0.114 A 
ATOM     22  C   UNL     1       7.967  -4.290  24.727  0.00  0.00    +0.045 A 
ATOM     23  C   UNL     1       8.349  -3.473  25.780  0.00  0.00    +0.004 A 
ATOM     24  C   UNL     1       8.725  -2.164  25.519  0.00  0.00    +0.011 A 
BRANCH  21  25
ATOM     25  O   UNL     1       7.552  -4.645  22.367  0.00  0.00    -0.489 OA
BRANCH  25  26
ATOM     26  C   UNL     1       6.142  -4.700  22.150  0.00  0.00    +0.173 C 
ATOM     27  C   UNL     1       5.412  -3.605  22.943  0.00  0.00    +0.044 C 
ATOM     28  C   UNL     1       4.199  -4.259  23.600  0.00  0.00    +0.004 C 
ATOM     29  C   UNL     1       4.106  -5.646  22.988  0.00  0.00    +0.004 C 
ATOM     30  C   UNL     1       5.557  -6.003  22.707  0.00  0.00    +0.044 C 
ENDBRANCH  25  26
ENDBRANCH  21  25
ENDBRANCH   7  18
TORSDOF 4
ENDMDL
MODEL 9
REMARK VINA RESULT:      -7.0      3.351      9.053
REMARK  Name = 
REMARK  4 active torsions:
REMARK  status: ('A' for Active; 'I' for Inactive)
REMARK    1  A    between atoms: C_2  and  C_6
REMARK    2  A    between atoms: C_11  and  C_15
REMARK    3  A    between atoms: C_19  and  O_20
REMARK    4  A    between atoms: O_20  and  C_21
REMARK                            x       y       z     vdW  Elec       q    Type
REMARK                         _______ _______ _______ _____ _____    ______ ____
ROOT
ATOM      1  C   UNL     1      11.111   4.479  23.614  0.00  0.00    +0.063 A 
ATOM      2  C   UNL     1      11.372   3.126  23.304  0.00  0.00    +0.045 A 
ATOM      3  C   UNL     1      10.368   2.159  23.506  0.00  0.00    +0.090 A 
ATOM      4  C   UNL     1       9.141   2.574  23.996  0.00  0.00    +0.067 A 
ATOM      5  N   UNL     1       8.420   1.422  24.082  0.00  0.00    -0.338 N 
ATOM      6  H   UNL     1       7.477   1.260  24.441  0.00  0.00    +0.167 HD
ATOM      7  C   UNL     1       9.203   0.358  23.696  0.00  0.00    +0.139 A 
ATOM      8  C   UNL     1       8.830   3.890  24.319  0.00  0.00    +0.028 A 
ATOM      9  N   UNL     1      10.395   0.803  23.301  0.00  0.00    -0.228 NA
ATOM     10  C   UNL     1       9.845   4.833  24.125  0.00  0.00    +0.018 A 
ENDROOT
BRANCH   1  14
ATOM     11  N   UNL     1      12.440   6.341  24.394  0.00  0.00    -0.250 N 
ATOM     12  H   UNL     1      11.929   6.292  25.269  0.00  0.00    +0.288 HD
ATOM     13  H   UNL     1      13.149   7.055  24.310  0.00  0.00    +0.288 HD
ATOM     14  C   UNL     1      12.141   5.515  23.411  0.00  0.00    +0.266 C 
ATOM     15  N   UNL     1      12.771   5.608  22.261  0.00  0.00    -0.288 N 
ATOM     16  H   UNL     1      13.479   6.303  22.075  0.00  0.00    +0.301 HD
ATOM     17  H   UNL     1      12.560   4.950  21.517  0.00  0.00    +0.301 HD
ENDBRANCH   1  14
BRANCH   7  18
ATOM     18  C   UNL     1       8.687  -1.031  23.820  0.00  0.00    +0.013 A 
ATOM     19  C   UNL     1       8.560  -1.673  25.116  0.00  0.00    -0.054 A 
ATOM     20  O   UNL     1       8.777  -1.059  26.229  0.00  0.00    -0.871 OA
ATOM     21  C   UNL     1       8.197  -3.057  25.063  0.00  0.00    +0.114 A 
ATOM     22  C   UNL     1       7.862  -3.696  23.856  0.00  0.00    +0.045 A 
ATOM     23  C   UNL     1       7.943  -3.026  22.644  0.00  0.00    +0.004 A 
ATOM     24  C   UNL     1       8.372  -1.707  22.627  0.00  0.00    +0.011 A 
BRANCH  21  25
ATOM     25  O   UNL     1       8.136  -3.757  26.261  0.00  0.00    -0.489 OA
BRANCH  25  26
ATOM     26  C   UNL     1       6.949  -4.523  26.466  0.00  0.00    +0.173 C 
ATOM     27  C   UNL     1       5.842  -3.675  27.112  0.00  0.00    +0.044 C 
ATOM     28  C   UNL     1       5.226  -4.516  28.228  0.00  0.00    +0.004 C 
ATOM     29  C   UNL     1       5.808  -5.908  28.054  0.00  0.00    +0.004 C 
ATOM     30  C   UNL     1       7.193  -5.641  27.485  0.00  0.00    +0.044 C 
ENDBRANCH  25  26
ENDBRANCH  21  25
ENDBRANCH   7  18
TORSDOF 4
ENDMDL
