MODEL 1
REMARK VINA RESULT:      -7.9      0.000      0.000
REMARK  Name = 
REMARK  3 active torsions:
REMARK  status: ('A' for Active; 'I' for Inactive)
REMARK    1  A    between atoms: C_1  and  N_2
REMARK    2  A    between atoms: C_4  and  C_5
REMARK    3  A    between atoms: C_5  and  C_7
REMARK                            x       y       z     vdW  Elec       q    Type
REMARK                         _______ _______ _______ _____ _____    ______ ____
ROOT
ATOM      1  C   UNL     1       9.140  -2.935  23.953  0.00  0.00    +0.169 C 
ATOM      2  O   UNL     1      10.194  -3.505  24.234  0.00  0.00    -0.292 OA
ENDROOT
BRANCH   1  11
ATOM      3  C   UNL     1       5.154  -4.652  26.393  0.00  0.00    +0.149 C 
ATOM      4  N   UNL     1       6.083  -4.378  25.319  0.00  0.00    -0.349 N 
ATOM      5  C   UNL     1       6.018  -4.917  24.055  0.00  0.00    +0.050 A 
ATOM      6  C   UNL     1       5.156  -5.883  23.511  0.00  0.00    +0.026 A 
ATOM      7  C   UNL     1       5.317  -6.220  22.165  0.00  0.00    +0.002 A 
ATOM      8  C   UNL     1       6.273  -5.587  21.378  0.00  0.00    +0.001 A 
ATOM      9  C   UNL     1       7.141  -4.642  21.937  0.00  0.00    +0.011 A 
ATOM     10  C   UNL     1       7.039  -4.324  23.307  0.00  0.00    +0.010 A 
ATOM     11  C   UNL     1       7.836  -3.553  24.211  0.00  0.00    +0.043 A 
ATOM     12  C   UNL     1       7.173  -3.559  25.427  0.00  0.00    +0.098 A 
ENDBRANCH   1  11
BRANCH   1  13
ATOM     13  C   UNL     1       9.135  -1.527  23.351  0.00  0.00    +0.066 C 
ATOM     14  C   UNL     1      10.034  -0.584  24.191  0.00  0.00    +0.068 C 
ATOM     15  C   UNL     1      10.189   0.718  23.495  0.00  0.00    +0.063 A 
ATOM     16  N   UNL     1      10.682   1.860  24.055  0.00  0.00    -0.241 NA
ATOM     17  C   UNL     1      10.666   2.745  23.081  0.00  0.00    +0.196 A 
ATOM     18  N   UNL     1      10.161   2.222  21.918  0.00  0.00    -0.348 N 
ATOM     19  H   UNL     1      10.043   2.716  21.044  0.00  0.00    +0.166 HD
ATOM     20  C   UNL     1       9.872   0.914  22.171  0.00  0.00    +0.039 A 
ATOM     21  C   UNL     1       9.324  -0.106  21.245  0.00  0.00    +0.056 C 
ATOM     22  C   UNL     1       9.572  -1.503  21.857  0.00  0.00    +0.018 C 
ENDBRANCH   1  13
TORSDOF 2
ENDMDL
MODEL 2
REMARK VINA RESULT:      -7.7      1.050      2.321
REMARK  Name = 
REMARK  3 active torsions:
REMARK  status: ('A' for Active; 'I' for Inactive)
REMARK    1  A    between atoms: C_1  and  N_2
REMARK    2  A    between atoms: C_4  and  C_5
REMARK    3  A    between atoms: C_5  and  C_7
REMARK                            x       y       z     vdW  Elec       q    Type
REMARK                         _______ _______ _______ _____ _____    ______ ____
ROOT
ATOM      1  C   UNL     1       9.227  -2.980  23.892  0.00  0.00    +0.169 C 
ATOM      2  O   UNL     1      10.290  -3.494  24.238  0.00  0.00    -0.292 OA
ENDROOT
BRANCH   1  11
ATOM      3  C   UNL     1       4.528  -4.405  23.069  0.00  0.00    +0.149 C 
ATOM      4  N   UNL     1       5.820  -4.263  23.703  0.00  0.00    -0.349 N 
ATOM      5  C   UNL     1       6.139  -4.710  24.965  0.00  0.00    +0.050 A 
ATOM      6  C   UNL     1       5.342  -5.301  25.959  0.00  0.00    +0.026 A 
ATOM      7  C   UNL     1       5.960  -5.679  27.154  0.00  0.00    +0.002 A 
ATOM      8  C   UNL     1       7.329  -5.513  27.336  0.00  0.00    +0.001 A 
ATOM      9  C   UNL     1       8.108  -4.902  26.347  0.00  0.00    +0.011 A 
ATOM     10  C   UNL     1       7.501  -4.459  25.153  0.00  0.00    +0.010 A 
ATOM     11  C   UNL     1       7.948  -3.678  24.041  0.00  0.00    +0.043 A 
ATOM     12  C   UNL     1       6.897  -3.638  23.138  0.00  0.00    +0.098 A 
ENDBRANCH   1  11
BRANCH   1  13
ATOM     13  C   UNL     1       9.183  -1.561  23.320  0.00  0.00    +0.066 C 
ATOM     14  C   UNL     1      10.077  -0.616  24.164  0.00  0.00    +0.068 C 
ATOM     15  C   UNL     1      10.193   0.703  23.492  0.00  0.00    +0.063 A 
ATOM     16  N   UNL     1      10.672   1.843  24.067  0.00  0.00    -0.241 NA
ATOM     17  C   UNL     1      10.620   2.747  23.112  0.00  0.00    +0.196 A 
ATOM     18  N   UNL     1      10.105   2.238  21.948  0.00  0.00    -0.348 N 
ATOM     19  H   UNL     1       9.961   2.748  21.087  0.00  0.00    +0.166 HD
ATOM     20  C   UNL     1       9.847   0.920  22.179  0.00  0.00    +0.039 A 
ATOM     21  C   UNL     1       9.304  -0.092  21.241  0.00  0.00    +0.056 C 
ATOM     22  C   UNL     1       9.592  -1.496  21.819  0.00  0.00    +0.018 C 
ENDBRANCH   1  13
TORSDOF 2
ENDMDL
MODEL 3
REMARK VINA RESULT:      -7.4      1.451      1.664
REMARK  Name = 
REMARK  3 active torsions:
REMARK  status: ('A' for Active; 'I' for Inactive)
REMARK    1  A    between atoms: C_1  and  N_2
REMARK    2  A    between atoms: C_4  and  C_5
REMARK    3  A    between atoms: C_5  and  C_7
REMARK                            x       y       z     vdW  Elec       q    Type
REMARK                         _______ _______ _______ _____ _____    ______ ____
ROOT
ATOM      1  C   UNL     1       9.629  -1.930  23.084  0.00  0.00    +0.169 C 
ATOM      2  O   UNL     1      10.759  -2.233  22.704  0.00  0.00    -0.292 OA
ENDROOT
BRANCH   1  11
ATOM      3  C   UNL     1       7.985  -5.146  26.511  0.00  0.00    +0.149 C 
ATOM      4  N   UNL     1       8.066  -4.377  25.289  0.00  0.00    -0.349 N 
ATOM      5  C   UNL     1       7.264  -4.552  24.186  0.00  0.00    +0.050 A 
ATOM      6  C   UNL     1       6.276  -5.512  23.910  0.00  0.00    +0.026 A 
ATOM      7  C   UNL     1       5.598  -5.423  22.692  0.00  0.00    +0.002 A 
ATOM      8  C   UNL     1       5.864  -4.390  21.799  0.00  0.00    +0.001 A 
ATOM      9  C   UNL     1       6.866  -3.454  22.074  0.00  0.00    +0.011 A 
ATOM     10  C   UNL     1       7.606  -3.553  23.271  0.00  0.00    +0.010 A 
ATOM     11  C   UNL     1       8.766  -2.888  23.780  0.00  0.00    +0.043 A 
ATOM     12  C   UNL     1       8.976  -3.382  25.057  0.00  0.00    +0.098 A 
ENDBRANCH   1  11
BRANCH   1  13
ATOM     13  C   UNL     1       9.077  -0.516  22.881  0.00  0.00    +0.066 C 
ATOM     14  C   UNL     1       9.587   0.423  24.005  0.00  0.00    +0.068 C 
ATOM     15  C   UNL     1       9.220   1.827  23.695  0.00  0.00    +0.063 A 
ATOM     16  N   UNL     1       9.270   2.869  24.573  0.00  0.00    -0.241 NA
ATOM     17  C   UNL     1       8.890   3.916  23.872  0.00  0.00    +0.196 A 
ATOM     18  N   UNL     1       8.576   3.585  22.579  0.00  0.00    -0.348 N 
ATOM     19  H   UNL     1       8.251   4.220  21.864  0.00  0.00    +0.166 HD
ATOM     20  C   UNL     1       8.806   2.247  22.453  0.00  0.00    +0.039 A 
ATOM     21  C   UNL     1       8.646   1.394  21.251  0.00  0.00    +0.056 C 
ATOM     22  C   UNL     1       9.420   0.077  21.483  0.00  0.00    +0.018 C 
ENDBRANCH   1  13
TORSDOF 2
ENDMDL
MODEL 4
REMARK VINA RESULT:      -7.3      1.623      2.650
REMARK  Name = 
REMARK  3 active torsions:
REMARK  status: ('A' for Active; 'I' for Inactive)
REMARK    1  A    between atoms: C_1  and  N_2
REMARK    2  A    between atoms: C_4  and  C_5
REMARK    3  A    between atoms: C_5  and  C_7
REMARK                            x       y       z     vdW  Elec       q    Type
REMARK                         _______ _______ _______ _____ _____    ______ ____
ROOT
ATOM      1  C   UNL     1       9.364  -2.014  22.893  0.00  0.00    +0.169 C 
ATOM      2  O   UNL     1      10.550  -2.313  22.765  0.00  0.00    -0.292 OA
ENDROOT
BRANCH   1  11
ATOM      3  C   UNL     1       5.157  -4.670  22.695  0.00  0.00    +0.149 C 
ATOM      4  N   UNL     1       6.429  -4.161  23.158  0.00  0.00    -0.349 N 
ATOM      5  C   UNL     1       7.002  -4.445  24.376  0.00  0.00    +0.050 A 
ATOM      6  C   UNL     1       6.517  -5.176  25.472  0.00  0.00    +0.026 A 
ATOM      7  C   UNL     1       7.350  -5.318  26.584  0.00  0.00    +0.002 A 
ATOM      8  C   UNL     1       8.636  -4.788  26.589  0.00  0.00    +0.001 A 
ATOM      9  C   UNL     1       9.100  -4.041  25.500  0.00  0.00    +0.011 A 
ATOM     10  C   UNL     1       8.259  -3.833  24.386  0.00  0.00    +0.010 A 
ATOM     11  C   UNL     1       8.346  -3.018  23.214  0.00  0.00    +0.043 A 
ATOM     12  C   UNL     1       7.224  -3.301  22.451  0.00  0.00    +0.098 A 
ENDBRANCH   1  11
BRANCH   1  13
ATOM     13  C   UNL     1       8.893  -0.563  22.761  0.00  0.00    +0.066 C 
ATOM     14  C   UNL     1       9.359   0.264  23.988  0.00  0.00    +0.068 C 
ATOM     15  C   UNL     1       9.080   1.704  23.760  0.00  0.00    +0.063 A 
ATOM     16  N   UNL     1       9.110   2.675  24.718  0.00  0.00    -0.241 NA
ATOM     17  C   UNL     1       8.831   3.789  24.074  0.00  0.00    +0.196 A 
ATOM     18  N   UNL     1       8.601   3.569  22.740  0.00  0.00    -0.348 N 
ATOM     19  H   UNL     1       8.359   4.271  22.054  0.00  0.00    +0.166 HD
ATOM     20  C   UNL     1       8.779   2.235  22.528  0.00  0.00    +0.039 A 
ATOM     21  C   UNL     1       8.672   1.481  21.256  0.00  0.00    +0.056 C 
ATOM     22  C   UNL     1       9.366   0.113  21.441  0.00  0.00    +0.018 C 
ENDBRANCH   1  13
TORSDOF 2
ENDMDL
MODEL 5
REMARK VINA RESULT:      -7.3      1.002      2.446
REMARK  Name = 
REMARK  3 active torsions:
REMARK  status: ('A' for Active; 'I' for Inactive)
REMARK    1  A    between atoms: C_1  and  N_2
REMARK    2  A    between atoms: C_4  and  C_5
REMARK    3  A    between atoms: C_5  and  C_7
REMARK                            x       y       z     vdW  Elec       q    Type
REMARK                         _______ _______ _______ _____ _____    ______ ____
ROOT
ATOM      1  C   UNL     1       9.170  -2.894  23.852  0.00  0.00    +0.169 C 
ATOM      2  O   UNL     1      10.223  -3.429  24.198  0.00  0.00    -0.292 OA
ENDROOT
BRANCH   1  11
ATOM      3  C   UNL     1       5.269  -5.842  22.910  0.00  0.00    +0.149 C 
ATOM      4  N   UNL     1       6.104  -4.843  23.539  0.00  0.00    -0.349 N 
ATOM      5  C   UNL     1       5.701  -3.982  24.533  0.00  0.00    +0.050 A 
ATOM      6  C   UNL     1       4.439  -3.775  25.114  0.00  0.00    +0.026 A 
ATOM      7  C   UNL     1       4.336  -2.832  26.139  0.00  0.00    +0.002 A 
ATOM      8  C   UNL     1       5.458  -2.149  26.599  0.00  0.00    +0.001 A 
ATOM      9  C   UNL     1       6.706  -2.346  25.997  0.00  0.00    +0.011 A 
ATOM     10  C   UNL     1       6.827  -3.251  24.921  0.00  0.00    +0.010 A 
ATOM     11  C   UNL     1       7.877  -3.567  24.002  0.00  0.00    +0.043 A 
ATOM     12  C   UNL     1       7.409  -4.601  23.208  0.00  0.00    +0.098 A 
ENDBRANCH   1  11
BRANCH   1  13
ATOM     13  C   UNL     1       9.154  -1.474  23.280  0.00  0.00    +0.066 C 
ATOM     14  C   UNL     1      10.065  -0.546  24.124  0.00  0.00    +0.068 C 
ATOM     15  C   UNL     1      10.206   0.770  23.451  0.00  0.00    +0.063 A 
ATOM     16  N   UNL     1      10.707   1.901  24.027  0.00  0.00    -0.241 NA
ATOM     17  C   UNL     1      10.673   2.805  23.071  0.00  0.00    +0.196 A 
ATOM     18  N   UNL     1      10.149   2.305  21.906  0.00  0.00    -0.348 N 
ATOM     19  H   UNL     1      10.015   2.817  21.045  0.00  0.00    +0.166 HD
ATOM     20  C   UNL     1       9.866   0.992  22.138  0.00  0.00    +0.039 A 
ATOM     21  C   UNL     1       9.304  -0.009  21.200  0.00  0.00    +0.056 C 
ATOM     22  C   UNL     1       9.565  -1.418  21.779  0.00  0.00    +0.018 C 
ENDBRANCH   1  13
TORSDOF 2
ENDMDL
MODEL 6
REMARK VINA RESULT:      -7.2      1.952      2.161
REMARK  Name = 
REMARK  3 active torsions:
REMARK  status: ('A' for Active; 'I' for Inactive)
REMARK    1  A    between atoms: C_1  and  N_2
REMARK    2  A    between atoms: C_4  and  C_5
REMARK    3  A    between atoms: C_5  and  C_7
REMARK                            x       y       z     vdW  Elec       q    Type
REMARK                         _______ _______ _______ _____ _____    ______ ____
ROOT
ATOM      1  C   UNL     1       6.567  -1.197  24.054  0.00  0.00    +0.169 C 
ATOM      2  O   UNL     1       5.504  -0.870  24.581  0.00  0.00    -0.292 OA
ENDROOT
BRANCH   1  11
ATOM      3  C   UNL     1       9.243  -5.206  25.303  0.00  0.00    +0.149 C 
ATOM      4  N   UNL     1       8.300  -4.357  24.610  0.00  0.00    -0.349 N 
ATOM      5  C   UNL     1       7.633  -4.688  23.453  0.00  0.00    +0.050 A 
ATOM      6  C   UNL     1       7.736  -5.817  22.624  0.00  0.00    +0.026 A 
ATOM      7  C   UNL     1       6.897  -5.889  21.509  0.00  0.00    +0.002 A 
ATOM      8  C   UNL     1       5.961  -4.893  21.252  0.00  0.00    +0.001 A 
ATOM      9  C   UNL     1       5.884  -3.762  22.072  0.00  0.00    +0.011 A 
ATOM     10  C   UNL     1       6.757  -3.635  23.172  0.00  0.00    +0.010 A 
ATOM     11  C   UNL     1       7.052  -2.579  24.091  0.00  0.00    +0.043 A 
ATOM     12  C   UNL     1       7.962  -3.091  25.002  0.00  0.00    +0.098 A 
ENDBRANCH   1  11
BRANCH   1  13
ATOM     13  C   UNL     1       7.422  -0.179  23.296  0.00  0.00    +0.066 C 
ATOM     14  C   UNL     1       8.163   0.747  24.295  0.00  0.00    +0.068 C 
ATOM     15  C   UNL     1       9.142   1.594  23.567  0.00  0.00    +0.063 A 
ATOM     16  N   UNL     1       9.768   2.693  24.077  0.00  0.00    -0.241 NA
ATOM     17  C   UNL     1      10.557   3.108  23.108  0.00  0.00    +0.196 A 
ATOM     18  N   UNL     1      10.448   2.329  21.985  0.00  0.00    -0.348 N 
ATOM     19  H   UNL     1      10.946   2.463  21.116  0.00  0.00    +0.166 HD
ATOM     20  C   UNL     1       9.555   1.342  22.280  0.00  0.00    +0.039 A 
ATOM     21  C   UNL     1       9.097   0.225  21.419  0.00  0.00    +0.056 C 
ATOM     22  C   UNL     1       8.436  -0.843  22.318  0.00  0.00    +0.018 C 
ENDBRANCH   1  13
TORSDOF 2
ENDMDL
MODEL 7
REMARK VINA RESULT:      -7.1      1.206      1.820
REMARK  Name = 
REMARK  3 active torsions:
REMARK  status: ('A' for Active; 'I' for Inactive)
REMARK    1  A    between atoms: C_1  and  N_2
REMARK    2  A    between atoms: C_4  and  C_5
REMARK    3  A    between atoms: C_5  and  C_7
REMARK                            x       y       z     vdW  Elec       q    Type
REMARK                         _______ _______ _______ _____ _____    ______ ____
ROOT
ATOM      1  C   UNL     1       9.407  -3.961  24.694  0.00  0.00    +0.169 C 
ATOM      2  O   UNL     1      10.402  -4.678  24.788  0.00  0.00    -0.292 OA
ENDROOT
BRANCH   1  11
ATOM      3  C   UNL     1       5.306  -6.069  26.574  0.00  0.00    +0.149 C 
ATOM      4  N   UNL     1       6.240  -5.511  25.620  0.00  0.00    -0.349 N 
ATOM      5  C   UNL     1       6.095  -5.548  24.252  0.00  0.00    +0.050 A 
ATOM      6  C   UNL     1       5.127  -6.169  23.447  0.00  0.00    +0.026 A 
ATOM      7  C   UNL     1       5.226  -6.010  22.063  0.00  0.00    +0.002 A 
ATOM      8  C   UNL     1       6.230  -5.226  21.503  0.00  0.00    +0.001 A 
ATOM      9  C   UNL     1       7.203  -4.631  22.314  0.00  0.00    +0.011 A 
ATOM     10  C   UNL     1       7.160  -4.822  23.711  0.00  0.00    +0.010 A 
ATOM     11  C   UNL     1       8.051  -4.507  24.785  0.00  0.00    +0.043 A 
ATOM     12  C   UNL     1       7.413  -4.892  25.953  0.00  0.00    +0.098 A 
ENDBRANCH   1  11
BRANCH   1  13
ATOM     13  C   UNL     1       9.536  -2.446  24.515  0.00  0.00    +0.066 C 
ATOM     14  C   UNL     1       9.638  -2.092  23.009  0.00  0.00    +0.068 C 
ATOM     15  C   UNL     1       9.558  -0.620  22.830  0.00  0.00    +0.063 A 
ATOM     16  N   UNL     1       9.876   0.055  21.688  0.00  0.00    -0.241 NA
ATOM     17  C   UNL     1       9.632   1.318  21.967  0.00  0.00    +0.196 A 
ATOM     18  N   UNL     1       9.189   1.485  23.254  0.00  0.00    -0.348 N 
ATOM     19  H   UNL     1       8.951   2.364  23.692  0.00  0.00    +0.166 HD
ATOM     20  C   UNL     1       9.120   0.241  23.807  0.00  0.00    +0.039 A 
ATOM     21  C   UNL     1       8.679  -0.138  25.171  0.00  0.00    +0.056 C 
ATOM     22  C   UNL     1       8.373  -1.653  25.180  0.00  0.00    +0.018 C 
ENDBRANCH   1  13
TORSDOF 2
ENDMDL
MODEL 8
REMARK VINA RESULT:      -7.0      1.881      6.361
REMARK  Name = 
REMARK  3 active torsions:
REMARK  status: ('A' for Active; 'I' for Inactive)
REMARK    1  A    between atoms: C_1  and  N_2
REMARK    2  A    between atoms: C_4  and  C_5
REMARK    3  A    between atoms: C_5  and  C_7
REMARK                            x       y       z     vdW  Elec       q    Type
REMARK                         _______ _______ _______ _____ _____    ______ ____
ROOT
ATOM      1  C   UNL     1       9.056  -3.950  24.392  0.00  0.00    +0.169 C 
ATOM      2  O   UNL     1      10.129  -4.469  24.695  0.00  0.00    -0.292 OA
ENDROOT
BRANCH   1  11
ATOM      3  C   UNL     1       7.439   0.429  26.124  0.00  0.00    +0.149 C 
ATOM      4  N   UNL     1       8.053  -0.554  25.258  0.00  0.00    -0.349 N 
ATOM      5  C   UNL     1       8.506  -0.315  23.981  0.00  0.00    +0.050 A 
ATOM      6  C   UNL     1       8.427   0.833  23.177  0.00  0.00    +0.026 A 
ATOM      7  C   UNL     1       9.009   0.786  21.908  0.00  0.00    +0.002 A 
ATOM      8  C   UNL     1       9.683  -0.350  21.472  0.00  0.00    +0.001 A 
ATOM      9  C   UNL     1       9.736  -1.497  22.273  0.00  0.00    +0.011 A 
ATOM     10  C   UNL     1       9.107  -1.496  23.536  0.00  0.00    +0.010 A 
ATOM     11  C   UNL     1       8.835  -2.507  24.511  0.00  0.00    +0.043 A 
ATOM     12  C   UNL     1       8.241  -1.868  25.588  0.00  0.00    +0.098 A 
ENDBRANCH   1  11
BRANCH   1  13
ATOM     13  C   UNL     1       7.901  -4.787  23.834  0.00  0.00    +0.066 C 
ATOM     14  C   UNL     1       6.918  -5.167  24.971  0.00  0.00    +0.068 C 
ATOM     15  C   UNL     1       5.703  -5.799  24.397  0.00  0.00    +0.063 A 
ATOM     16  N   UNL     1       4.763  -6.489  25.104  0.00  0.00    -0.241 NA
ATOM     17  C   UNL     1       3.863  -6.841  24.210  0.00  0.00    +0.196 A 
ATOM     18  N   UNL     1       4.199  -6.422  22.948  0.00  0.00    -0.348 N 
ATOM     19  H   UNL     1       3.668  -6.587  22.105  0.00  0.00    +0.166 HD
ATOM     20  C   UNL     1       5.370  -5.734  23.065  0.00  0.00    +0.039 A 
ATOM     21  C   UNL     1       6.150  -5.055  22.002  0.00  0.00    +0.056 C 
ATOM     22  C   UNL     1       7.141  -4.078  22.675  0.00  0.00    +0.018 C 
ENDBRANCH   1  13
TORSDOF 2
ENDMDL
MODEL 9
REMARK VINA RESULT:      -6.8      2.384      6.905
REMARK  Name = 
REMARK  3 active torsions:
REMARK  status: ('A' for Active; 'I' for Inactive)
REMARK    1  A    between atoms: C_1  and  N_2
REMARK    2  A    between atoms: C_4  and  C_5
REMARK    3  A    between atoms: C_5  and  C_7
REMARK                            x       y       z     vdW  Elec       q    Type
REMARK                         _______ _______ _______ _____ _____    ______ ____
ROOT
ATOM      1  C   UNL     1       7.827  -2.497  23.320  0.00  0.00    +0.169 C 
ATOM      2  O   UNL     1       7.769  -3.081  22.239  0.00  0.00    -0.292 OA
ENDROOT
BRANCH   1  11
ATOM      3  C   UNL     1       6.300   2.212  22.781  0.00  0.00    +0.149 C 
ATOM      4  N   UNL     1       7.135   1.077  23.106  0.00  0.00    -0.349 N 
ATOM      5  C   UNL     1       8.455   1.145  23.488  0.00  0.00    +0.050 A 
ATOM      6  C   UNL     1       9.330   2.239  23.577  0.00  0.00    +0.026 A 
ATOM      7  C   UNL     1      10.631   2.002  24.028  0.00  0.00    +0.002 A 
ATOM      8  C   UNL     1      11.033   0.728  24.417  0.00  0.00    +0.001 A 
ATOM      9  C   UNL     1      10.158  -0.358  24.303  0.00  0.00    +0.011 A 
ATOM     10  C   UNL     1       8.857  -0.157  23.797  0.00  0.00    +0.010 A 
ATOM     11  C   UNL     1       7.795  -1.034  23.409  0.00  0.00    +0.043 A 
ATOM     12  C   UNL     1       6.727  -0.228  23.051  0.00  0.00    +0.098 A 
ENDBRANCH   1  11
BRANCH   1  13
ATOM     13  C   UNL     1       7.898  -3.272  24.638  0.00  0.00    +0.066 C 
ATOM     14  C   UNL     1       6.485  -3.762  25.046  0.00  0.00    +0.068 C 
ATOM     15  C   UNL     1       6.586  -4.681  26.208  0.00  0.00    +0.063 A 
ATOM     16  N   UNL     1       5.542  -5.084  26.989  0.00  0.00    -0.241 NA
ATOM     17  C   UNL     1       6.080  -5.904  27.868  0.00  0.00    +0.196 A 
ATOM     18  N   UNL     1       7.435  -6.028  27.696  0.00  0.00    -0.348 N 
ATOM     19  H   UNL     1       8.057  -6.592  28.258  0.00  0.00    +0.166 HD
ATOM     20  C   UNL     1       7.763  -5.260  26.619  0.00  0.00    +0.039 A 
ATOM     21  C   UNL     1       9.096  -5.062  25.999  0.00  0.00    +0.056 C 
ATOM     22  C   UNL     1       8.893  -4.469  24.587  0.00  0.00    +0.018 C 
ENDBRANCH   1  13
TORSDOF 2
ENDMDL
