MODEL 1
REMARK VINA RESULT:      -6.3      0.000      0.000
REMARK  Name = 
REMARK  6 active torsions:
REMARK  status: ('A' for Active; 'I' for Inactive)
REMARK    1  A    between atoms: C_1  and  C_2
REMARK    2  A    between atoms: C_2  and  C_3
REMARK    3  A    between atoms: C_4  and  O_5
REMARK    4  A    between atoms: C_7  and  O_8
REMARK    5  A    between atoms: C_9  and  C_11
REMARK    6  A    between atoms: C_15  and  C_16
REMARK                            x       y       z     vdW  Elec       q    Type
REMARK                         _______ _______ _______ _____ _____    ______ ____
ROOT
ATOM      1  C   UNL     1       7.826   1.091  22.370  0.00  0.00    -0.005 A 
ATOM      2  C   UNL     1       7.171  -0.077  22.810  0.00  0.00    +0.021 A 
ATOM      3  C   UNL     1       7.776  -1.344  22.736  0.00  0.00    +0.045 A 
ATOM      4  C   UNL     1       9.110  -1.408  22.298  0.00  0.00    +0.130 A 
ATOM      5  C   UNL     1       9.796  -0.253  21.911  0.00  0.00    +0.091 A 
ATOM      6  C   UNL     1       9.151   0.981  21.938  0.00  0.00    +0.124 A 
ENDROOT
BRANCH   3   7
ATOM      7  C   UNL     1       6.934  -2.541  22.897  0.00  0.00    +0.105 A 
ATOM      8  C   UNL     1       7.015  -3.645  23.809  0.00  0.00    +0.047 A 
ATOM      9  C   UNL     1       5.856  -4.365  23.620  0.00  0.00    +0.115 A 
ATOM     10  N   UNL     1       5.180  -3.729  22.633  0.00  0.00    -0.283 N 
ATOM     11  H   UNL     1       4.295  -3.984  22.212  0.00  0.00    +0.188 HD
ATOM     12  N   UNL     1       5.767  -2.607  22.221  0.00  0.00    -0.173 NA
BRANCH   8  13
ATOM     13  C   UNL     1       8.047  -3.994  24.777  0.00  0.00    +0.092 A 
ATOM     14  N   UNL     1       9.180  -4.683  24.430  0.00  0.00    -0.236 NA
ATOM     15  C   UNL     1       9.790  -4.941  25.564  0.00  0.00    +0.197 A 
ATOM     16  N   UNL     1       9.122  -4.405  26.629  0.00  0.00    -0.350 N 
ATOM     17  H   UNL     1       9.395  -4.484  27.601  0.00  0.00    +0.166 HD
ATOM     18  C   UNL     1       8.003  -3.794  26.141  0.00  0.00    +0.112 A 
ENDBRANCH   8  13
ENDBRANCH   3   7
BRANCH   1  20
ATOM     19  C   UNL     1       7.221   3.290  23.482  0.00  0.00    +0.009 C 
ATOM     20  C   UNL     1       7.029   2.369  22.290  0.00  0.00    +0.035 C 
ENDBRANCH   1  20
BRANCH   4  21
ATOM     21  O   UNL     1       9.775  -2.607  22.229  0.00  0.00    -0.506 OA
ATOM     22  H   UNL     1      10.148  -2.707  21.339  0.00  0.00    +0.292 HD
ENDBRANCH   4  21
BRANCH   6  23
ATOM     23  O   UNL     1       9.882   2.044  21.489  0.00  0.00    -0.506 OA
ATOM     24  H   UNL     1      10.815   1.788  21.433  0.00  0.00    +0.292 HD
ENDBRANCH   6  23
TORSDOF 5
ENDMDL
MODEL 2
REMARK VINA RESULT:      -6.2      2.016      2.575
REMARK  Name = 
REMARK  6 active torsions:
REMARK  status: ('A' for Active; 'I' for Inactive)
REMARK    1  A    between atoms: C_1  and  C_2
REMARK    2  A    between atoms: C_2  and  C_3
REMARK    3  A    between atoms: C_4  and  O_5
REMARK    4  A    between atoms: C_7  and  O_8
REMARK    5  A    between atoms: C_9  and  C_11
REMARK    6  A    between atoms: C_15  and  C_16
REMARK                            x       y       z     vdW  Elec       q    Type
REMARK                         _______ _______ _______ _____ _____    ______ ____
ROOT
ATOM      1  C   UNL     1       8.499  -0.240  23.217  0.00  0.00    -0.005 A 
ATOM      2  C   UNL     1       8.144  -1.471  22.628  0.00  0.00    +0.021 A 
ATOM      3  C   UNL     1       6.958  -2.145  22.968  0.00  0.00    +0.045 A 
ATOM      4  C   UNL     1       6.071  -1.505  23.851  0.00  0.00    +0.130 A 
ATOM      5  C   UNL     1       6.379  -0.258  24.401  0.00  0.00    +0.091 A 
ATOM      6  C   UNL     1       7.589   0.360  24.093  0.00  0.00    +0.124 A 
ENDROOT
BRANCH   3   7
ATOM      7  C   UNL     1       6.808  -3.556  22.576  0.00  0.00    +0.105 A 
ATOM      8  C   UNL     1       7.184  -4.772  23.236  0.00  0.00    +0.047 A 
ATOM      9  C   UNL     1       6.626  -5.786  22.489  0.00  0.00    +0.115 A 
ATOM     10  N   UNL     1       6.006  -5.181  21.447  0.00  0.00    -0.283 N 
ATOM     11  H   UNL     1       5.505  -5.611  20.679  0.00  0.00    +0.188 HD
ATOM     12  N   UNL     1       6.046  -3.851  21.500  0.00  0.00    -0.173 NA
BRANCH   8  13
ATOM     13  C   UNL     1       7.962  -4.983  24.450  0.00  0.00    +0.092 A 
ATOM     14  N   UNL     1       9.327  -4.856  24.481  0.00  0.00    -0.236 NA
ATOM     15  C   UNL     1       9.686  -5.259  25.679  0.00  0.00    +0.197 A 
ATOM     16  N   UNL     1       8.603  -5.597  26.442  0.00  0.00    -0.350 N 
ATOM     17  H   UNL     1       8.633  -5.945  27.392  0.00  0.00    +0.166 HD
ATOM     18  C   UNL     1       7.491  -5.424  25.669  0.00  0.00    +0.112 A 
ENDBRANCH   8  13
ENDBRANCH   3   7
BRANCH   1  20
ATOM     19  C   UNL     1       9.920   1.397  21.898  0.00  0.00    +0.009 C 
ATOM     20  C   UNL     1       9.881   0.305  22.953  0.00  0.00    +0.035 C 
ENDBRANCH   1  20
BRANCH   4  21
ATOM     21  O   UNL     1       4.880  -2.090  24.204  0.00  0.00    -0.506 OA
ATOM     22  H   UNL     1       4.697  -2.821  23.593  0.00  0.00    +0.292 HD
ENDBRANCH   4  21
BRANCH   6  23
ATOM     23  O   UNL     1       7.828   1.548  24.721  0.00  0.00    -0.506 OA
ATOM     24  H   UNL     1       6.985   1.937  24.999  0.00  0.00    +0.292 HD
ENDBRANCH   6  23
TORSDOF 5
ENDMDL
MODEL 3
REMARK VINA RESULT:      -6.1      2.783      5.778
REMARK  Name = 
REMARK  6 active torsions:
REMARK  status: ('A' for Active; 'I' for Inactive)
REMARK    1  A    between atoms: C_1  and  C_2
REMARK    2  A    between atoms: C_2  and  C_3
REMARK    3  A    between atoms: C_4  and  O_5
REMARK    4  A    between atoms: C_7  and  O_8
REMARK    5  A    between atoms: C_9  and  C_11
REMARK    6  A    between atoms: C_15  and  C_16
REMARK                            x       y       z     vdW  Elec       q    Type
REMARK                         _______ _______ _______ _____ _____    ______ ____
ROOT
ATOM      1  C   UNL     1       7.494  -4.306  23.588  0.00  0.00    -0.005 A 
ATOM      2  C   UNL     1       6.991  -2.994  23.480  0.00  0.00    +0.021 A 
ATOM      3  C   UNL     1       7.630  -1.897  24.085  0.00  0.00    +0.045 A 
ATOM      4  C   UNL     1       8.858  -2.129  24.728  0.00  0.00    +0.130 A 
ATOM      5  C   UNL     1       9.403  -3.415  24.797  0.00  0.00    +0.091 A 
ATOM      6  C   UNL     1       8.717  -4.492  24.240  0.00  0.00    +0.124 A 
ENDROOT
BRANCH   3   7
ATOM      7  C   UNL     1       6.892  -0.630  24.214  0.00  0.00    +0.105 A 
ATOM      8  C   UNL     1       7.139   0.674  23.672  0.00  0.00    +0.047 A 
ATOM      9  C   UNL     1       6.018   1.417  23.972  0.00  0.00    +0.115 A 
ATOM     10  N   UNL     1       5.205   0.594  24.677  0.00  0.00    -0.283 N 
ATOM     11  H   UNL     1       4.301   0.801  25.084  0.00  0.00    +0.188 HD
ATOM     12  N   UNL     1       5.670  -0.649  24.789  0.00  0.00    -0.173 NA
BRANCH   8  13
ATOM     13  C   UNL     1       8.284   1.185  22.929  0.00  0.00    +0.092 A 
ATOM     14  N   UNL     1       9.522   1.338  23.498  0.00  0.00    -0.236 NA
ATOM     15  C   UNL     1      10.248   1.950  22.589  0.00  0.00    +0.197 A 
ATOM     16  N   UNL     1       9.544   2.154  21.436  0.00  0.00    -0.350 N 
ATOM     17  H   UNL     1       9.890   2.616  20.604  0.00  0.00    +0.166 HD
ATOM     18  C   UNL     1       8.283   1.668  21.637  0.00  0.00    +0.112 A 
ENDBRANCH   8  13
ENDBRANCH   3   7
BRANCH   1  20
ATOM     19  C   UNL     1       6.941  -5.865  21.664  0.00  0.00    +0.009 C 
ATOM     20  C   UNL     1       6.637  -5.443  23.091  0.00  0.00    +0.035 C 
ENDBRANCH   1  20
BRANCH   4  21
ATOM     21  O   UNL     1       9.554  -1.101  25.315  0.00  0.00    -0.506 OA
ATOM     22  H   UNL     1       9.969  -0.567  24.618  0.00  0.00    +0.292 HD
ENDBRANCH   4  21
BRANCH   6  23
ATOM     23  O   UNL     1       9.298  -5.717  24.406  0.00  0.00    -0.506 OA
ATOM     24  H   UNL     1       9.856  -5.700  25.198  0.00  0.00    +0.292 HD
ENDBRANCH   6  23
TORSDOF 5
ENDMDL
MODEL 4
REMARK VINA RESULT:      -6.1      1.674      1.771
REMARK  Name = 
REMARK  6 active torsions:
REMARK  status: ('A' for Active; 'I' for Inactive)
REMARK    1  A    between atoms: C_1  and  C_2
REMARK    2  A    between atoms: C_2  and  C_3
REMARK    3  A    between atoms: C_4  and  O_5
REMARK    4  A    between atoms: C_7  and  O_8
REMARK    5  A    between atoms: C_9  and  C_11
REMARK    6  A    between atoms: C_15  and  C_16
REMARK                            x       y       z     vdW  Elec       q    Type
REMARK                         _______ _______ _______ _____ _____    ______ ____
ROOT
ATOM      1  C   UNL     1       8.581   0.548  24.651  0.00  0.00    -0.005 A 
ATOM      2  C   UNL     1       8.107  -0.753  24.385  0.00  0.00    +0.021 A 
ATOM      3  C   UNL     1       8.559  -1.500  23.282  0.00  0.00    +0.045 A 
ATOM      4  C   UNL     1       9.586  -0.950  22.496  0.00  0.00    +0.130 A 
ATOM      5  C   UNL     1      10.109   0.316  22.779  0.00  0.00    +0.091 A 
ATOM      6  C   UNL     1       9.599   1.058  23.841  0.00  0.00    +0.124 A 
ENDROOT
BRANCH   3   7
ATOM      7  C   UNL     1       7.799  -2.693  22.875  0.00  0.00    +0.105 A 
ATOM      8  C   UNL     1       7.639  -3.976  23.494  0.00  0.00    +0.047 A 
ATOM      9  C   UNL     1       6.668  -4.622  22.760  0.00  0.00    +0.115 A 
ATOM     10  N   UNL     1       6.329  -3.770  21.763  0.00  0.00    -0.283 N 
ATOM     11  H   UNL     1       5.662  -3.913  21.014  0.00  0.00    +0.188 HD
ATOM     12  N   UNL     1       6.942  -2.590  21.836  0.00  0.00    -0.173 NA
BRANCH   8  13
ATOM     13  C   UNL     1       8.298  -4.548  24.661  0.00  0.00    +0.092 A 
ATOM     14  N   UNL     1       9.661  -4.569  24.802  0.00  0.00    -0.236 NA
ATOM     15  C   UNL     1       9.888  -5.281  25.882  0.00  0.00    +0.197 A 
ATOM     16  N   UNL     1       8.724  -5.681  26.476  0.00  0.00    -0.350 N 
ATOM     17  H   UNL     1       8.648  -6.248  27.311  0.00  0.00    +0.166 HD
ATOM     18  C   UNL     1       7.695  -5.218  25.706  0.00  0.00    +0.112 A 
ENDBRANCH   8  13
ENDBRANCH   3   7
BRANCH   1  20
ATOM     19  C   UNL     1       6.498   0.853  26.068  0.00  0.00    +0.009 C 
ATOM     20  C   UNL     1       7.890   1.352  25.724  0.00  0.00    +0.035 C 
ENDBRANCH   1  20
BRANCH   4  21
ATOM     21  O   UNL     1      10.099  -1.635  21.422  0.00  0.00    -0.506 OA
ATOM     22  H   UNL     1       9.573  -2.439  21.284  0.00  0.00    +0.292 HD
ENDBRANCH   4  21
BRANCH   6  23
ATOM     23  O   UNL     1      10.132   2.305  24.006  0.00  0.00    -0.506 OA
ATOM     24  H   UNL     1       9.555   2.824  24.586  0.00  0.00    +0.292 HD
ENDBRANCH   6  23
TORSDOF 5
ENDMDL
MODEL 5
REMARK VINA RESULT:      -6.1      1.851      3.066
REMARK  Name = 
REMARK  6 active torsions:
REMARK  status: ('A' for Active; 'I' for Inactive)
REMARK    1  A    between atoms: C_1  and  C_2
REMARK    2  A    between atoms: C_2  and  C_3
REMARK    3  A    between atoms: C_4  and  O_5
REMARK    4  A    between atoms: C_7  and  O_8
REMARK    5  A    between atoms: C_9  and  C_11
REMARK    6  A    between atoms: C_15  and  C_16
REMARK                            x       y       z     vdW  Elec       q    Type
REMARK                         _______ _______ _______ _____ _____    ______ ____
ROOT
ATOM      1  C   UNL     1       8.011  -0.343  23.107  0.00  0.00    -0.005 A 
ATOM      2  C   UNL     1       7.509  -1.171  24.131  0.00  0.00    +0.021 A 
ATOM      3  C   UNL     1       8.154  -2.362  24.511  0.00  0.00    +0.045 A 
ATOM      4  C   UNL     1       9.385  -2.661  23.903  0.00  0.00    +0.130 A 
ATOM      5  C   UNL     1       9.928  -1.822  22.925  0.00  0.00    +0.091 A 
ATOM      6  C   UNL     1       9.237  -0.680  22.526  0.00  0.00    +0.124 A 
ENDROOT
BRANCH   3   7
ATOM      7  C   UNL     1       7.420  -3.333  25.338  0.00  0.00    +0.105 A 
ATOM      8  C   UNL     1       6.814  -4.592  25.015  0.00  0.00    +0.047 A 
ATOM      9  C   UNL     1       6.439  -5.141  26.221  0.00  0.00    +0.115 A 
ATOM     10  N   UNL     1       6.776  -4.230  27.165  0.00  0.00    -0.283 N 
ATOM     11  H   UNL     1       6.631  -4.280  28.166  0.00  0.00    +0.188 HD
ATOM     12  N   UNL     1       7.414  -3.167  26.678  0.00  0.00    -0.173 NA
BRANCH   8  13
ATOM     13  C   UNL     1       6.618  -5.239  23.724  0.00  0.00    +0.092 A 
ATOM     14  N   UNL     1       7.661  -5.557  22.893  0.00  0.00    -0.236 NA
ATOM     15  C   UNL     1       7.103  -5.981  21.782  0.00  0.00    +0.197 A 
ATOM     16  N   UNL     1       5.739  -5.997  21.877  0.00  0.00    -0.350 N 
ATOM     17  H   UNL     1       5.097  -6.273  21.145  0.00  0.00    +0.166 HD
ATOM     18  C   UNL     1       5.413  -5.525  23.117  0.00  0.00    +0.112 A 
ENDBRANCH   8  13
ENDBRANCH   3   7
BRANCH   1  20
ATOM     19  C   UNL     1       6.435   1.543  23.737  0.00  0.00    +0.009 C 
ATOM     20  C   UNL     1       7.148   0.796  22.624  0.00  0.00    +0.035 C 
ENDBRANCH   1  20
BRANCH   4  21
ATOM     21  O   UNL     1      10.087  -3.790  24.245  0.00  0.00    -0.506 OA
ATOM     22  H   UNL     1      10.022  -4.431  23.520  0.00  0.00    +0.292 HD
ENDBRANCH   4  21
BRANCH   6  23
ATOM     23  O   UNL     1       9.817   0.048  21.526  0.00  0.00    -0.506 OA
ATOM     24  H   UNL     1       9.298   0.852  21.376  0.00  0.00    +0.292 HD
ENDBRANCH   6  23
TORSDOF 5
ENDMDL
MODEL 6
REMARK VINA RESULT:      -6.0      2.672      4.806
REMARK  Name = 
REMARK  6 active torsions:
REMARK  status: ('A' for Active; 'I' for Inactive)
REMARK    1  A    between atoms: C_1  and  C_2
REMARK    2  A    between atoms: C_2  and  C_3
REMARK    3  A    between atoms: C_4  and  O_5
REMARK    4  A    between atoms: C_7  and  O_8
REMARK    5  A    between atoms: C_9  and  C_11
REMARK    6  A    between atoms: C_15  and  C_16
REMARK                            x       y       z     vdW  Elec       q    Type
REMARK                         _______ _______ _______ _____ _____    ______ ____
ROOT
ATOM      1  C   UNL     1       8.216  -2.263  24.807  0.00  0.00    -0.005 A 
ATOM      2  C   UNL     1       7.475  -3.068  25.696  0.00  0.00    +0.021 A 
ATOM      3  C   UNL     1       7.848  -4.391  25.992  0.00  0.00    +0.045 A 
ATOM      4  C   UNL     1       9.053  -4.868  25.448  0.00  0.00    +0.130 A 
ATOM      5  C   UNL     1       9.831  -4.065  24.609  0.00  0.00    +0.091 A 
ATOM      6  C   UNL     1       9.406  -2.779  24.285  0.00  0.00    +0.124 A 
ENDROOT
BRANCH   3   7
ATOM      7  C   UNL     1       6.871  -5.272  26.654  0.00  0.00    +0.105 A 
ATOM      8  C   UNL     1       5.650  -5.858  26.186  0.00  0.00    +0.047 A 
ATOM      9  C   UNL     1       5.260  -6.737  27.173  0.00  0.00    +0.115 A 
ATOM     10  N   UNL     1       6.184  -6.623  28.156  0.00  0.00    -0.283 N 
ATOM     11  H   UNL     1       6.213  -7.101  29.049  0.00  0.00    +0.188 HD
ATOM     12  N   UNL     1       7.188  -5.802  27.855  0.00  0.00    -0.173 NA
BRANCH   8  13
ATOM     13  C   UNL     1       4.921  -5.649  24.941  0.00  0.00    +0.092 A 
ATOM     14  N   UNL     1       5.411  -6.045  23.724  0.00  0.00    -0.236 NA
ATOM     15  C   UNL     1       4.567  -5.566  22.838  0.00  0.00    +0.197 A 
ATOM     16  N   UNL     1       3.523  -4.918  23.435  0.00  0.00    -0.350 N 
ATOM     17  H   UNL     1       2.758  -4.459  22.956  0.00  0.00    +0.166 HD
ATOM     18  C   UNL     1       3.734  -4.963  24.783  0.00  0.00    +0.112 A 
ENDBRANCH   8  13
ENDBRANCH   3   7
BRANCH   1  20
ATOM     19  C   UNL     1       6.810  -1.006  23.110  0.00  0.00    +0.009 C 
ATOM     20  C   UNL     1       7.630  -0.938  24.386  0.00  0.00    +0.035 C 
ENDBRANCH   1  20
BRANCH   4  21
ATOM     21  O   UNL     1       9.496  -6.139  25.718  0.00  0.00    -0.506 OA
ATOM     22  H   UNL     1      10.384  -6.247  25.341  0.00  0.00    +0.292 HD
ENDBRANCH   4  21
BRANCH   6  23
ATOM     23  O   UNL     1      10.202  -2.090  23.415  0.00  0.00    -0.506 OA
ATOM     24  H   UNL     1       9.644  -1.635  22.766  0.00  0.00    +0.292 HD
ENDBRANCH   6  23
TORSDOF 5
ENDMDL
MODEL 7
REMARK VINA RESULT:      -5.8      3.739      6.019
REMARK  Name = 
REMARK  6 active torsions:
REMARK  status: ('A' for Active; 'I' for Inactive)
REMARK    1  A    between atoms: C_1  and  C_2
REMARK    2  A    between atoms: C_2  and  C_3
REMARK    3  A    between atoms: C_4  and  O_5
REMARK    4  A    between atoms: C_7  and  O_8
REMARK    5  A    between atoms: C_9  and  C_11
REMARK    6  A    between atoms: C_15  and  C_16
REMARK                            x       y       z     vdW  Elec       q    Type
REMARK                         _______ _______ _______ _____ _____    ______ ____
ROOT
ATOM      1  C   UNL     1       7.196  -4.719  23.153  0.00  0.00    -0.005 A 
ATOM      2  C   UNL     1       6.584  -5.334  24.264  0.00  0.00    +0.021 A 
ATOM      3  C   UNL     1       6.568  -4.731  25.535  0.00  0.00    +0.045 A 
ATOM      4  C   UNL     1       7.100  -3.436  25.652  0.00  0.00    +0.130 A 
ATOM      5  C   UNL     1       7.661  -2.786  24.548  0.00  0.00    +0.091 A 
ATOM      6  C   UNL     1       7.716  -3.431  23.315  0.00  0.00    +0.124 A 
ENDROOT
BRANCH   3   7
ATOM      7  C   UNL     1       6.215  -5.553  26.704  0.00  0.00    +0.105 A 
ATOM      8  C   UNL     1       5.118  -6.445  26.943  0.00  0.00    +0.047 A 
ATOM      9  C   UNL     1       5.408  -7.076  28.133  0.00  0.00    +0.115 A 
ATOM     10  N   UNL     1       6.578  -6.543  28.560  0.00  0.00    -0.283 N 
ATOM     11  H   UNL     1       7.088  -6.748  29.411  0.00  0.00    +0.188 HD
ATOM     12  N   UNL     1       7.114  -5.676  27.704  0.00  0.00    -0.173 NA
BRANCH   8  13
ATOM     13  C   UNL     1       3.928  -6.710  26.146  0.00  0.00    +0.092 A 
ATOM     14  N   UNL     1       3.914  -7.622  25.122  0.00  0.00    -0.236 NA
ATOM     15  C   UNL     1       2.740  -7.483  24.549  0.00  0.00    +0.197 A 
ATOM     16  N   UNL     1       1.973  -6.551  25.190  0.00  0.00    -0.350 N 
ATOM     17  H   UNL     1       1.039  -6.266  24.923  0.00  0.00    +0.166 HD
ATOM     18  C   UNL     1       2.720  -6.047  26.217  0.00  0.00    +0.112 A 
ENDBRANCH   8  13
ENDBRANCH   3   7
BRANCH   1  20
ATOM     19  C   UNL     1       6.035  -5.863  21.209  0.00  0.00    +0.009 C 
ATOM     20  C   UNL     1       7.351  -5.524  21.887  0.00  0.00    +0.035 C 
ENDBRANCH   1  20
BRANCH   4  21
ATOM     21  O   UNL     1       7.091  -2.773  26.854  0.00  0.00    -0.506 OA
ATOM     22  H   UNL     1       7.433  -3.368  27.541  0.00  0.00    +0.292 HD
ENDBRANCH   4  21
BRANCH   6  23
ATOM     23  O   UNL     1       8.332  -2.741  22.310  0.00  0.00    -0.506 OA
ATOM     24  H   UNL     1       9.261  -3.014  22.259  0.00  0.00    +0.292 HD
ENDBRANCH   6  23
TORSDOF 5
ENDMDL
MODEL 8
REMARK VINA RESULT:      -5.8      1.944      2.330
REMARK  Name = 
REMARK  6 active torsions:
REMARK  status: ('A' for Active; 'I' for Inactive)
REMARK    1  A    between atoms: C_1  and  C_2
REMARK    2  A    between atoms: C_2  and  C_3
REMARK    3  A    between atoms: C_4  and  O_5
REMARK    4  A    between atoms: C_7  and  O_8
REMARK    5  A    between atoms: C_9  and  C_11
REMARK    6  A    between atoms: C_15  and  C_16
REMARK                            x       y       z     vdW  Elec       q    Type
REMARK                         _______ _______ _______ _____ _____    ______ ____
ROOT
ATOM      1  C   UNL     1       8.125  -0.564  23.090  0.00  0.00    -0.005 A 
ATOM      2  C   UNL     1       7.346  -1.738  23.079  0.00  0.00    +0.021 A 
ATOM      3  C   UNL     1       7.872  -2.986  23.458  0.00  0.00    +0.045 A 
ATOM      4  C   UNL     1       9.188  -3.018  23.950  0.00  0.00    +0.130 A 
ATOM      5  C   UNL     1       9.958  -1.854  24.022  0.00  0.00    +0.091 A 
ATOM      6  C   UNL     1       9.430  -0.642  23.584  0.00  0.00    +0.124 A 
ENDROOT
BRANCH   3   7
ATOM      7  C   UNL     1       7.123  -4.205  23.114  0.00  0.00    +0.105 A 
ATOM      8  C   UNL     1       6.507  -5.206  23.936  0.00  0.00    +0.047 A 
ATOM      9  C   UNL     1       5.791  -6.004  23.071  0.00  0.00    +0.115 A 
ATOM     10  N   UNL     1       6.021  -5.508  21.831  0.00  0.00    -0.283 N 
ATOM     11  H   UNL     1       5.676  -5.852  20.943  0.00  0.00    +0.188 HD
ATOM     12  N   UNL     1       6.763  -4.402  21.827  0.00  0.00    -0.173 NA
BRANCH   8  13
ATOM     13  C   UNL     1       6.553  -5.400  25.379  0.00  0.00    +0.092 A 
ATOM     14  N   UNL     1       7.625  -5.012  26.141  0.00  0.00    -0.236 NA
ATOM     15  C   UNL     1       7.379  -5.474  27.346  0.00  0.00    +0.197 A 
ATOM     16  N   UNL     1       6.167  -6.103  27.408  0.00  0.00    -0.350 N 
ATOM     17  H   UNL     1       5.770  -6.546  28.227  0.00  0.00    +0.166 HD
ATOM     18  C   UNL     1       5.625  -6.063  26.155  0.00  0.00    +0.112 A 
ENDBRANCH   8  13
ENDBRANCH   3   7
BRANCH   1  20
ATOM     19  C   UNL     1       6.569   1.421  23.371  0.00  0.00    +0.009 C 
ATOM     20  C   UNL     1       7.544   0.683  22.470  0.00  0.00    +0.035 C 
ENDBRANCH   1  20
BRANCH   4  21
ATOM     21  O   UNL     1       9.758  -4.196  24.368  0.00  0.00    -0.506 OA
ATOM     22  H   UNL     1      10.251  -4.584  23.627  0.00  0.00    +0.292 HD
ENDBRANCH   4  21
BRANCH   6  23
ATOM     23  O   UNL     1      10.275   0.430  23.640  0.00  0.00    -0.506 OA
ATOM     24  H   UNL     1      11.164   0.149  23.378  0.00  0.00    +0.292 HD
ENDBRANCH   6  23
TORSDOF 5
ENDMDL
MODEL 9
REMARK VINA RESULT:      -5.7      3.173      6.277
REMARK  Name = 
REMARK  6 active torsions:
REMARK  status: ('A' for Active; 'I' for Inactive)
REMARK    1  A    between atoms: C_1  and  C_2
REMARK    2  A    between atoms: C_2  and  C_3
REMARK    3  A    between atoms: C_4  and  O_5
REMARK    4  A    between atoms: C_7  and  O_8
REMARK    5  A    between atoms: C_9  and  C_11
REMARK    6  A    between atoms: C_15  and  C_16
REMARK                            x       y       z     vdW  Elec       q    Type
REMARK                         _______ _______ _______ _____ _____    ______ ____
ROOT
ATOM      1  C   UNL     1       3.839  -5.449  24.387  0.00  0.00    -0.005 A 
ATOM      2  C   UNL     1       5.049  -5.011  24.963  0.00  0.00    +0.021 A 
ATOM      3  C   UNL     1       6.286  -5.179  24.317  0.00  0.00    +0.045 A 
ATOM      4  C   UNL     1       6.279  -5.712  23.017  0.00  0.00    +0.130 A 
ATOM      5  C   UNL     1       5.083  -6.100  22.405  0.00  0.00    +0.091 A 
ATOM      6  C   UNL     1       3.878  -5.978  23.093  0.00  0.00    +0.124 A 
ENDROOT
BRANCH   3   7
ATOM      7  C   UNL     1       7.522  -5.007  25.098  0.00  0.00    +0.105 A 
ATOM      8  C   UNL     1       8.600  -4.070  24.979  0.00  0.00    +0.047 A 
ATOM      9  C   UNL     1       9.384  -4.265  26.095  0.00  0.00    +0.115 A 
ATOM     10  N   UNL     1       8.805  -5.279  26.783  0.00  0.00    -0.283 N 
ATOM     11  H   UNL     1       9.115  -5.711  27.645  0.00  0.00    +0.188 HD
ATOM     12  N   UNL     1       7.663  -5.705  26.247  0.00  0.00    -0.173 NA
BRANCH   8  13
ATOM     13  C   UNL     1       8.875  -3.075  23.951  0.00  0.00    +0.092 A 
ATOM     14  N   UNL     1       7.970  -2.760  22.970  0.00  0.00    -0.236 NA
ATOM     15  C   UNL     1       8.609  -1.952  22.155  0.00  0.00    +0.197 A 
ATOM     16  N   UNL     1       9.877  -1.692  22.594  0.00  0.00    -0.350 N 
ATOM     17  H   UNL     1      10.558  -1.108  22.125  0.00  0.00    +0.166 HD
ATOM     18  C   UNL     1      10.062  -2.404  23.744  0.00  0.00    +0.112 A 
ENDBRANCH   8  13
ENDBRANCH   3   7
BRANCH   1  20
ATOM     19  C   UNL     1       2.731  -6.158  26.556  0.00  0.00    +0.009 C 
ATOM     20  C   UNL     1       2.592  -5.422  25.236  0.00  0.00    +0.035 C 
ENDBRANCH   1  20
BRANCH   4  21
ATOM     21  O   UNL     1       7.446  -5.876  22.313  0.00  0.00    -0.506 OA
ATOM     22  H   UNL     1       7.286  -6.492  21.580  0.00  0.00    +0.292 HD
ENDBRANCH   4  21
BRANCH   6  23
ATOM     23  O   UNL     1       2.770  -6.434  22.437  0.00  0.00    -0.506 OA
ATOM     24  H   UNL     1       2.780  -7.403  22.431  0.00  0.00    +0.292 HD
ENDBRANCH   6  23
TORSDOF 5
ENDMDL
