MODEL 1
REMARK VINA RESULT:      -6.3      0.000      0.000
REMARK  Name = 
REMARK  6 active torsions:
REMARK  status: ('A' for Active; 'I' for Inactive)
REMARK    1  A    between atoms: O_1  and  CU_2
REMARK    2  A    between atoms: CU_2  and  O_3
REMARK    3  A    between atoms: CU_2  and  N_4
REMARK    4  A    between atoms: CU_2  and  N_9
REMARK    5  A    between atoms: CU_2  and  N_14
REMARK    6  A    between atoms: CU_2  and  N_19
REMARK                            x       y       z     vdW  Elec       q    Type
REMARK                         _______ _______ _______ _____ _____    ______ ____
ROOT
ATOM      1 CU   UNL     1       7.897  -3.556  24.802  0.00  0.00    +0.000 Cu
ENDROOT
BRANCH   1   2
ATOM      2  N   UNL     1       6.803  -4.913  25.842  0.00  0.00    +0.000 N 
ATOM      3  C   UNL     1       7.120  -5.378  27.071  0.00  0.00    +0.000 A 
ATOM      4  N   UNL     1       6.234  -6.283  27.531  0.00  0.00    +0.000 NA
ATOM      5  C   UNL     1       5.328  -6.403  26.547  0.00  0.00    +0.000 A 
ATOM      6  C   UNL     1       5.678  -5.574  25.505  0.00  0.00    +0.000 A 
ENDBRANCH   1   2
BRANCH   1   7
ATOM      7  N   UNL     1       6.909  -4.062  23.102  0.00  0.00    +0.000 N 
ATOM      8  C   UNL     1       5.888  -3.448  22.463  0.00  0.00    +0.000 A 
ATOM      9  N   UNL     1       5.517  -4.090  21.336  0.00  0.00    +0.000 NA
ATOM     10  C   UNL     1       6.341  -5.146  21.255  0.00  0.00    +0.000 A 
ATOM     11  C   UNL     1       7.197  -5.127  22.330  0.00  0.00    +0.000 A 
ENDBRANCH   1   7
BRANCH   1  12
ATOM     12  N   UNL     1       6.502  -2.134  25.190  0.00  0.00    +0.000 N 
ATOM     13  C   UNL     1       6.304  -0.988  24.505  0.00  0.00    +0.000 A 
ATOM     14  N   UNL     1       5.316  -0.235  25.026  0.00  0.00    +0.000 NA
ATOM     15  C   UNL     1       4.873  -0.939  26.083  0.00  0.00    +0.000 A 
ATOM     16  C   UNL     1       5.594  -2.109  26.181  0.00  0.00    +0.000 A 
ENDBRANCH   1  12
BRANCH   1  17
ATOM     17  N   UNL     1       8.992  -2.199  23.763  0.00  0.00    +0.000 N 
ATOM     18  C   UNL     1       9.796  -1.243  24.275  0.00  0.00    +0.000 A 
ATOM     19  N   UNL     1      10.382  -0.492  23.321  0.00  0.00    +0.000 NA
ATOM     20  C   UNL     1       9.927  -0.996  22.160  0.00  0.00    +0.000 A 
ATOM     21  C   UNL     1       9.074  -2.039  22.428  0.00  0.00    +0.000 A 
ENDBRANCH   1  17
BRANCH   1  22
ATOM     22  O   UNL     1       9.258  -4.944  24.423  0.00  0.00    +0.000 OA
ATOM     23  H   UNL     1      10.107  -4.648  24.835  0.00  0.00    +0.000 HD
ENDBRANCH   1  22
BRANCH   1  24
ATOM     24  O   UNL     1       8.861  -3.063  26.460  0.00  0.00    +0.000 OA
ATOM     25  H   UNL     1       8.583  -2.153  26.728  0.00  0.00    +0.000 HD
ENDBRANCH   1  24
TORSDOF 6
ENDMDL
MODEL 2
REMARK VINA RESULT:      -6.3      0.433      5.472
REMARK  Name = 
REMARK  6 active torsions:
REMARK  status: ('A' for Active; 'I' for Inactive)
REMARK    1  A    between atoms: O_1  and  CU_2
REMARK    2  A    between atoms: CU_2  and  O_3
REMARK    3  A    between atoms: CU_2  and  N_4
REMARK    4  A    between atoms: CU_2  and  N_9
REMARK    5  A    between atoms: CU_2  and  N_14
REMARK    6  A    between atoms: CU_2  and  N_19
REMARK                            x       y       z     vdW  Elec       q    Type
REMARK                         _______ _______ _______ _____ _____    ______ ____
ROOT
ATOM      1 CU   UNL     1       7.930  -3.569  24.724  0.00  0.00    +0.000 Cu
ENDROOT
BRANCH   1   2
ATOM      2  N   UNL     1       9.026  -2.223  23.671  0.00  0.00    +0.000 N 
ATOM      3  C   UNL     1       9.871  -1.321  24.219  0.00  0.00    +0.000 A 
ATOM      4  N   UNL     1      10.463  -0.535  23.299  0.00  0.00    +0.000 NA
ATOM      5  C   UNL     1       9.962  -0.949  22.125  0.00  0.00    +0.000 A 
ATOM      6  C   UNL     1       9.072  -1.976  22.348  0.00  0.00    +0.000 A 
ENDBRANCH   1   2
BRANCH   1   7
ATOM      7  N   UNL     1       6.504  -2.160  25.042  0.00  0.00    +0.000 N 
ATOM      8  C   UNL     1       5.282  -2.258  25.613  0.00  0.00    +0.000 A 
ATOM      9  N   UNL     1       4.632  -1.076  25.661  0.00  0.00    +0.000 NA
ATOM     10  C   UNL     1       5.480  -0.196  25.106  0.00  0.00    +0.000 A 
ATOM     11  C   UNL     1       6.626  -0.854  24.733  0.00  0.00    +0.000 A 
ENDBRANCH   1   7
BRANCH   1  12
ATOM     12  N   UNL     1       6.989  -4.137  23.018  0.00  0.00    +0.000 N 
ATOM     13  C   UNL     1       5.964  -3.503  22.410  0.00  0.00    +0.000 A 
ATOM     14  N   UNL     1       5.537  -4.144  21.306  0.00  0.00    +0.000 NA
ATOM     15  C   UNL     1       6.329  -5.227  21.214  0.00  0.00    +0.000 A 
ATOM     16  C   UNL     1       7.227  -5.221  22.259  0.00  0.00    +0.000 A 
ENDBRANCH   1  12
BRANCH   1  17
ATOM     17  N   UNL     1       6.836  -4.916  25.776  0.00  0.00    +0.000 N 
ATOM     18  C   UNL     1       7.037  -5.302  27.054  0.00  0.00    +0.000 A 
ATOM     19  N   UNL     1       6.140  -6.221  27.466  0.00  0.00    +0.000 NA
ATOM     20  C   UNL     1       5.342  -6.422  26.402  0.00  0.00    +0.000 A 
ATOM     21  C   UNL     1       5.767  -5.626  25.366  0.00  0.00    +0.000 A 
ENDBRANCH   1  17
BRANCH   1  22
ATOM     22  O   UNL     1       8.848  -3.015  26.388  0.00  0.00    +0.000 OA
ATOM     23  H   UNL     1       8.750  -2.034  26.471  0.00  0.00    +0.000 HD
ENDBRANCH   1  22
BRANCH   1  24
ATOM     24  O   UNL     1       9.322  -4.943  24.414  0.00  0.00    +0.000 OA
ATOM     25  H   UNL     1       9.504  -4.995  23.443  0.00  0.00    +0.000 HD
ENDBRANCH   1  24
TORSDOF 6
ENDMDL
MODEL 3
REMARK VINA RESULT:      -5.7      2.110      5.056
REMARK  Name = 
REMARK  6 active torsions:
REMARK  status: ('A' for Active; 'I' for Inactive)
REMARK    1  A    between atoms: O_1  and  CU_2
REMARK    2  A    between atoms: CU_2  and  O_3
REMARK    3  A    between atoms: CU_2  and  N_4
REMARK    4  A    between atoms: CU_2  and  N_9
REMARK    5  A    between atoms: CU_2  and  N_14
REMARK    6  A    between atoms: CU_2  and  N_19
REMARK                            x       y       z     vdW  Elec       q    Type
REMARK                         _______ _______ _______ _____ _____    ______ ____
ROOT
ATOM      1 CU   UNL     1       6.788  -2.179  24.329  0.00  0.00    +0.000 Cu
ENDROOT
BRANCH   1   2
ATOM      2  N   UNL     1       7.009  -0.758  25.762  0.00  0.00    +0.000 N 
ATOM      3  C   UNL     1       6.573   0.517  25.655  0.00  0.00    +0.000 A 
ATOM      4  N   UNL     1       6.860   1.259  26.743  0.00  0.00    +0.000 NA
ATOM      5  C   UNL     1       7.514   0.421  27.563  0.00  0.00    +0.000 A 
ATOM      6  C   UNL     1       7.618  -0.813  26.962  0.00  0.00    +0.000 A 
ENDBRANCH   1   2
BRANCH   1   7
ATOM      7  N   UNL     1       8.606  -1.694  23.568  0.00  0.00    +0.000 N 
ATOM      8  C   UNL     1       9.248  -2.146  22.467  0.00  0.00    +0.000 A 
ATOM      9  N   UNL     1      10.447  -1.556  22.282  0.00  0.00    +0.000 NA
ATOM     10  C   UNL     1      10.564  -0.690  23.303  0.00  0.00    +0.000 A 
ATOM     11  C   UNL     1       9.437  -0.769  24.084  0.00  0.00    +0.000 A 
ENDBRANCH   1   7
BRANCH   1  12
ATOM     12  N   UNL     1       7.662  -3.545  25.549  0.00  0.00    +0.000 N 
ATOM     13  C   UNL     1       7.054  -4.286  26.500  0.00  0.00    +0.000 A 
ATOM     14  N   UNL     1       7.912  -5.085  27.162  0.00  0.00    +0.000 NA
ATOM     15  C   UNL     1       9.110  -4.838  26.602  0.00  0.00    +0.000 A 
ATOM     16  C   UNL     1       8.958  -3.899  25.606  0.00  0.00    +0.000 A 
ENDBRANCH   1  12
BRANCH   1  17
ATOM     17  N   UNL     1       6.566  -3.599  22.896  0.00  0.00    +0.000 N 
ATOM     18  C   UNL     1       5.882  -3.483  21.738  0.00  0.00    +0.000 A 
ATOM     19  N   UNL     1       5.916  -4.609  20.999  0.00  0.00    +0.000 NA
ATOM     20  C   UNL     1       6.651  -5.472  21.723  0.00  0.00    +0.000 A 
ATOM     21  C   UNL     1       7.048  -4.857  22.886  0.00  0.00    +0.000 A 
ENDBRANCH   1  17
BRANCH   1  22
ATOM     22  O   UNL     1       5.935  -0.846  23.139  0.00  0.00    +0.000 OA
ATOM     23  H   UNL     1       6.039   0.042  23.563  0.00  0.00    +0.000 HD
ENDBRANCH   1  22
BRANCH   1  24
ATOM     24  O   UNL     1       5.014  -2.651  25.072  0.00  0.00    +0.000 OA
ATOM     25  H   UNL     1       5.107  -2.791  26.046  0.00  0.00    +0.000 HD
ENDBRANCH   1  24
TORSDOF 6
ENDMDL
MODEL 4
REMARK VINA RESULT:      -5.7      2.102      4.851
REMARK  Name = 
REMARK  6 active torsions:
REMARK  status: ('A' for Active; 'I' for Inactive)
REMARK    1  A    between atoms: O_1  and  CU_2
REMARK    2  A    between atoms: CU_2  and  O_3
REMARK    3  A    between atoms: CU_2  and  N_4
REMARK    4  A    between atoms: CU_2  and  N_9
REMARK    5  A    between atoms: CU_2  and  N_14
REMARK    6  A    between atoms: CU_2  and  N_19
REMARK                            x       y       z     vdW  Elec       q    Type
REMARK                         _______ _______ _______ _____ _____    ______ ____
ROOT
ATOM      1 CU   UNL     1       6.735  -2.057  24.333  0.00  0.00    +0.000 Cu
ENDROOT
BRANCH   1   2
ATOM      2  N   UNL     1       6.547  -3.469  22.887  0.00  0.00    +0.000 N 
ATOM      3  C   UNL     1       5.799  -3.332  21.769  0.00  0.00    +0.000 A 
ATOM      4  N   UNL     1       5.835  -4.423  20.980  0.00  0.00    +0.000 NA
ATOM      5  C   UNL     1       6.627  -5.288  21.632  0.00  0.00    +0.000 A 
ATOM      6  C   UNL     1       7.058  -4.713  22.806  0.00  0.00    +0.000 A 
ENDBRANCH   1   2
BRANCH   1   7
ATOM      7  N   UNL     1       7.485  -3.455  25.600  0.00  0.00    +0.000 N 
ATOM      8  C   UNL     1       8.763  -3.751  25.926  0.00  0.00    +0.000 A 
ATOM      9  N   UNL     1       8.853  -4.744  26.835  0.00  0.00    +0.000 NA
ATOM     10  C   UNL     1       7.581  -5.082  27.101  0.00  0.00    +0.000 A 
ATOM     11  C   UNL     1       6.744  -4.291  26.353  0.00  0.00    +0.000 A 
ENDBRANCH   1   7
BRANCH   1  12
ATOM     12  N   UNL     1       8.612  -1.640  23.682  0.00  0.00    +0.000 N 
ATOM     13  C   UNL     1       9.231  -2.172  22.607  0.00  0.00    +0.000 A 
ATOM     14  N   UNL     1      10.488  -1.713  22.452  0.00  0.00    +0.000 NA
ATOM     15  C   UNL     1      10.665  -0.854  23.472  0.00  0.00    +0.000 A 
ATOM     16  C   UNL     1       9.513  -0.802  24.224  0.00  0.00    +0.000 A 
ENDBRANCH   1  12
BRANCH   1  17
ATOM     17  N   UNL     1       6.923  -0.645  25.778  0.00  0.00    +0.000 N 
ATOM     18  C   UNL     1       6.615   0.666  25.676  0.00  0.00    +0.000 A 
ATOM     19  N   UNL     1       6.860   1.347  26.813  0.00  0.00    +0.000 NA
ATOM     20  C   UNL     1       7.343   0.427  27.666  0.00  0.00    +0.000 A 
ATOM     21  C   UNL     1       7.384  -0.792  27.035  0.00  0.00    +0.000 A 
ENDBRANCH   1  17
BRANCH   1  22
ATOM     22  O   UNL     1       4.904  -2.464  24.968  0.00  0.00    +0.000 OA
ATOM     23  H   UNL     1       4.897  -2.348  25.950  0.00  0.00    +0.000 HD
ENDBRANCH   1  22
BRANCH   1  24
ATOM     24  O   UNL     1       6.004  -0.694  23.097  0.00  0.00    +0.000 OA
ATOM     25  H   UNL     1       5.871   0.148  23.598  0.00  0.00    +0.000 HD
ENDBRANCH   1  24
TORSDOF 6
ENDMDL
MODEL 5
REMARK VINA RESULT:      -5.5      2.075      5.104
REMARK  Name = 
REMARK  6 active torsions:
REMARK  status: ('A' for Active; 'I' for Inactive)
REMARK    1  A    between atoms: O_1  and  CU_2
REMARK    2  A    between atoms: CU_2  and  O_3
REMARK    3  A    between atoms: CU_2  and  N_4
REMARK    4  A    between atoms: CU_2  and  N_9
REMARK    5  A    between atoms: CU_2  and  N_14
REMARK    6  A    between atoms: CU_2  and  N_19
REMARK                            x       y       z     vdW  Elec       q    Type
REMARK                         _______ _______ _______ _____ _____    ______ ____
ROOT
ATOM      1 CU   UNL     1       6.726  -2.516  24.154  0.00  0.00    +0.000 Cu
ENDROOT
BRANCH   1   2
ATOM      2  N   UNL     1       8.539  -1.877  23.503  0.00  0.00    +0.000 N 
ATOM      3  C   UNL     1       9.328  -0.998  24.162  0.00  0.00    +0.000 A 
ATOM      4  N   UNL     1      10.473  -0.731  23.505  0.00  0.00    +0.000 NA
ATOM      5  C   UNL     1      10.399  -1.460  22.381  0.00  0.00    +0.000 A 
ATOM      6  C   UNL     1       9.211  -2.156  22.370  0.00  0.00    +0.000 A 
ENDBRANCH   1   2
BRANCH   1   7
ATOM      7  N   UNL     1       6.766  -4.019  22.790  0.00  0.00    +0.000 N 
ATOM      8  C   UNL     1       7.381  -5.222  22.825  0.00  0.00    +0.000 A 
ATOM      9  N   UNL     1       7.147  -5.961  21.720  0.00  0.00    +0.000 NA
ATOM     10  C   UNL     1       6.345  -5.197  20.961  0.00  0.00    +0.000 A 
ATOM     11  C   UNL     1       6.105  -4.014  21.616  0.00  0.00    +0.000 A 
ENDBRANCH   1   7
BRANCH   1  12
ATOM     12  N   UNL     1       7.637  -3.722  25.509  0.00  0.00    +0.000 N 
ATOM     13  C   UNL     1       7.054  -4.355  26.549  0.00  0.00    +0.000 A 
ATOM     14  N   UNL     1       7.932  -5.062  27.286  0.00  0.00    +0.000 NA
ATOM     15  C   UNL     1       9.118  -4.866  26.682  0.00  0.00    +0.000 A 
ATOM     16  C   UNL     1       8.939  -4.050  25.587  0.00  0.00    +0.000 A 
ENDBRANCH   1  12
BRANCH   1  17
ATOM     17  N   UNL     1       4.913  -3.155  24.806  0.00  0.00    +0.000 N 
ATOM     18  C   UNL     1       4.123  -2.556  25.722  0.00  0.00    +0.000 A 
ATOM     19  N   UNL     1       2.979  -3.233  25.945  0.00  0.00    +0.000 NA
ATOM     20  C   UNL     1       3.053  -4.304  25.135  0.00  0.00    +0.000 A 
ATOM     21  C   UNL     1       4.235  -4.260  24.439  0.00  0.00    +0.000 A 
ENDBRANCH   1  17
BRANCH   1  22
ATOM     22  O   UNL     1       5.837  -1.340  22.832  0.00  0.00    +0.000 OA
ATOM     23  H   UNL     1       6.527  -1.035  22.194  0.00  0.00    +0.000 HD
ENDBRANCH   1  22
BRANCH   1  24
ATOM     24  O   UNL     1       6.687  -1.050  25.484  0.00  0.00    +0.000 OA
ATOM     25  H   UNL     1       6.501  -0.201  25.013  0.00  0.00    +0.000 HD
ENDBRANCH   1  24
TORSDOF 6
ENDMDL
MODEL 6
REMARK VINA RESULT:      -5.5      2.101      4.371
REMARK  Name = 
REMARK  6 active torsions:
REMARK  status: ('A' for Active; 'I' for Inactive)
REMARK    1  A    between atoms: O_1  and  CU_2
REMARK    2  A    between atoms: CU_2  and  O_3
REMARK    3  A    between atoms: CU_2  and  N_4
REMARK    4  A    between atoms: CU_2  and  N_9
REMARK    5  A    between atoms: CU_2  and  N_14
REMARK    6  A    between atoms: CU_2  and  N_19
REMARK                            x       y       z     vdW  Elec       q    Type
REMARK                         _______ _______ _______ _____ _____    ______ ____
ROOT
ATOM      1 CU   UNL     1       6.990  -2.425  23.891  0.00  0.00    +0.000 Cu
ENDROOT
BRANCH   1   2
ATOM      2  N   UNL     1       5.334  -3.579  23.683  0.00  0.00    +0.000 N 
ATOM      3  C   UNL     1       5.165  -4.518  22.725  0.00  0.00    +0.000 A 
ATOM      4  N   UNL     1       3.968  -5.131  22.801  0.00  0.00    +0.000 NA
ATOM      5  C   UNL     1       3.352  -4.548  23.841  0.00  0.00    +0.000 A 
ATOM      6  C   UNL     1       4.180  -3.588  24.379  0.00  0.00    +0.000 A 
ENDBRANCH   1   2
BRANCH   1   7
ATOM      7  N   UNL     1       6.150  -1.508  25.496  0.00  0.00    +0.000 N 
ATOM      8  C   UNL     1       6.169  -1.838  26.807  0.00  0.00    +0.000 A 
ATOM      9  N   UNL     1       5.504  -0.952  27.577  0.00  0.00    +0.000 NA
ATOM     10  C   UNL     1       5.054  -0.022  26.720  0.00  0.00    +0.000 A 
ATOM     11  C   UNL     1       5.454  -0.356  25.450  0.00  0.00    +0.000 A 
ENDBRANCH   1   7
BRANCH   1  12
ATOM     12  N   UNL     1       7.809  -3.821  25.117  0.00  0.00    +0.000 N 
ATOM     13  C   UNL     1       7.189  -4.900  25.640  0.00  0.00    +0.000 A 
ATOM     14  N   UNL     1       7.995  -5.624  26.441  0.00  0.00    +0.000 NA
ATOM     15  C   UNL     1       9.171  -4.973  26.417  0.00  0.00    +0.000 A 
ATOM     16  C   UNL     1       9.063  -3.870  25.600  0.00  0.00    +0.000 A 
ENDBRANCH   1  12
BRANCH   1  17
ATOM     17  N   UNL     1       8.647  -1.271  24.099  0.00  0.00    +0.000 N 
ATOM     18  C   UNL     1       9.675  -1.164  23.230  0.00  0.00    +0.000 A 
ATOM     19  N   UNL     1      10.632  -0.318  23.659  0.00  0.00    +0.000 NA
ATOM     20  C   UNL     1      10.190   0.125  24.849  0.00  0.00    +0.000 A 
ATOM     21  C   UNL     1       8.976  -0.458  25.122  0.00  0.00    +0.000 A 
ENDBRANCH   1  17
BRANCH   1  22
ATOM     22  O   UNL     1       6.192  -1.063  22.696  0.00  0.00    +0.000 OA
ATOM     23  H   UNL     1       5.594  -1.535  22.065  0.00  0.00    +0.000 HD
ENDBRANCH   1  22
BRANCH   1  24
ATOM     24  O   UNL     1       7.809  -3.319  22.326  0.00  0.00    +0.000 OA
ATOM     25  H   UNL     1       7.453  -4.240  22.266  0.00  0.00    +0.000 HD
ENDBRANCH   1  24
TORSDOF 6
ENDMDL
MODEL 7
REMARK VINA RESULT:      -5.5      1.827      2.130
REMARK  Name = 
REMARK  6 active torsions:
REMARK  status: ('A' for Active; 'I' for Inactive)
REMARK    1  A    between atoms: O_1  and  CU_2
REMARK    2  A    between atoms: CU_2  and  O_3
REMARK    3  A    between atoms: CU_2  and  N_4
REMARK    4  A    between atoms: CU_2  and  N_9
REMARK    5  A    between atoms: CU_2  and  N_14
REMARK    6  A    between atoms: CU_2  and  N_19
REMARK                            x       y       z     vdW  Elec       q    Type
REMARK                         _______ _______ _______ _____ _____    ______ ____
ROOT
ATOM      1 CU   UNL     1       8.327  -1.986  24.243  0.00  0.00    +0.000 Cu
ENDROOT
BRANCH   1   2
ATOM      2  N   UNL     1       8.282  -3.539  25.549  0.00  0.00    +0.000 N 
ATOM      3  C   UNL     1       7.365  -3.693  26.531  0.00  0.00    +0.000 A 
ATOM      4  N   UNL     1       7.570  -4.803  27.266  0.00  0.00    +0.000 NA
ATOM      5  C   UNL     1       8.667  -5.366  26.735  0.00  0.00    +0.000 A 
ATOM      6  C   UNL     1       9.114  -4.589  25.689  0.00  0.00    +0.000 A 
ENDBRANCH   1   2
BRANCH   1   7
ATOM      7  N   UNL     1       7.109  -3.010  22.983  0.00  0.00    +0.000 N 
ATOM      8  C   UNL     1       6.359  -2.582  21.943  0.00  0.00    +0.000 A 
ATOM      9  N   UNL     1       5.696  -3.584  21.329  0.00  0.00    +0.000 NA
ATOM     10  C   UNL     1       6.048  -4.691  22.003  0.00  0.00    +0.000 A 
ATOM     11  C   UNL     1       6.916  -4.343  23.009  0.00  0.00    +0.000 A 
ENDBRANCH   1   7
BRANCH   1  12
ATOM     12  N   UNL     1       6.704  -1.174  25.153  0.00  0.00    +0.000 N 
ATOM     13  C   UNL     1       5.410  -1.483  24.923  0.00  0.00    +0.000 A 
ATOM     14  N   UNL     1       4.561  -0.749  25.667  0.00  0.00    +0.000 NA
ATOM     15  C   UNL     1       5.356   0.054  26.398  0.00  0.00    +0.000 A 
ATOM     16  C   UNL     1       6.672  -0.210  26.090  0.00  0.00    +0.000 A 
ENDBRANCH   1  12
BRANCH   1  17
ATOM     17  N   UNL     1       8.373  -0.432  22.938  0.00  0.00    +0.000 N 
ATOM     18  C   UNL     1       9.248  -0.249  21.927  0.00  0.00    +0.000 A 
ATOM     19  N   UNL     1       9.019   0.889  21.241  0.00  0.00    +0.000 NA
ATOM     20  C   UNL     1       7.955   1.446  21.847  0.00  0.00    +0.000 A 
ATOM     21  C   UNL     1       7.559   0.640  22.887  0.00  0.00    +0.000 A 
ENDBRANCH   1  17
BRANCH   1  22
ATOM     22  O   UNL     1       9.910  -2.778  23.356  0.00  0.00    +0.000 OA
ATOM     23  H   UNL     1      10.541  -3.057  24.065  0.00  0.00    +0.000 HD
ENDBRANCH   1  22
BRANCH   1  24
ATOM     24  O   UNL     1       9.515  -0.988  25.473  0.00  0.00    +0.000 OA
ATOM     25  H   UNL     1       9.094  -0.960  26.367  0.00  0.00    +0.000 HD
ENDBRANCH   1  24
TORSDOF 6
ENDMDL
MODEL 8
REMARK VINA RESULT:      -5.5      2.249      4.658
REMARK  Name = 
REMARK  6 active torsions:
REMARK  status: ('A' for Active; 'I' for Inactive)
REMARK    1  A    between atoms: O_1  and  CU_2
REMARK    2  A    between atoms: CU_2  and  O_3
REMARK    3  A    between atoms: CU_2  and  N_4
REMARK    4  A    between atoms: CU_2  and  N_9
REMARK    5  A    between atoms: CU_2  and  N_14
REMARK    6  A    between atoms: CU_2  and  N_19
REMARK                            x       y       z     vdW  Elec       q    Type
REMARK                         _______ _______ _______ _____ _____    ______ ____
ROOT
ATOM      1 CU   UNL     1       6.932  -2.579  24.035  0.00  0.00    +0.000 Cu
ENDROOT
BRANCH   1   2
ATOM      2  N   UNL     1       7.202  -1.113  25.413  0.00  0.00    +0.000 N 
ATOM      3  C   UNL     1       7.054   0.209  25.170  0.00  0.00    +0.000 A 
ATOM      4  N   UNL     1       7.306   0.969  26.253  0.00  0.00    +0.000 NA
ATOM      5  C   UNL     1       7.640   0.093  27.214  0.00  0.00    +0.000 A 
ATOM      6  C   UNL     1       7.588  -1.184  26.701  0.00  0.00    +0.000 A 
ENDBRANCH   1   2
BRANCH   1   7
ATOM      7  N   UNL     1       7.612  -3.954  25.364  0.00  0.00    +0.000 N 
ATOM      8  C   UNL     1       6.941  -4.762  26.215  0.00  0.00    +0.000 A 
ATOM      9  N   UNL     1       7.759  -5.564  26.928  0.00  0.00    +0.000 NA
ATOM     10  C   UNL     1       8.995  -5.257  26.505  0.00  0.00    +0.000 A 
ATOM     11  C   UNL     1       8.907  -4.279  25.545  0.00  0.00    +0.000 A 
ENDBRANCH   1   7
BRANCH   1  12
ATOM     12  N   UNL     1       5.038  -2.864  24.709  0.00  0.00    +0.000 N 
ATOM     13  C   UNL     1       4.410  -2.160  25.675  0.00  0.00    +0.000 A 
ATOM     14  N   UNL     1       3.164  -2.610  25.917  0.00  0.00    +0.000 NA
ATOM     15  C   UNL     1       3.001  -3.637  25.065  0.00  0.00    +0.000 A 
ATOM     16  C   UNL     1       4.147  -3.791  24.317  0.00  0.00    +0.000 A 
ENDBRANCH   1  12
BRANCH   1  17
ATOM     17  N   UNL     1       6.661  -4.044  22.656  0.00  0.00    +0.000 N 
ATOM     18  C   UNL     1       6.009  -3.939  21.479  0.00  0.00    +0.000 A 
ATOM     19  N   UNL     1       5.996  -5.096  20.788  0.00  0.00    +0.000 NA
ATOM     20  C   UNL     1       6.667  -5.966  21.563  0.00  0.00    +0.000 A 
ATOM     21  C   UNL     1       7.073  -5.326  22.708  0.00  0.00    +0.000 A 
ENDBRANCH   1  17
BRANCH   1  22
ATOM     22  O   UNL     1       8.778  -2.301  23.377  0.00  0.00    +0.000 OA
ATOM     23  H   UNL     1       8.801  -1.428  22.913  0.00  0.00    +0.000 HD
ENDBRANCH   1  22
BRANCH   1  24
ATOM     24  O   UNL     1       6.268  -1.237  22.739  0.00  0.00    +0.000 OA
ATOM     25  H   UNL     1       6.931  -1.146  22.010  0.00  0.00    +0.000 HD
ENDBRANCH   1  24
TORSDOF 6
ENDMDL
MODEL 9
REMARK VINA RESULT:      -5.4      2.062      5.055
REMARK  Name = 
REMARK  6 active torsions:
REMARK  status: ('A' for Active; 'I' for Inactive)
REMARK    1  A    between atoms: O_1  and  CU_2
REMARK    2  A    between atoms: CU_2  and  O_3
REMARK    3  A    between atoms: CU_2  and  N_4
REMARK    4  A    between atoms: CU_2  and  N_9
REMARK    5  A    between atoms: CU_2  and  N_14
REMARK    6  A    between atoms: CU_2  and  N_19
REMARK                            x       y       z     vdW  Elec       q    Type
REMARK                         _______ _______ _______ _____ _____    ______ ____
ROOT
ATOM      1 CU   UNL     1       6.941  -2.434  23.952  0.00  0.00    +0.000 Cu
ENDROOT
BRANCH   1   2
ATOM      2  N   UNL     1       8.599  -1.289  24.196  0.00  0.00    +0.000 N 
ATOM      3  C   UNL     1       9.621  -1.217  23.314  0.00  0.00    +0.000 A 
ATOM      4  N   UNL     1      10.606  -0.394  23.724  0.00  0.00    +0.000 NA
ATOM      5  C   UNL     1      10.195   0.062  24.917  0.00  0.00    +0.000 A 
ATOM      6  C   UNL     1       8.970  -0.492  25.217  0.00  0.00    +0.000 A 
ENDBRANCH   1   2
BRANCH   1   7
ATOM      7  N   UNL     1       7.716  -3.825  25.212  0.00  0.00    +0.000 N 
ATOM      8  C   UNL     1       7.177  -4.962  25.706  0.00  0.00    +0.000 A 
ATOM      9  N   UNL     1       8.028  -5.639  26.505  0.00  0.00    +0.000 NA
ATOM     10  C   UNL     1       9.152  -4.905  26.508  0.00  0.00    +0.000 A 
ATOM     11  C   UNL     1       8.966  -3.800  25.713  0.00  0.00    +0.000 A 
ENDBRANCH   1   7
BRANCH   1  12
ATOM     12  N   UNL     1       6.063  -1.498  25.526  0.00  0.00    +0.000 N 
ATOM     13  C   UNL     1       5.370  -0.340  25.493  0.00  0.00    +0.000 A 
ATOM     14  N   UNL     1       4.934   0.038  26.710  0.00  0.00    +0.000 NA
ATOM     15  C   UNL     1       5.369  -0.925  27.542  0.00  0.00    +0.000 A 
ATOM     16  C   UNL     1       6.056  -1.873  26.817  0.00  0.00    +0.000 A 
ENDBRANCH   1  12
BRANCH   1  17
ATOM     17  N   UNL     1       5.282  -3.578  23.708  0.00  0.00    +0.000 N 
ATOM     18  C   UNL     1       5.057  -4.480  22.730  0.00  0.00    +0.000 A 
ATOM     19  N   UNL     1       3.852  -5.075  22.839  0.00  0.00    +0.000 NA
ATOM     20  C   UNL     1       3.295  -4.523  23.932  0.00  0.00    +0.000 A 
ATOM     21  C   UNL     1       4.168  -3.605  24.464  0.00  0.00    +0.000 A 
ENDBRANCH   1  17
BRANCH   1  22
ATOM     22  O   UNL     1       7.796  -3.347  22.418  0.00  0.00    +0.000 OA
ATOM     23  H   UNL     1       7.149  -4.006  22.064  0.00  0.00    +0.000 HD
ENDBRANCH   1  22
BRANCH   1  24
ATOM     24  O   UNL     1       6.185  -1.077  22.724  0.00  0.00    +0.000 OA
ATOM     25  H   UNL     1       5.202  -1.180  22.705  0.00  0.00    +0.000 HD
ENDBRANCH   1  24
TORSDOF 6
ENDMDL
