MODEL 1
REMARK VINA RESULT:      -5.8      0.000      0.000
REMARK  Name = 
REMARK  4 active torsions:
REMARK  status: ('A' for Active; 'I' for Inactive)
REMARK    1  A    between atoms: C_1  and  C_2
REMARK    2  A    between atoms: C_2  and  C_3
REMARK    3  A    between atoms: C_8  and  N_9
REMARK    4  A    between atoms: C_10  and  C_11
REMARK                            x       y       z     vdW  Elec       q    Type
REMARK                         _______ _______ _______ _____ _____    ______ ____
ROOT
ATOM      1  C   UNL     1       7.300  -5.182  26.573  0.00  0.00    +0.056 A 
ATOM      2  C   UNL     1       6.289  -5.464  25.639  0.00  0.00    +0.043 A 
ATOM      3  C   UNL     1       5.370  -6.411  26.135  0.00  0.00    +0.129 A 
ATOM      4  N   UNL     1       5.375  -6.921  27.379  0.00  0.00    -0.199 NA
ATOM      5  C   UNL     1       6.340  -6.524  28.187  0.00  0.00    +0.214 A 
ATOM      6  N   UNL     1       6.373  -7.045  29.464  0.00  0.00    -0.327 N 
ATOM      7  H   UNL     1       5.880  -7.925  29.486  0.00  0.00    +0.145 HD
ATOM      8  H   UNL     1       7.321  -7.029  29.813  0.00  0.00    +0.145 HD
ATOM      9  N   UNL     1       7.327  -5.710  27.829  0.00  0.00    -0.219 NA
ENDROOT
BRANCH   2  10
ATOM     10  C   UNL     1       6.159  -4.881  24.254  0.00  0.00    -0.013 A 
ATOM     11  C   UNL     1       5.473  -3.688  23.961  0.00  0.00    +0.008 A 
ATOM     12  C   UNL     1       5.451  -3.118  22.679  0.00  0.00    +0.001 A 
ATOM     13  C   UNL     1       6.146  -3.711  21.638  0.00  0.00    +0.000 A 
ATOM     14  C   UNL     1       6.808  -4.907  21.868  0.00  0.00    +0.001 A 
ATOM     15  C   UNL     1       6.781  -5.494  23.142  0.00  0.00    +0.008 A 
ENDBRANCH   2  10
BRANCH   3  16
ATOM     16  N   UNL     1       4.336  -6.945  25.359  0.00  0.00    -0.343 N 
ATOM     17  H   UNL     1       4.183  -7.923  25.581  0.00  0.00    +0.144 HD
ATOM     18  H   UNL     1       3.513  -6.376  25.538  0.00  0.00    +0.144 HD
ENDBRANCH   3  16
BRANCH   1  20
ATOM     19  C   UNL     1       9.598  -5.134  25.587  0.00  0.00    +0.010 C 
ATOM     20  C   UNL     1       8.515  -4.333  26.308  0.00  0.00    +0.053 C 
ENDBRANCH   1  20
TORSDOF 3
ENDMDL
MODEL 2
REMARK VINA RESULT:      -5.7      3.425      4.659
REMARK  Name = 
REMARK  4 active torsions:
REMARK  status: ('A' for Active; 'I' for Inactive)
REMARK    1  A    between atoms: C_1  and  C_2
REMARK    2  A    between atoms: C_2  and  C_3
REMARK    3  A    between atoms: C_8  and  N_9
REMARK    4  A    between atoms: C_10  and  C_11
REMARK                            x       y       z     vdW  Elec       q    Type
REMARK                         _______ _______ _______ _____ _____    ______ ____
ROOT
ATOM      1  C   UNL     1       7.803  -3.778  23.690  0.00  0.00    +0.056 A 
ATOM      2  C   UNL     1       8.232  -2.497  24.072  0.00  0.00    +0.043 A 
ATOM      3  C   UNL     1       8.539  -2.438  25.447  0.00  0.00    +0.129 A 
ATOM      4  N   UNL     1       8.529  -3.486  26.290  0.00  0.00    -0.199 NA
ATOM      5  C   UNL     1       8.173  -4.654  25.791  0.00  0.00    +0.214 A 
ATOM      6  N   UNL     1       8.143  -5.741  26.642  0.00  0.00    -0.327 N 
ATOM      7  H   UNL     1       8.041  -5.426  27.595  0.00  0.00    +0.145 HD
ATOM      8  H   UNL     1       7.479  -6.421  26.300  0.00  0.00    +0.145 HD
ATOM      9  N   UNL     1       7.768  -4.842  24.541  0.00  0.00    -0.219 NA
ENDROOT
BRANCH   2  10
ATOM     10  C   UNL     1       8.350  -1.286  23.181  0.00  0.00    -0.013 A 
ATOM     11  C   UNL     1       7.390  -0.260  23.112  0.00  0.00    +0.008 A 
ATOM     12  C   UNL     1       7.572   0.903  22.347  0.00  0.00    +0.001 A 
ATOM     13  C   UNL     1       8.747   1.097  21.638  0.00  0.00    +0.000 A 
ATOM     14  C   UNL     1       9.708   0.098  21.645  0.00  0.00    +0.001 A 
ATOM     15  C   UNL     1       9.493  -1.082  22.373  0.00  0.00    +0.008 A 
ENDBRANCH   2  10
BRANCH   3  16
ATOM     16  N   UNL     1       8.880  -1.250  26.100  0.00  0.00    -0.343 N 
ATOM     17  H   UNL     1       9.648  -1.397  26.746  0.00  0.00    +0.144 HD
ATOM     18  H   UNL     1       9.110  -0.574  25.375  0.00  0.00    +0.144 HD
ENDBRANCH   3  16
BRANCH   1  20
ATOM     19  C   UNL     1       7.237  -5.658  22.138  0.00  0.00    +0.010 C 
ATOM     20  C   UNL     1       7.258  -4.142  22.333  0.00  0.00    +0.053 C 
ENDBRANCH   1  20
TORSDOF 3
ENDMDL
MODEL 3
REMARK VINA RESULT:      -5.7      2.289      3.733
REMARK  Name = 
REMARK  4 active torsions:
REMARK  status: ('A' for Active; 'I' for Inactive)
REMARK    1  A    between atoms: C_1  and  C_2
REMARK    2  A    between atoms: C_2  and  C_3
REMARK    3  A    between atoms: C_8  and  N_9
REMARK    4  A    between atoms: C_10  and  C_11
REMARK                            x       y       z     vdW  Elec       q    Type
REMARK                         _______ _______ _______ _____ _____    ______ ____
ROOT
ATOM      1  C   UNL     1       7.330  -4.915  23.783  0.00  0.00    +0.056 A 
ATOM      2  C   UNL     1       6.281  -5.212  24.668  0.00  0.00    +0.043 A 
ATOM      3  C   UNL     1       6.761  -5.668  25.912  0.00  0.00    +0.129 A 
ATOM      4  N   UNL     1       8.055  -5.724  26.272  0.00  0.00    -0.199 NA
ATOM      5  C   UNL     1       8.945  -5.351  25.371  0.00  0.00    +0.214 A 
ATOM      6  N   UNL     1      10.281  -5.413  25.714  0.00  0.00    -0.327 N 
ATOM      7  H   UNL     1      10.410  -6.076  26.464  0.00  0.00    +0.145 HD
ATOM      8  H   UNL     1      10.839  -5.534  24.881  0.00  0.00    +0.145 HD
ATOM      9  N   UNL     1       8.646  -4.989  24.129  0.00  0.00    -0.219 NA
ENDROOT
BRANCH   2  10
ATOM     10  C   UNL     1       4.804  -5.103  24.379  0.00  0.00    -0.013 A 
ATOM     11  C   UNL     1       4.062  -6.074  23.682  0.00  0.00    +0.008 A 
ATOM     12  C   UNL     1       2.672  -5.993  23.513  0.00  0.00    +0.001 A 
ATOM     13  C   UNL     1       1.960  -4.940  24.066  0.00  0.00    +0.000 A 
ATOM     14  C   UNL     1       2.651  -3.939  24.730  0.00  0.00    +0.001 A 
ATOM     15  C   UNL     1       4.047  -4.005  24.849  0.00  0.00    +0.008 A 
ENDBRANCH   2  10
BRANCH   3  16
ATOM     16  N   UNL     1       5.920  -6.136  26.926  0.00  0.00    -0.343 N 
ATOM     17  H   UNL     1       6.400  -6.809  27.515  0.00  0.00    +0.144 HD
ATOM     18  H   UNL     1       5.608  -5.320  27.448  0.00  0.00    +0.144 HD
ENDBRANCH   3  16
BRANCH   1  20
ATOM     19  C   UNL     1       7.015  -5.798  21.463  0.00  0.00    +0.010 C 
ATOM     20  C   UNL     1       7.164  -4.549  22.331  0.00  0.00    +0.053 C 
ENDBRANCH   1  20
TORSDOF 3
ENDMDL
MODEL 4
REMARK VINA RESULT:      -5.6      2.520      4.104
REMARK  Name = 
REMARK  4 active torsions:
REMARK  status: ('A' for Active; 'I' for Inactive)
REMARK    1  A    between atoms: C_1  and  C_2
REMARK    2  A    between atoms: C_2  and  C_3
REMARK    3  A    between atoms: C_8  and  N_9
REMARK    4  A    between atoms: C_10  and  C_11
REMARK                            x       y       z     vdW  Elec       q    Type
REMARK                         _______ _______ _______ _____ _____    ______ ____
ROOT
ATOM      1  C   UNL     1       6.330  -3.806  25.310  0.00  0.00    +0.056 A 
ATOM      2  C   UNL     1       7.716  -3.721  25.523  0.00  0.00    +0.043 A 
ATOM      3  C   UNL     1       8.182  -4.764  26.349  0.00  0.00    +0.129 A 
ATOM      4  N   UNL     1       7.435  -5.784  26.807  0.00  0.00    -0.199 NA
ATOM      5  C   UNL     1       6.157  -5.787  26.479  0.00  0.00    +0.214 A 
ATOM      6  N   UNL     1       5.369  -6.818  26.949  0.00  0.00    -0.327 N 
ATOM      7  H   UNL     1       5.790  -7.222  27.772  0.00  0.00    +0.145 HD
ATOM      8  H   UNL     1       4.410  -6.508  27.018  0.00  0.00    +0.145 HD
ATOM      9  N   UNL     1       5.560  -4.824  25.788  0.00  0.00    -0.219 NA
ENDROOT
BRANCH   2  10
ATOM     10  C   UNL     1       8.643  -2.660  24.985  0.00  0.00    -0.013 A 
ATOM     11  C   UNL     1       9.363  -2.776  23.782  0.00  0.00    +0.008 A 
ATOM     12  C   UNL     1      10.142  -1.734  23.257  0.00  0.00    +0.001 A 
ATOM     13  C   UNL     1      10.207  -0.513  23.909  0.00  0.00    +0.000 A 
ATOM     14  C   UNL     1       9.544  -0.361  25.117  0.00  0.00    +0.001 A 
ATOM     15  C   UNL     1       8.809  -1.427  25.657  0.00  0.00    +0.008 A 
ENDBRANCH   2  10
BRANCH   3  16
ATOM     16  N   UNL     1       9.502  -4.841  26.804  0.00  0.00    -0.343 N 
ATOM     17  H   UNL     1       9.841  -5.797  26.776  0.00  0.00    +0.144 HD
ATOM     18  H   UNL     1      10.051  -4.220  26.214  0.00  0.00    +0.144 HD
ENDBRANCH   3  16
BRANCH   1  20
ATOM     19  C   UNL     1       5.560  -2.956  23.087  0.00  0.00    +0.010 C 
ATOM     20  C   UNL     1       5.495  -2.770  24.602  0.00  0.00    +0.053 C 
ENDBRANCH   1  20
TORSDOF 3
ENDMDL
MODEL 5
REMARK VINA RESULT:      -5.5      2.848      5.205
REMARK  Name = 
REMARK  4 active torsions:
REMARK  status: ('A' for Active; 'I' for Inactive)
REMARK    1  A    between atoms: C_1  and  C_2
REMARK    2  A    between atoms: C_2  and  C_3
REMARK    3  A    between atoms: C_8  and  N_9
REMARK    4  A    between atoms: C_10  and  C_11
REMARK                            x       y       z     vdW  Elec       q    Type
REMARK                         _______ _______ _______ _____ _____    ______ ____
ROOT
ATOM      1  C   UNL     1       7.287  -3.168  24.473  0.00  0.00    +0.056 A 
ATOM      2  C   UNL     1       7.680  -4.308  25.194  0.00  0.00    +0.043 A 
ATOM      3  C   UNL     1       9.052  -4.583  25.029  0.00  0.00    +0.129 A 
ATOM      4  N   UNL     1       9.923  -3.811  24.355  0.00  0.00    -0.199 NA
ATOM      5  C   UNL     1       9.442  -2.727  23.778  0.00  0.00    +0.214 A 
ATOM      6  N   UNL     1      10.316  -1.926  23.069  0.00  0.00    -0.327 N 
ATOM      7  H   UNL     1      11.118  -2.467  22.783  0.00  0.00    +0.145 HD
ATOM      8  H   UNL     1       9.811  -1.423  22.354  0.00  0.00    +0.145 HD
ATOM      9  N   UNL     1       8.157  -2.391  23.769  0.00  0.00    -0.219 NA
ENDROOT
BRANCH   2  10
ATOM     10  C   UNL     1       6.790  -5.187  26.038  0.00  0.00    -0.013 A 
ATOM     11  C   UNL     1       6.814  -5.215  27.445  0.00  0.00    +0.008 A 
ATOM     12  C   UNL     1       5.908  -5.969  28.206  0.00  0.00    +0.001 A 
ATOM     13  C   UNL     1       4.916  -6.709  27.582  0.00  0.00    +0.000 A 
ATOM     14  C   UNL     1       4.874  -6.742  26.197  0.00  0.00    +0.001 A 
ATOM     15  C   UNL     1       5.816  -6.023  25.446  0.00  0.00    +0.008 A 
ENDBRANCH   2  10
BRANCH   3  16
ATOM     16  N   UNL     1       9.666  -5.727  25.549  0.00  0.00    -0.343 N 
ATOM     17  H   UNL     1       9.006  -6.285  26.080  0.00  0.00    +0.144 HD
ATOM     18  H   UNL     1      10.053  -6.236  24.758  0.00  0.00    +0.144 HD
ENDBRANCH   3  16
BRANCH   1  20
ATOM     19  C   UNL     1       5.229  -3.271  23.055  0.00  0.00    +0.010 C 
ATOM     20  C   UNL     1       5.868  -2.687  24.314  0.00  0.00    +0.053 C 
ENDBRANCH   1  20
TORSDOF 3
ENDMDL
MODEL 6
REMARK VINA RESULT:      -5.3      5.703      7.017
REMARK  Name = 
REMARK  4 active torsions:
REMARK  status: ('A' for Active; 'I' for Inactive)
REMARK    1  A    between atoms: C_1  and  C_2
REMARK    2  A    between atoms: C_2  and  C_3
REMARK    3  A    between atoms: C_8  and  N_9
REMARK    4  A    between atoms: C_10  and  C_11
REMARK                            x       y       z     vdW  Elec       q    Type
REMARK                         _______ _______ _______ _____ _____    ______ ____
ROOT
ATOM      1  C   UNL     1       8.824   0.385  24.410  0.00  0.00    +0.056 A 
ATOM      2  C   UNL     1       8.851  -0.594  23.404  0.00  0.00    +0.043 A 
ATOM      3  C   UNL     1       9.489  -0.126  22.237  0.00  0.00    +0.129 A 
ATOM      4  N   UNL     1      10.096   1.067  22.110  0.00  0.00    -0.199 NA
ATOM      5  C   UNL     1      10.060   1.873  23.154  0.00  0.00    +0.214 A 
ATOM      6  N   UNL     1      10.665   3.109  23.040  0.00  0.00    -0.327 N 
ATOM      7  H   UNL     1      10.728   3.370  22.068  0.00  0.00    +0.145 HD
ATOM      8  H   UNL     1      10.223   3.762  23.673  0.00  0.00    +0.145 HD
ATOM      9  N   UNL     1       9.416   1.606  24.284  0.00  0.00    -0.219 NA
ENDROOT
BRANCH   2  10
ATOM     10  C   UNL     1       8.268  -1.983  23.487  0.00  0.00    -0.013 A 
ATOM     11  C   UNL     1       8.981  -3.114  23.928  0.00  0.00    +0.008 A 
ATOM     12  C   UNL     1       8.385  -4.374  24.088  0.00  0.00    +0.001 A 
ATOM     13  C   UNL     1       7.033  -4.545  23.837  0.00  0.00    +0.000 A 
ATOM     14  C   UNL     1       6.296  -3.470  23.366  0.00  0.00    +0.001 A 
ATOM     15  C   UNL     1       6.914  -2.227  23.163  0.00  0.00    +0.008 A 
ENDBRANCH   2  10
BRANCH   3  16
ATOM     16  N   UNL     1       9.547  -0.868  21.053  0.00  0.00    -0.343 N 
ATOM     17  H   UNL     1      10.493  -1.186  20.869  0.00  0.00    +0.144 HD
ATOM     18  H   UNL     1       8.894  -1.640  21.160  0.00  0.00    +0.144 HD
ENDBRANCH   3  16
BRANCH   1  20
ATOM     19  C   UNL     1       8.845  -0.642  26.691  0.00  0.00    +0.010 C 
ATOM     20  C   UNL     1       8.090   0.264  25.720  0.00  0.00    +0.053 C 
ENDBRANCH   1  20
TORSDOF 3
ENDMDL
MODEL 7
REMARK VINA RESULT:      -5.3      3.701      4.457
REMARK  Name = 
REMARK  4 active torsions:
REMARK  status: ('A' for Active; 'I' for Inactive)
REMARK    1  A    between atoms: C_1  and  C_2
REMARK    2  A    between atoms: C_2  and  C_3
REMARK    3  A    between atoms: C_8  and  N_9
REMARK    4  A    between atoms: C_10  and  C_11
REMARK                            x       y       z     vdW  Elec       q    Type
REMARK                         _______ _______ _______ _____ _____    ______ ____
ROOT
ATOM      1  C   UNL     1       8.538  -2.293  25.575  0.00  0.00    +0.056 A 
ATOM      2  C   UNL     1       8.240  -2.296  24.202  0.00  0.00    +0.043 A 
ATOM      3  C   UNL     1       7.944  -3.593  23.736  0.00  0.00    +0.129 A 
ATOM      4  N   UNL     1       7.850  -4.692  24.505  0.00  0.00    -0.199 NA
ATOM      5  C   UNL     1       8.086  -4.544  25.794  0.00  0.00    +0.214 A 
ATOM      6  N   UNL     1       8.008  -5.662  26.601  0.00  0.00    -0.327 N 
ATOM      7  H   UNL     1       8.143  -6.493  26.046  0.00  0.00    +0.145 HD
ATOM      8  H   UNL     1       8.599  -5.538  27.410  0.00  0.00    +0.145 HD
ATOM      9  N   UNL     1       8.467  -3.404  26.359  0.00  0.00    -0.219 NA
ENDROOT
BRANCH   2  10
ATOM     10  C   UNL     1       8.243  -1.102  23.280  0.00  0.00    -0.013 A 
ATOM     11  C   UNL     1       7.218  -0.140  23.230  0.00  0.00    +0.008 A 
ATOM     12  C   UNL     1       7.293   1.012  22.433  0.00  0.00    +0.001 A 
ATOM     13  C   UNL     1       8.422   1.261  21.669  0.00  0.00    +0.000 A 
ATOM     14  C   UNL     1       9.444   0.325  21.656  0.00  0.00    +0.001 A 
ATOM     15  C   UNL     1       9.335  -0.847  22.419  0.00  0.00    +0.008 A 
ENDBRANCH   2  10
BRANCH   3  16
ATOM     16  N   UNL     1       7.726  -3.884  22.385  0.00  0.00    -0.343 N 
ATOM     17  H   UNL     1       7.775  -3.043  21.819  0.00  0.00    +0.144 HD
ATOM     18  H   UNL     1       8.427  -4.570  22.118  0.00  0.00    +0.144 HD
ENDBRANCH   3  16
BRANCH   1  20
ATOM     19  C   UNL     1       7.895  -0.402  27.082  0.00  0.00    +0.010 C 
ATOM     20  C   UNL     1       9.040  -1.103  26.351  0.00  0.00    +0.053 C 
ENDBRANCH   1  20
TORSDOF 3
ENDMDL
MODEL 8
REMARK VINA RESULT:      -5.2      3.586      4.983
REMARK  Name = 
REMARK  4 active torsions:
REMARK  status: ('A' for Active; 'I' for Inactive)
REMARK    1  A    between atoms: C_1  and  C_2
REMARK    2  A    between atoms: C_2  and  C_3
REMARK    3  A    between atoms: C_8  and  N_9
REMARK    4  A    between atoms: C_10  and  C_11
REMARK                            x       y       z     vdW  Elec       q    Type
REMARK                         _______ _______ _______ _____ _____    ______ ____
ROOT
ATOM      1  C   UNL     1       8.817  -3.840  24.185  0.00  0.00    +0.056 A 
ATOM      2  C   UNL     1       7.471  -3.680  23.818  0.00  0.00    +0.043 A 
ATOM      3  C   UNL     1       7.273  -2.509  23.059  0.00  0.00    +0.129 A 
ATOM      4  N   UNL     1       8.247  -1.683  22.637  0.00  0.00    -0.199 NA
ATOM      5  C   UNL     1       9.482  -1.982  22.991  0.00  0.00    +0.214 A 
ATOM      6  N   UNL     1      10.497  -1.141  22.580  0.00  0.00    -0.327 N 
ATOM      7  H   UNL     1      10.122  -0.226  22.381  0.00  0.00    +0.145 HD
ATOM      8  H   UNL     1      11.270  -1.200  23.228  0.00  0.00    +0.145 HD
ATOM      9  N   UNL     1       9.809  -2.998  23.781  0.00  0.00    -0.219 NA
ENDROOT
BRANCH   2  10
ATOM     10  C   UNL     1       6.327  -4.595  24.179  0.00  0.00    -0.013 A 
ATOM     11  C   UNL     1       5.905  -5.680  23.389  0.00  0.00    +0.008 A 
ATOM     12  C   UNL     1       4.902  -6.573  23.796  0.00  0.00    +0.001 A 
ATOM     13  C   UNL     1       4.297  -6.428  25.035  0.00  0.00    +0.000 A 
ATOM     14  C   UNL     1       4.653  -5.352  25.833  0.00  0.00    +0.001 A 
ATOM     15  C   UNL     1       5.621  -4.438  25.394  0.00  0.00    +0.008 A 
ENDBRANCH   2  10
BRANCH   3  16
ATOM     16  N   UNL     1       6.007  -2.061  22.668  0.00  0.00    -0.343 N 
ATOM     17  H   UNL     1       5.280  -2.483  23.236  0.00  0.00    +0.144 HD
ATOM     18  H   UNL     1       6.019  -1.047  22.747  0.00  0.00    +0.144 HD
ENDBRANCH   3  16
BRANCH   1  20
ATOM     19  C   UNL     1       9.088  -4.521  26.577  0.00  0.00    +0.010 C 
ATOM     20  C   UNL     1       9.342  -4.900  25.119  0.00  0.00    +0.053 C 
ENDBRANCH   1  20
TORSDOF 3
ENDMDL
MODEL 9
REMARK VINA RESULT:      -5.2      5.807      7.142
REMARK  Name = 
REMARK  4 active torsions:
REMARK  status: ('A' for Active; 'I' for Inactive)
REMARK    1  A    between atoms: C_1  and  C_2
REMARK    2  A    between atoms: C_2  and  C_3
REMARK    3  A    between atoms: C_8  and  N_9
REMARK    4  A    between atoms: C_10  and  C_11
REMARK                            x       y       z     vdW  Elec       q    Type
REMARK                         _______ _______ _______ _____ _____    ______ ____
ROOT
ATOM      1  C   UNL     1       8.953   0.462  24.430  0.00  0.00    +0.056 A 
ATOM      2  C   UNL     1       9.029  -0.598  23.511  0.00  0.00    +0.043 A 
ATOM      3  C   UNL     1       9.609  -0.191  22.292  0.00  0.00    +0.129 A 
ATOM      4  N   UNL     1      10.126   1.025  22.046  0.00  0.00    -0.199 NA
ATOM      5  C   UNL     1      10.055   1.916  23.017  0.00  0.00    +0.214 A 
ATOM      6  N   UNL     1      10.568   3.175  22.782  0.00  0.00    -0.327 N 
ATOM      7  H   UNL     1      10.593   3.354  21.789  0.00  0.00    +0.145 HD
ATOM      8  H   UNL     1      10.094   3.849  23.367  0.00  0.00    +0.145 HD
ATOM      9  N   UNL     1       9.454   1.705  24.183  0.00  0.00    -0.219 NA
ENDROOT
BRANCH   2  10
ATOM     10  C   UNL     1       8.548  -2.011  23.729  0.00  0.00    -0.013 A 
ATOM     11  C   UNL     1       7.319  -2.508  23.259  0.00  0.00    +0.008 A 
ATOM     12  C   UNL     1       6.941  -3.852  23.390  0.00  0.00    +0.001 A 
ATOM     13  C   UNL     1       7.801  -4.766  23.978  0.00  0.00    +0.000 A 
ATOM     14  C   UNL     1       9.008  -4.318  24.490  0.00  0.00    +0.001 A 
ATOM     15  C   UNL     1       9.354  -2.962  24.397  0.00  0.00    +0.008 A 
ENDBRANCH   2  10
BRANCH   3  16
ATOM     16  N   UNL     1       9.695  -1.028  21.175  0.00  0.00    -0.343 N 
ATOM     17  H   UNL     1       9.824  -1.995  21.454  0.00  0.00    +0.144 HD
ATOM     18  H   UNL     1       8.840  -0.891  20.641  0.00  0.00    +0.144 HD
ENDBRANCH   3  16
BRANCH   1  20
ATOM     19  C   UNL     1       6.757   0.658  25.612  0.00  0.00    +0.010 C 
ATOM     20  C   UNL     1       8.256   0.406  25.764  0.00  0.00    +0.053 C 
ENDBRANCH   1  20
TORSDOF 3
ENDMDL
