MODEL 1
REMARK VINA RESULT:      -6.7      0.000      0.000
REMARK  Name = 
REMARK  9 active torsions:
REMARK  status: ('A' for Active; 'I' for Inactive)
REMARK    1  A    between atoms: C_1  and  C_2
REMARK    2  A    between atoms: N_4  and  C_5
REMARK    3  A    between atoms: C_8  and  C_10
REMARK    4  A    between atoms: C_10  and  O_11
REMARK    5  A    between atoms: O_11  and  P_12
REMARK    6  A    between atoms: P_12  and  O_13
REMARK    7  A    between atoms: P_12  and  O_14
REMARK    8  A    between atoms: C_16  and  O_18
REMARK    9  A    between atoms: C_19  and  O_21
REMARK                            x       y       z     vdW  Elec       q    Type
REMARK                         _______ _______ _______ _____ _____    ______ ____
ROOT
ATOM      1  C   UNL     1       9.200  -3.809  24.290  0.00  0.00    +0.255 C 
ATOM      2  C   UNL     1       9.192  -4.735  25.529  0.00  0.00    +0.195 C 
ATOM      3  C   UNL     1       7.821  -5.423  25.490  0.00  0.00    +0.178 C 
ATOM      4  C   UNL     1       7.071  -4.687  24.381  0.00  0.00    +0.178 C 
ATOM      5  O   UNL     1       8.068  -4.172  23.484  0.00  0.00    -0.346 OA
ENDROOT
BRANCH   1  15
ATOM      6  C   UNL     1       8.101   0.019  27.218  0.00  0.00    +0.049 C 
ATOM      7  C   UNL     1       8.652  -0.564  25.964  0.00  0.00    +0.006 A 
ATOM      8  C   UNL     1       9.270   0.306  24.937  0.00  0.00    +0.126 A 
ATOM      9  N   UNL     1       9.281   1.668  25.067  0.00  0.00    -0.343 N 
ATOM     10  H   UNL     1       9.363   2.049  26.000  0.00  0.00    +0.144 HD
ATOM     11  H   UNL     1       9.908   2.106  24.400  0.00  0.00    +0.144 HD
ATOM     12  N   UNL     1       9.837  -0.154  23.867  0.00  0.00    -0.178 NA
ATOM     13  C   UNL     1       9.889  -1.505  23.636  0.00  0.00    +0.352 A 
ATOM     14  O   UNL     1      10.557  -1.934  22.700  0.00  0.00    -0.244 OA
ATOM     15  N   UNL     1       9.182  -2.352  24.484  0.00  0.00    -0.270 N 
ATOM     16  C   UNL     1       8.627  -1.867  25.656  0.00  0.00    +0.100 A 
ENDBRANCH   1  15
BRANCH   2  17
ATOM     17  O   UNL     1      10.237  -5.728  25.401  0.00  0.00    -0.385 OA
ATOM     18  H   UNL     1      10.601  -5.685  24.500  0.00  0.00    +0.210 HD
ENDBRANCH   2  17
BRANCH   3  19
ATOM     19  O   UNL     1       7.170  -5.374  26.754  0.00  0.00    -0.386 OA
ATOM     20  H   UNL     1       6.378  -5.940  26.725  0.00  0.00    +0.210 HD
ENDBRANCH   3  19
BRANCH   4  21
ATOM     21  C   UNL     1       6.156  -5.592  23.579  0.00  0.00    +0.206 C 
BRANCH  21  22
ATOM     22  O   UNL     1       5.133  -6.195  24.370  0.00  0.00    -0.284 OA
BRANCH  22  23
ATOM     23  P   UNL     1       3.644  -5.978  23.515  0.00  0.00    +0.472 P 
ATOM     24  O   UNL     1       2.313  -5.784  22.751  0.00  0.00    -0.228 OA
BRANCH  23  25
ATOM     25  O   UNL     1       3.490  -7.599  23.672  0.00  0.00    -0.303 OA
ATOM     26  H   UNL     1       2.582  -7.888  23.467  0.00  0.00    +0.222 HD
ENDBRANCH  23  25
BRANCH  23  27
ATOM     27  O   UNL     1       4.611  -6.049  22.200  0.00  0.00    -0.303 OA
ATOM     28  H   UNL     1       4.093  -5.692  21.454  0.00  0.00    +0.222 HD
ENDBRANCH  23  27
ENDBRANCH  22  23
ENDBRANCH  21  22
ENDBRANCH   4  21
TORSDOF 8
ENDMDL
MODEL 2
REMARK VINA RESULT:      -6.6      1.888      2.352
REMARK  Name = 
REMARK  9 active torsions:
REMARK  status: ('A' for Active; 'I' for Inactive)
REMARK    1  A    between atoms: C_1  and  C_2
REMARK    2  A    between atoms: N_4  and  C_5
REMARK    3  A    between atoms: C_8  and  C_10
REMARK    4  A    between atoms: C_10  and  O_11
REMARK    5  A    between atoms: O_11  and  P_12
REMARK    6  A    between atoms: P_12  and  O_13
REMARK    7  A    between atoms: P_12  and  O_14
REMARK    8  A    between atoms: C_16  and  O_18
REMARK    9  A    between atoms: C_19  and  O_21
REMARK                            x       y       z     vdW  Elec       q    Type
REMARK                         _______ _______ _______ _____ _____    ______ ____
ROOT
ATOM      1  C   UNL     1       8.552  -4.025  24.381  0.00  0.00    +0.255 C 
ATOM      2  C   UNL     1       9.114  -5.030  25.414  0.00  0.00    +0.195 C 
ATOM      3  C   UNL     1       7.874  -5.614  26.103  0.00  0.00    +0.178 C 
ATOM      4  C   UNL     1       6.724  -4.753  25.583  0.00  0.00    +0.178 C 
ATOM      5  O   UNL     1       7.135  -4.252  24.300  0.00  0.00    -0.346 OA
ENDROOT
BRANCH   1  15
ATOM      6  C   UNL     1       7.813  -0.010  27.168  0.00  0.00    +0.049 C 
ATOM      7  C   UNL     1       8.405  -0.706  25.993  0.00  0.00    +0.006 A 
ATOM      8  C   UNL     1       9.302   0.015  25.062  0.00  0.00    +0.126 A 
ATOM      9  N   UNL     1       9.549   1.354  25.202  0.00  0.00    -0.343 N 
ATOM     10  H   UNL     1       9.579   1.729  26.142  0.00  0.00    +0.144 HD
ATOM     11  H   UNL     1      10.328   1.656  24.627  0.00  0.00    +0.144 HD
ATOM     12  N   UNL     1       9.908  -0.560  24.072  0.00  0.00    -0.178 NA
ATOM     13  C   UNL     1       9.737  -1.901  23.840  0.00  0.00    +0.352 A 
ATOM     14  O   UNL     1      10.429  -2.462  22.996  0.00  0.00    -0.244 OA
ATOM     15  N   UNL     1       8.780  -2.587  24.582  0.00  0.00    -0.270 N 
ATOM     16  C   UNL     1       8.177  -1.988  25.675  0.00  0.00    +0.100 A 
ENDBRANCH   1  15
BRANCH   2  17
ATOM     17  O   UNL     1       9.829  -6.085  24.728  0.00  0.00    -0.385 OA
ATOM     18  H   UNL     1       9.182  -6.693  24.329  0.00  0.00    +0.210 HD
ENDBRANCH   2  17
BRANCH   3  19
ATOM     19  O   UNL     1       8.003  -5.603  27.520  0.00  0.00    -0.386 OA
ATOM     20  H   UNL     1       7.117  -5.535  27.918  0.00  0.00    +0.210 HD
ENDBRANCH   3  19
BRANCH   4  21
ATOM     21  C   UNL     1       5.440  -5.534  25.378  0.00  0.00    +0.206 C 
BRANCH  21  22
ATOM     22  O   UNL     1       5.394  -6.741  26.137  0.00  0.00    -0.284 OA
BRANCH  22  23
ATOM     23  P   UNL     1       4.452  -6.410  27.550  0.00  0.00    +0.472 P 
ATOM     24  O   UNL     1       3.609  -6.115  28.814  0.00  0.00    -0.228 OA
BRANCH  23  25
ATOM     25  O   UNL     1       5.444  -7.486  28.282  0.00  0.00    -0.303 OA
ATOM     26  H   UNL     1       5.023  -7.873  29.071  0.00  0.00    +0.222 HD
ENDBRANCH  23  25
BRANCH  23  27
ATOM     27  O   UNL     1       3.455  -7.538  26.916  0.00  0.00    -0.303 OA
ATOM     28  H   UNL     1       2.638  -7.520  27.449  0.00  0.00    +0.222 HD
ENDBRANCH  23  27
ENDBRANCH  22  23
ENDBRANCH  21  22
ENDBRANCH   4  21
TORSDOF 8
ENDMDL
MODEL 3
REMARK VINA RESULT:      -6.6      3.600      6.646
REMARK  Name = 
REMARK  9 active torsions:
REMARK  status: ('A' for Active; 'I' for Inactive)
REMARK    1  A    between atoms: C_1  and  C_2
REMARK    2  A    between atoms: N_4  and  C_5
REMARK    3  A    between atoms: C_8  and  C_10
REMARK    4  A    between atoms: C_10  and  O_11
REMARK    5  A    between atoms: O_11  and  P_12
REMARK    6  A    between atoms: P_12  and  O_13
REMARK    7  A    between atoms: P_12  and  O_14
REMARK    8  A    between atoms: C_16  and  O_18
REMARK    9  A    between atoms: C_19  and  O_21
REMARK                            x       y       z     vdW  Elec       q    Type
REMARK                         _______ _______ _______ _____ _____    ______ ____
ROOT
ATOM      1  C   UNL     1       7.969  -4.907  25.823  0.00  0.00    +0.255 C 
ATOM      2  C   UNL     1       9.315  -4.818  25.067  0.00  0.00    +0.195 C 
ATOM      3  C   UNL     1       9.599  -3.315  24.954  0.00  0.00    +0.178 C 
ATOM      4  C   UNL     1       8.309  -2.658  25.444  0.00  0.00    +0.178 C 
ATOM      5  O   UNL     1       7.687  -3.596  26.338  0.00  0.00    -0.346 OA
ENDROOT
BRANCH   1  15
ATOM      6  C   UNL     1       5.765  -5.862  21.502  0.00  0.00    +0.049 C 
ATOM      7  C   UNL     1       5.796  -5.853  22.991  0.00  0.00    +0.006 A 
ATOM      8  C   UNL     1       4.669  -6.411  23.773  0.00  0.00    +0.126 A 
ATOM      9  N   UNL     1       3.536  -6.875  23.160  0.00  0.00    -0.343 N 
ATOM     10  H   UNL     1       3.640  -7.316  22.256  0.00  0.00    +0.144 HD
ATOM     11  H   UNL     1       2.953  -7.405  23.799  0.00  0.00    +0.144 HD
ATOM     12  N   UNL     1       4.679  -6.502  25.064  0.00  0.00    -0.178 NA
ATOM     13  C   UNL     1       5.766  -6.072  25.781  0.00  0.00    +0.352 A 
ATOM     14  O   UNL     1       5.826  -6.300  26.986  0.00  0.00    -0.244 OA
ATOM     15  N   UNL     1       6.778  -5.391  25.111  0.00  0.00    -0.270 N 
ATOM     16  C   UNL     1       6.794  -5.346  23.727  0.00  0.00    +0.100 A 
ENDBRANCH   1  15
BRANCH   2  17
ATOM     17  O   UNL     1      10.356  -5.450  25.849  0.00  0.00    -0.385 OA
ATOM     18  H   UNL     1      10.539  -6.329  25.473  0.00  0.00    +0.210 HD
ENDBRANCH   2  17
BRANCH   3  19
ATOM     19  O   UNL     1       9.964  -2.944  23.629  0.00  0.00    -0.386 OA
ATOM     20  H   UNL     1      10.912  -3.125  23.500  0.00  0.00    +0.210 HD
ENDBRANCH   3  19
BRANCH   4  21
ATOM     21  C   UNL     1       8.549  -1.377  26.218  0.00  0.00    +0.206 C 
BRANCH  21  22
ATOM     22  O   UNL     1       9.480  -0.505  25.580  0.00  0.00    -0.284 OA
BRANCH  22  23
ATOM     23  P   UNL     1       8.574   0.483  24.486  0.00  0.00    +0.472 P 
ATOM     24  O   UNL     1       7.764   1.366  23.506  0.00  0.00    -0.228 OA
BRANCH  23  25
ATOM     25  O   UNL     1       9.657  -0.022  23.368  0.00  0.00    -0.303 OA
ATOM     26  H   UNL     1      10.101   0.733  22.941  0.00  0.00    +0.222 HD
ENDBRANCH  23  25
BRANCH  23  27
ATOM     27  O   UNL     1       9.521   1.674  25.079  0.00  0.00    -0.303 OA
ATOM     28  H   UNL     1      10.053   2.006  24.332  0.00  0.00    +0.222 HD
ENDBRANCH  23  27
ENDBRANCH  22  23
ENDBRANCH  21  22
ENDBRANCH   4  21
TORSDOF 8
ENDMDL
MODEL 4
REMARK VINA RESULT:      -6.5      1.630      1.782
REMARK  Name = 
REMARK  9 active torsions:
REMARK  status: ('A' for Active; 'I' for Inactive)
REMARK    1  A    between atoms: C_1  and  C_2
REMARK    2  A    between atoms: N_4  and  C_5
REMARK    3  A    between atoms: C_8  and  C_10
REMARK    4  A    between atoms: C_10  and  O_11
REMARK    5  A    between atoms: O_11  and  P_12
REMARK    6  A    between atoms: P_12  and  O_13
REMARK    7  A    between atoms: P_12  and  O_14
REMARK    8  A    between atoms: C_16  and  O_18
REMARK    9  A    between atoms: C_19  and  O_21
REMARK                            x       y       z     vdW  Elec       q    Type
REMARK                         _______ _______ _______ _____ _____    ______ ____
ROOT
ATOM      1  C   UNL     1       8.404  -4.386  24.074  0.00  0.00    +0.255 C 
ATOM      2  C   UNL     1       8.967  -4.894  25.422  0.00  0.00    +0.195 C 
ATOM      3  C   UNL     1       7.747  -5.452  26.167  0.00  0.00    +0.178 C 
ATOM      4  C   UNL     1       6.561  -5.027  25.303  0.00  0.00    +0.178 C 
ATOM      5  O   UNL     1       7.061  -4.885  23.963  0.00  0.00    -0.346 OA
ENDROOT
BRANCH   1  15
ATOM      6  C   UNL     1      10.375   0.066  24.929  0.00  0.00    +0.049 C 
ATOM      7  C   UNL     1       9.409  -0.837  24.245  0.00  0.00    +0.006 A 
ATOM      8  C   UNL     1       8.479  -0.310  23.220  0.00  0.00    +0.126 A 
ATOM      9  N   UNL     1       8.420   1.026  22.929  0.00  0.00    -0.343 N 
ATOM     10  H   UNL     1       9.280   1.556  22.985  0.00  0.00    +0.144 HD
ATOM     11  H   UNL     1       7.895   1.205  22.079  0.00  0.00    +0.144 HD
ATOM     12  N   UNL     1       7.676  -1.062  22.537  0.00  0.00    -0.178 NA
ATOM     13  C   UNL     1       7.653  -2.418  22.742  0.00  0.00    +0.352 A 
ATOM     14  O   UNL     1       7.001  -3.134  21.990  0.00  0.00    -0.244 OA
ATOM     15  N   UNL     1       8.385  -2.942  23.804  0.00  0.00    -0.270 N 
ATOM     16  C   UNL     1       9.286  -2.148  24.494  0.00  0.00    +0.100 A 
ENDBRANCH   1  15
BRANCH   2  17
ATOM     17  O   UNL     1       9.918  -5.959  25.183  0.00  0.00    -0.385 OA
ATOM     18  H   UNL     1      10.678  -5.595  24.696  0.00  0.00    +0.210 HD
ENDBRANCH   2  17
BRANCH   3  19
ATOM     19  O   UNL     1       7.682  -4.975  27.506  0.00  0.00    -0.386 OA
ATOM     20  H   UNL     1       8.586  -4.817  27.831  0.00  0.00    +0.210 HD
ENDBRANCH   3  19
BRANCH   4  21
ATOM     21  C   UNL     1       5.448  -6.056  25.270  0.00  0.00    +0.206 C 
BRANCH  21  22
ATOM     22  O   UNL     1       5.046  -6.400  23.945  0.00  0.00    -0.284 OA
BRANCH  22  23
ATOM     23  P   UNL     1       3.535  -5.608  23.657  0.00  0.00    +0.472 P 
ATOM     24  O   UNL     1       2.183  -4.900  23.400  0.00  0.00    -0.228 OA
BRANCH  23  25
ATOM     25  O   UNL     1       3.230  -6.873  22.665  0.00  0.00    -0.303 OA
ATOM     26  H   UNL     1       2.787  -6.581  21.848  0.00  0.00    +0.222 HD
ENDBRANCH  23  25
BRANCH  23  27
ATOM     27  O   UNL     1       4.403  -4.767  22.559  0.00  0.00    -0.303 OA
ATOM     28  H   UNL     1       5.267  -5.214  22.484  0.00  0.00    +0.222 HD
ENDBRANCH  23  27
ENDBRANCH  22  23
ENDBRANCH  21  22
ENDBRANCH   4  21
TORSDOF 8
ENDMDL
MODEL 5
REMARK VINA RESULT:      -6.5      4.316      7.126
REMARK  Name = 
REMARK  9 active torsions:
REMARK  status: ('A' for Active; 'I' for Inactive)
REMARK    1  A    between atoms: C_1  and  C_2
REMARK    2  A    between atoms: N_4  and  C_5
REMARK    3  A    between atoms: C_8  and  C_10
REMARK    4  A    between atoms: C_10  and  O_11
REMARK    5  A    between atoms: O_11  and  P_12
REMARK    6  A    between atoms: P_12  and  O_13
REMARK    7  A    between atoms: P_12  and  O_14
REMARK    8  A    between atoms: C_16  and  O_18
REMARK    9  A    between atoms: C_19  and  O_21
REMARK                            x       y       z     vdW  Elec       q    Type
REMARK                         _______ _______ _______ _____ _____    ______ ____
ROOT
ATOM      1  C   UNL     1       9.452  -2.384  23.561  0.00  0.00    +0.255 C 
ATOM      2  C   UNL     1       8.836  -1.669  22.337  0.00  0.00    +0.195 C 
ATOM      3  C   UNL     1       8.754  -0.193  22.749  0.00  0.00    +0.178 C 
ATOM      4  C   UNL     1       9.111  -0.205  24.234  0.00  0.00    +0.178 C 
ATOM      5  O   UNL     1       9.937  -1.362  24.447  0.00  0.00    -0.346 OA
ENDROOT
BRANCH   1  15
ATOM      6  C   UNL     1       4.926  -3.896  24.851  0.00  0.00    +0.049 C 
ATOM      7  C   UNL     1       6.410  -4.003  24.888  0.00  0.00    +0.006 A 
ATOM      8  C   UNL     1       7.069  -5.100  25.634  0.00  0.00    +0.126 A 
ATOM      9  N   UNL     1       6.345  -5.995  26.375  0.00  0.00    -0.343 N 
ATOM     10  H   UNL     1       5.428  -6.251  26.034  0.00  0.00    +0.144 HD
ATOM     11  H   UNL     1       6.905  -6.794  26.654  0.00  0.00    +0.144 HD
ATOM     12  N   UNL     1       8.350  -5.288  25.633  0.00  0.00    -0.178 NA
ATOM     13  C   UNL     1       9.173  -4.454  24.921  0.00  0.00    +0.352 A 
ATOM     14  O   UNL     1      10.363  -4.730  24.806  0.00  0.00    -0.244 OA
ATOM     15  N   UNL     1       8.623  -3.315  24.339  0.00  0.00    -0.270 N 
ATOM     16  C   UNL     1       7.249  -3.146  24.291  0.00  0.00    +0.100 A 
ENDBRANCH   1  15
BRANCH   2  17
ATOM     17  O   UNL     1       9.719  -1.805  21.198  0.00  0.00    -0.385 OA
ATOM     18  H   UNL     1       9.466  -2.603  20.700  0.00  0.00    +0.210 HD
ENDBRANCH   2  17
BRANCH   3  19
ATOM     19  O   UNL     1       7.473   0.362  22.472  0.00  0.00    -0.386 OA
ATOM     20  H   UNL     1       7.516   1.328  22.585  0.00  0.00    +0.210 HD
ENDBRANCH   3  19
BRANCH   4  21
ATOM     21  C   UNL     1       9.908   1.011  24.666  0.00  0.00    +0.206 C 
BRANCH  21  22
ATOM     22  O   UNL     1      10.397   1.776  23.566  0.00  0.00    -0.284 OA
BRANCH  22  23
ATOM     23  P   UNL     1       9.757   3.374  23.743  0.00  0.00    +0.472 P 
ATOM     24  O   UNL     1       9.185   4.804  23.901  0.00  0.00    -0.228 OA
BRANCH  23  25
ATOM     25  O   UNL     1       9.009   3.073  22.320  0.00  0.00    -0.303 OA
ATOM     26  H   UNL     1       9.493   3.475  21.575  0.00  0.00    +0.222 HD
ENDBRANCH  23  25
BRANCH  23  27
ATOM     27  O   UNL     1      11.180   3.812  23.071  0.00  0.00    -0.303 OA
ATOM     28  H   UNL     1      10.966   4.403  22.325  0.00  0.00    +0.222 HD
ENDBRANCH  23  27
ENDBRANCH  22  23
ENDBRANCH  21  22
ENDBRANCH   4  21
TORSDOF 8
ENDMDL
MODEL 6
REMARK VINA RESULT:      -6.5      2.004      2.239
REMARK  Name = 
REMARK  9 active torsions:
REMARK  status: ('A' for Active; 'I' for Inactive)
REMARK    1  A    between atoms: C_1  and  C_2
REMARK    2  A    between atoms: N_4  and  C_5
REMARK    3  A    between atoms: C_8  and  C_10
REMARK    4  A    between atoms: C_10  and  O_11
REMARK    5  A    between atoms: O_11  and  P_12
REMARK    6  A    between atoms: P_12  and  O_13
REMARK    7  A    between atoms: P_12  and  O_14
REMARK    8  A    between atoms: C_16  and  O_18
REMARK    9  A    between atoms: C_19  and  O_21
REMARK                            x       y       z     vdW  Elec       q    Type
REMARK                         _______ _______ _______ _____ _____    ______ ____
ROOT
ATOM      1  C   UNL     1       8.448  -2.988  23.276  0.00  0.00    +0.255 C 
ATOM      2  C   UNL     1       9.004  -3.324  24.680  0.00  0.00    +0.195 C 
ATOM      3  C   UNL     1       7.759  -3.579  25.540  0.00  0.00    +0.178 C 
ATOM      4  C   UNL     1       6.598  -3.158  24.642  0.00  0.00    +0.178 C 
ATOM      5  O   UNL     1       7.050  -3.318  23.287  0.00  0.00    -0.346 OA
ENDROOT
BRANCH   1  15
ATOM      6  C   UNL     1       6.577   1.567  22.844  0.00  0.00    +0.049 C 
ATOM      7  C   UNL     1       7.645   0.555  22.616  0.00  0.00    +0.006 A 
ATOM      8  C   UNL     1       8.908   0.930  21.939  0.00  0.00    +0.126 A 
ATOM      9  N   UNL     1       9.101   2.187  21.434  0.00  0.00    -0.343 N 
ATOM     10  H   UNL     1       8.679   2.961  21.930  0.00  0.00    +0.144 HD
ATOM     11  H   UNL     1      10.072   2.350  21.189  0.00  0.00    +0.144 HD
ATOM     12  N   UNL     1       9.901   0.112  21.787  0.00  0.00    -0.178 NA
ATOM     13  C   UNL     1       9.819  -1.172  22.260  0.00  0.00    +0.352 A 
ATOM     14  O   UNL     1      10.816  -1.888  22.244  0.00  0.00    -0.244 OA
ATOM     15  N   UNL     1       8.599  -1.623  22.754  0.00  0.00    -0.270 N 
ATOM     16  C   UNL     1       7.559  -0.735  22.969  0.00  0.00    +0.100 A 
ENDBRANCH   1  15
BRANCH   2  17
ATOM     17  O   UNL     1       9.802  -4.530  24.613  0.00  0.00    -0.385 OA
ATOM     18  H   UNL     1      10.057  -4.684  23.686  0.00  0.00    +0.210 HD
ENDBRANCH   2  17
BRANCH   3  19
ATOM     19  O   UNL     1       7.816  -2.872  26.774  0.00  0.00    -0.386 OA
ATOM     20  H   UNL     1       6.975  -2.997  27.249  0.00  0.00    +0.210 HD
ENDBRANCH   3  19
BRANCH   4  21
ATOM     21  C   UNL     1       5.364  -4.022  24.818  0.00  0.00    +0.206 C 
BRANCH  21  22
ATOM     22  O   UNL     1       5.532  -5.344  24.309  0.00  0.00    -0.284 OA
BRANCH  22  23
ATOM     23  P   UNL     1       4.093  -5.730  23.429  0.00  0.00    +0.472 P 
ATOM     24  O   UNL     1       2.806  -6.076  22.642  0.00  0.00    -0.228 OA
BRANCH  23  25
ATOM     25  O   UNL     1       4.585  -7.282  23.596  0.00  0.00    -0.303 OA
ATOM     26  H   UNL     1       4.650  -7.532  24.536  0.00  0.00    +0.222 HD
ENDBRANCH  23  25
BRANCH  23  27
ATOM     27  O   UNL     1       5.033  -5.418  22.131  0.00  0.00    -0.303 OA
ATOM     28  H   UNL     1       5.581  -6.211  21.985  0.00  0.00    +0.222 HD
ENDBRANCH  23  27
ENDBRANCH  22  23
ENDBRANCH  21  22
ENDBRANCH   4  21
TORSDOF 8
ENDMDL
MODEL 7
REMARK VINA RESULT:      -6.5      3.800      6.237
REMARK  Name = 
REMARK  9 active torsions:
REMARK  status: ('A' for Active; 'I' for Inactive)
REMARK    1  A    between atoms: C_1  and  C_2
REMARK    2  A    between atoms: N_4  and  C_5
REMARK    3  A    between atoms: C_8  and  C_10
REMARK    4  A    between atoms: C_10  and  O_11
REMARK    5  A    between atoms: O_11  and  P_12
REMARK    6  A    between atoms: P_12  and  O_13
REMARK    7  A    between atoms: P_12  and  O_14
REMARK    8  A    between atoms: C_16  and  O_18
REMARK    9  A    between atoms: C_19  and  O_21
REMARK                            x       y       z     vdW  Elec       q    Type
REMARK                         _______ _______ _______ _____ _____    ______ ____
ROOT
ATOM      1  C   UNL     1       7.764  -5.042  23.751  0.00  0.00    +0.255 C 
ATOM      2  C   UNL     1       6.772  -5.183  22.573  0.00  0.00    +0.195 C 
ATOM      3  C   UNL     1       6.630  -3.762  22.012  0.00  0.00    +0.178 C 
ATOM      4  C   UNL     1       7.361  -2.889  23.031  0.00  0.00    +0.178 C 
ATOM      5  O   UNL     1       8.342  -3.730  23.661  0.00  0.00    -0.346 OA
ENDROOT
BRANCH   1  15
ATOM      6  C   UNL     1       4.042  -6.328  26.740  0.00  0.00    +0.049 C 
ATOM      7  C   UNL     1       5.448  -5.902  26.495  0.00  0.00    +0.006 A 
ATOM      8  C   UNL     1       6.400  -5.761  27.621  0.00  0.00    +0.126 A 
ATOM      9  N   UNL     1       6.001  -5.935  28.919  0.00  0.00    -0.343 N 
ATOM     10  H   UNL     1       5.283  -6.624  29.100  0.00  0.00    +0.144 HD
ATOM     11  H   UNL     1       6.793  -6.008  29.549  0.00  0.00    +0.144 HD
ATOM     12  N   UNL     1       7.652  -5.474  27.458  0.00  0.00    -0.178 NA
ATOM     13  C   UNL     1       8.161  -5.282  26.200  0.00  0.00    +0.352 A 
ATOM     14  O   UNL     1       9.373  -5.160  26.049  0.00  0.00    -0.244 OA
ATOM     15  N   UNL     1       7.279  -5.241  25.124  0.00  0.00    -0.270 N 
ATOM     16  C   UNL     1       5.953  -5.605  25.291  0.00  0.00    +0.100 A 
ENDBRANCH   1  15
BRANCH   2  17
ATOM     17  O   UNL     1       7.337  -6.050  21.561  0.00  0.00    -0.385 OA
ATOM     18  H   UNL     1       7.393  -5.556  20.724  0.00  0.00    +0.210 HD
ENDBRANCH   2  17
BRANCH   3  19
ATOM     19  O   UNL     1       5.266  -3.402  21.822  0.00  0.00    -0.386 OA
ATOM     20  H   UNL     1       4.807  -4.131  21.368  0.00  0.00    +0.210 HD
ENDBRANCH   3  19
BRANCH   4  21
ATOM     21  C   UNL     1       8.097  -1.723  22.398  0.00  0.00    +0.206 C 
BRANCH  21  22
ATOM     22  O   UNL     1       9.127  -1.195  23.232  0.00  0.00    -0.284 OA
BRANCH  22  23
ATOM     23  P   UNL     1       9.672   0.270  22.490  0.00  0.00    +0.472 P 
ATOM     24  O   UNL     1      10.159   1.580  21.825  0.00  0.00    -0.228 OA
BRANCH  23  25
ATOM     25  O   UNL     1       8.079   0.608  22.331  0.00  0.00    -0.303 OA
ATOM     26  H   UNL     1       7.550  -0.208  22.266  0.00  0.00    +0.222 HD
ENDBRANCH  23  25
BRANCH  23  27
ATOM     27  O   UNL     1       9.756  -0.665  21.153  0.00  0.00    -0.303 OA
ATOM     28  H   UNL     1       9.058  -0.351  20.548  0.00  0.00    +0.222 HD
ENDBRANCH  23  27
ENDBRANCH  22  23
ENDBRANCH  21  22
ENDBRANCH   4  21
TORSDOF 8
ENDMDL
MODEL 8
REMARK VINA RESULT:      -6.2      4.103      6.932
REMARK  Name = 
REMARK  9 active torsions:
REMARK  status: ('A' for Active; 'I' for Inactive)
REMARK    1  A    between atoms: C_1  and  C_2
REMARK    2  A    between atoms: N_4  and  C_5
REMARK    3  A    between atoms: C_8  and  C_10
REMARK    4  A    between atoms: C_10  and  O_11
REMARK    5  A    between atoms: O_11  and  P_12
REMARK    6  A    between atoms: P_12  and  O_13
REMARK    7  A    between atoms: P_12  and  O_14
REMARK    8  A    between atoms: C_16  and  O_18
REMARK    9  A    between atoms: C_19  and  O_21
REMARK                            x       y       z     vdW  Elec       q    Type
REMARK                         _______ _______ _______ _____ _____    ______ ____
ROOT
ATOM      1  C   UNL     1       8.047  -5.124  26.494  0.00  0.00    +0.255 C 
ATOM      2  C   UNL     1       8.811  -5.117  25.150  0.00  0.00    +0.195 C 
ATOM      3  C   UNL     1       8.907  -3.635  24.766  0.00  0.00    +0.178 C 
ATOM      4  C   UNL     1       8.012  -2.931  25.783  0.00  0.00    +0.178 C 
ATOM      5  O   UNL     1       7.990  -3.764  26.954  0.00  0.00    -0.346 OA
ENDROOT
BRANCH   1  15
ATOM      6  C   UNL     1       4.035  -6.627  24.028  0.00  0.00    +0.049 C 
ATOM      7  C   UNL     1       4.808  -6.419  25.283  0.00  0.00    +0.006 A 
ATOM      8  C   UNL     1       4.260  -6.856  26.588  0.00  0.00    +0.126 A 
ATOM      9  N   UNL     1       3.002  -7.387  26.692  0.00  0.00    -0.343 N 
ATOM     10  H   UNL     1       2.665  -7.946  25.919  0.00  0.00    +0.144 HD
ATOM     11  H   UNL     1       2.850  -7.821  27.596  0.00  0.00    +0.144 HD
ATOM     12  N   UNL     1       4.921  -6.774  27.698  0.00  0.00    -0.178 NA
ATOM     13  C   UNL     1       6.193  -6.262  27.711  0.00  0.00    +0.352 A 
ATOM     14  O   UNL     1       6.862  -6.328  28.737  0.00  0.00    -0.244 OA
ATOM     15  N   UNL     1       6.691  -5.687  26.545  0.00  0.00    -0.270 N 
ATOM     16  C   UNL     1       6.008  -5.827  25.348  0.00  0.00    +0.100 A 
ENDBRANCH   1  15
BRANCH   2  17
ATOM     17  O   UNL     1      10.141  -5.655  25.342  0.00  0.00    -0.385 OA
ATOM     18  H   UNL     1      10.580  -5.720  24.476  0.00  0.00    +0.210 HD
ENDBRANCH   2  17
BRANCH   3  19
ATOM     19  O   UNL     1       8.523  -3.414  23.413  0.00  0.00    -0.386 OA
ATOM     20  H   UNL     1       8.002  -2.592  23.362  0.00  0.00    +0.210 HD
ENDBRANCH   3  19
BRANCH   4  21
ATOM     21  C   UNL     1       8.536  -1.570  26.200  0.00  0.00    +0.206 C 
BRANCH  21  22
ATOM     22  O   UNL     1       9.502  -1.044  25.291  0.00  0.00    -0.284 OA
BRANCH  22  23
ATOM     23  P   UNL     1       9.024   0.581  24.937  0.00  0.00    +0.472 P 
ATOM     24  O   UNL     1       8.596   2.034  24.619  0.00  0.00    -0.228 OA
BRANCH  23  25
ATOM     25  O   UNL     1       9.080   0.099  23.375  0.00  0.00    -0.303 OA
ATOM     26  H   UNL     1       9.846   0.487  22.914  0.00  0.00    +0.222 HD
ENDBRANCH  23  25
BRANCH  23  27
ATOM     27  O   UNL     1      10.626   0.876  25.057  0.00  0.00    -0.303 OA
ATOM     28  H   UNL     1      10.745   1.834  24.916  0.00  0.00    +0.222 HD
ENDBRANCH  23  27
ENDBRANCH  22  23
ENDBRANCH  21  22
ENDBRANCH   4  21
TORSDOF 8
ENDMDL
MODEL 9
REMARK VINA RESULT:      -6.2      3.905      7.114
REMARK  Name = 
REMARK  9 active torsions:
REMARK  status: ('A' for Active; 'I' for Inactive)
REMARK    1  A    between atoms: C_1  and  C_2
REMARK    2  A    between atoms: N_4  and  C_5
REMARK    3  A    between atoms: C_8  and  C_10
REMARK    4  A    between atoms: C_10  and  O_11
REMARK    5  A    between atoms: O_11  and  P_12
REMARK    6  A    between atoms: P_12  and  O_13
REMARK    7  A    between atoms: P_12  and  O_14
REMARK    8  A    between atoms: C_16  and  O_18
REMARK    9  A    between atoms: C_19  and  O_21
REMARK                            x       y       z     vdW  Elec       q    Type
REMARK                         _______ _______ _______ _____ _____    ______ ____
ROOT
ATOM      1  C   UNL     1       8.206  -2.916  24.109  0.00  0.00    +0.255 C 
ATOM      2  C   UNL     1       9.322  -2.614  23.082  0.00  0.00    +0.195 C 
ATOM      3  C   UNL     1       9.138  -1.132  22.733  0.00  0.00    +0.178 C 
ATOM      4  C   UNL     1       7.817  -0.757  23.401  0.00  0.00    +0.178 C 
ATOM      5  O   UNL     1       7.651  -1.654  24.512  0.00  0.00    -0.346 OA
ENDROOT
BRANCH   1  15
ATOM      6  C   UNL     1       6.169  -5.837  20.681  0.00  0.00    +0.049 C 
ATOM      7  C   UNL     1       6.200  -5.220  22.035  0.00  0.00    +0.006 A 
ATOM      8  C   UNL     1       5.171  -5.563  23.044  0.00  0.00    +0.126 A 
ATOM      9  N   UNL     1       4.121  -6.388  22.741  0.00  0.00    -0.343 N 
ATOM     10  H   UNL     1       4.290  -7.139  22.085  0.00  0.00    +0.144 HD
ATOM     11  H   UNL     1       3.625  -6.688  23.574  0.00  0.00    +0.144 HD
ATOM     12  N   UNL     1       5.196  -5.120  24.261  0.00  0.00    -0.178 NA
ATOM     13  C   UNL     1       6.205  -4.290  24.676  0.00  0.00    +0.352 A 
ATOM     14  O   UNL     1       6.300  -3.999  25.864  0.00  0.00    -0.244 OA
ATOM     15  N   UNL     1       7.102  -3.807  23.727  0.00  0.00    -0.270 N 
ATOM     16  C   UNL     1       7.110  -4.325  22.443  0.00  0.00    +0.100 A 
ENDBRANCH   1  15
BRANCH   2  17
ATOM     17  O   UNL     1      10.617  -2.811  23.698  0.00  0.00    -0.385 OA
ATOM     18  H   UNL     1      10.780  -2.080  24.320  0.00  0.00    +0.210 HD
ENDBRANCH   2  17
BRANCH   3  19
ATOM     19  O   UNL     1       9.152  -0.914  21.327  0.00  0.00    -0.386 OA
ATOM     20  H   UNL     1       9.377  -1.750  20.879  0.00  0.00    +0.210 HD
ENDBRANCH   3  19
BRANCH   4  21
ATOM     21  C   UNL     1       7.806   0.657  23.949  0.00  0.00    +0.206 C 
BRANCH  21  22
ATOM     22  O   UNL     1       8.860   1.465  23.429  0.00  0.00    -0.284 OA
BRANCH  22  23
ATOM     23  P   UNL     1       8.116   2.800  22.617  0.00  0.00    +0.472 P 
ATOM     24  O   UNL     1       7.451   3.993  21.890  0.00  0.00    -0.228 OA
BRANCH  23  25
ATOM     25  O   UNL     1       8.757   2.141  21.263  0.00  0.00    -0.303 OA
ATOM     26  H   UNL     1       8.235   2.379  20.475  0.00  0.00    +0.222 HD
ENDBRANCH  23  25
BRANCH  23  27
ATOM     27  O   UNL     1       9.480   3.582  23.059  0.00  0.00    -0.303 OA
ATOM     28  H   UNL     1      10.171   3.322  22.421  0.00  0.00    +0.222 HD
ENDBRANCH  23  27
ENDBRANCH  22  23
ENDBRANCH  21  22
ENDBRANCH   4  21
TORSDOF 8
ENDMDL
