MODEL 1
REMARK VINA RESULT:      -6.4      0.000      0.000
REMARK  Name = 
REMARK  8 active torsions:
REMARK  status: ('A' for Active; 'I' for Inactive)
REMARK    1  A    between atoms: C_1  and  C_2
REMARK    2  A    between atoms: N_4  and  C_5
REMARK    3  A    between atoms: C_8  and  O_10
REMARK    4  A    between atoms: C_11  and  C_13
REMARK    5  A    between atoms: C_13  and  O_14
REMARK    6  A    between atoms: O_14  and  P_15
REMARK    7  A    between atoms: P_15  and  S_16
REMARK    8  A    between atoms: P_15  and  S_17
REMARK                            x       y       z     vdW  Elec       q    Type
REMARK                         _______ _______ _______ _____ _____    ______ ____
ROOT
ATOM      1  C   UNL     1       9.201   1.343  23.434  0.00  0.00    +0.226 C 
ATOM      2  O   UNL     1       9.569   0.475  24.525  0.00  0.00    -0.348 OA
ATOM      3  C   UNL     1       9.906  -0.811  23.972  0.00  0.00    +0.175 C 
ATOM      4  C   UNL     1       9.632  -0.741  22.467  0.00  0.00    +0.150 C 
ATOM      5  C   UNL     1       9.809   0.729  22.183  0.00  0.00    +0.088 C 
ENDROOT
BRANCH   1  14
ATOM      6  C   UNL     1      12.681   4.902  23.143  0.00  0.00    +0.051 C 
ATOM      7  C   UNL     1      11.318   4.399  23.484  0.00  0.00    +0.030 A 
ATOM      8  C   UNL     1      10.337   5.385  23.996  0.00  0.00    +0.257 A 
ATOM      9  O   UNL     1      10.613   6.573  24.118  0.00  0.00    -0.267 OA
ATOM     10  N   UNL     1       9.104   4.891  24.308  0.00  0.00    -0.275 N 
ATOM     11  H   UNL     1       8.416   5.552  24.633  0.00  0.00    +0.173 HD
ATOM     12  C   UNL     1       8.679   3.606  24.116  0.00  0.00    +0.331 A 
ATOM     13  O   UNL     1       7.507   3.301  24.326  0.00  0.00    -0.246 OA
ATOM     14  N   UNL     1       9.640   2.711  23.663  0.00  0.00    -0.274 N 
ATOM     15  C   UNL     1      10.921   3.126  23.350  0.00  0.00    +0.101 A 
ENDBRANCH   1  14
BRANCH   4  16
ATOM     16  O   UNL     1      10.504  -1.545  21.689  0.00  0.00    -0.389 OA
ATOM     17  H   UNL     1      10.753  -1.057  20.886  0.00  0.00    +0.210 HD
ENDBRANCH   4  16
BRANCH   3  18
ATOM     18  C   UNL     1       9.108  -1.915  24.666  0.00  0.00    +0.203 C 
BRANCH  18  19
ATOM     19  O   UNL     1       9.371  -3.156  24.034  0.00  0.00    -0.310 OA
BRANCH  19  20
ATOM     20  P   UNL     1       8.596  -4.470  24.575  0.00  0.00    +0.309 P 
ATOM     21  O   UNL     1       9.525  -5.646  24.688  0.00  0.00    -0.267 OA
BRANCH  20  22
ATOM     22  S   UNL     1       7.056  -4.885  23.229  0.00  0.00    -0.077 S 
ATOM     23  H   UNL     1       6.079  -4.478  24.045  0.00  0.00    +0.112 HD
ENDBRANCH  20  22
BRANCH  20  24
ATOM     24  S   UNL     1       7.812  -3.979  26.444  0.00  0.00    -0.077 S 
ATOM     25  H   UNL     1       6.727  -3.371  25.948  0.00  0.00    +0.112 HD
ENDBRANCH  20  24
ENDBRANCH  19  20
ENDBRANCH  18  19
ENDBRANCH   3  18
TORSDOF 7
ENDMDL
MODEL 2
REMARK VINA RESULT:      -6.2      4.661      7.926
REMARK  Name = 
REMARK  8 active torsions:
REMARK  status: ('A' for Active; 'I' for Inactive)
REMARK    1  A    between atoms: C_1  and  C_2
REMARK    2  A    between atoms: N_4  and  C_5
REMARK    3  A    between atoms: C_8  and  O_10
REMARK    4  A    between atoms: C_11  and  C_13
REMARK    5  A    between atoms: C_13  and  O_14
REMARK    6  A    between atoms: O_14  and  P_15
REMARK    7  A    between atoms: P_15  and  S_16
REMARK    8  A    between atoms: P_15  and  S_17
REMARK                            x       y       z     vdW  Elec       q    Type
REMARK                         _______ _______ _______ _____ _____    ______ ____
ROOT
ATOM      1  C   UNL     1       9.524  -2.850  24.264  0.00  0.00    +0.226 C 
ATOM      2  O   UNL     1       9.553  -1.528  24.841  0.00  0.00    -0.348 OA
ATOM      3  C   UNL     1       9.721  -0.582  23.768  0.00  0.00    +0.175 C 
ATOM      4  C   UNL     1       9.900  -1.389  22.479  0.00  0.00    +0.150 C 
ATOM      5  C   UNL     1       9.161  -2.663  22.800  0.00  0.00    +0.088 C 
ENDROOT
BRANCH   1  14
ATOM      6  C   UNL     1       4.895  -4.058  25.671  0.00  0.00    +0.051 C 
ATOM      7  C   UNL     1       6.369  -4.290  25.602  0.00  0.00    +0.030 A 
ATOM      8  C   UNL     1       6.890  -5.537  26.211  0.00  0.00    +0.257 A 
ATOM      9  O   UNL     1       6.152  -6.364  26.733  0.00  0.00    -0.267 OA
ATOM     10  N   UNL     1       8.241  -5.712  26.141  0.00  0.00    -0.275 N 
ATOM     11  H   UNL     1       8.612  -6.567  26.527  0.00  0.00    +0.173 HD
ATOM     12  C   UNL     1       9.128  -4.894  25.499  0.00  0.00    +0.331 A 
ATOM     13  O   UNL     1      10.311  -5.214  25.401  0.00  0.00    -0.246 OA
ATOM     14  N   UNL     1       8.599  -3.723  24.969  0.00  0.00    -0.274 N 
ATOM     15  C   UNL     1       7.244  -3.457  25.022  0.00  0.00    +0.101 A 
ENDBRANCH   1  14
BRANCH   4  16
ATOM     16  O   UNL     1       9.382  -0.746  21.326  0.00  0.00    -0.389 OA
ATOM     17  H   UNL     1       8.794  -0.022  21.603  0.00  0.00    +0.210 HD
ENDBRANCH   4  16
BRANCH   3  18
ATOM     18  C   UNL     1      10.904   0.343  24.054  0.00  0.00    +0.203 C 
BRANCH  18  19
ATOM     19  O   UNL     1      10.423   1.630  24.400  0.00  0.00    -0.310 OA
BRANCH  19  20
ATOM     20  P   UNL     1      10.162   2.695  23.208  0.00  0.00    +0.309 P 
ATOM     21  O   UNL     1      10.268   2.043  21.858  0.00  0.00    -0.267 OA
BRANCH  20  22
ATOM     22  S   UNL     1      11.587   4.207  23.399  0.00  0.00    -0.077 S 
ATOM     23  H   UNL     1      11.334   4.755  22.206  0.00  0.00    +0.112 HD
ENDBRANCH  20  22
BRANCH  20  24
ATOM     24  S   UNL     1       8.245   3.464  23.497  0.00  0.00    -0.077 S 
ATOM     25  H   UNL     1       8.421   4.503  22.671  0.00  0.00    +0.112 HD
ENDBRANCH  20  24
ENDBRANCH  19  20
ENDBRANCH  18  19
ENDBRANCH   3  18
TORSDOF 7
ENDMDL
MODEL 3
REMARK VINA RESULT:      -6.0      4.872      8.391
REMARK  Name = 
REMARK  8 active torsions:
REMARK  status: ('A' for Active; 'I' for Inactive)
REMARK    1  A    between atoms: C_1  and  C_2
REMARK    2  A    between atoms: N_4  and  C_5
REMARK    3  A    between atoms: C_8  and  O_10
REMARK    4  A    between atoms: C_11  and  C_13
REMARK    5  A    between atoms: C_13  and  O_14
REMARK    6  A    between atoms: O_14  and  P_15
REMARK    7  A    between atoms: P_15  and  S_16
REMARK    8  A    between atoms: P_15  and  S_17
REMARK                            x       y       z     vdW  Elec       q    Type
REMARK                         _______ _______ _______ _____ _____    ______ ____
ROOT
ATOM      1  C   UNL     1       8.272  -3.456  25.347  0.00  0.00    +0.226 C 
ATOM      2  O   UNL     1       7.800  -2.093  25.354  0.00  0.00    -0.348 OA
ATOM      3  C   UNL     1       8.689  -1.313  24.532  0.00  0.00    +0.175 C 
ATOM      4  C   UNL     1       9.818  -2.244  24.080  0.00  0.00    +0.150 C 
ATOM      5  C   UNL     1       9.145  -3.593  24.110  0.00  0.00    +0.088 C 
ENDROOT
BRANCH   1  14
ATOM      6  C   UNL     1       4.372  -5.649  23.147  0.00  0.00    +0.051 C 
ATOM      7  C   UNL     1       5.326  -5.456  24.279  0.00  0.00    +0.030 A 
ATOM      8  C   UNL     1       5.188  -6.358  25.447  0.00  0.00    +0.257 A 
ATOM      9  O   UNL     1       4.344  -7.246  25.487  0.00  0.00    -0.267 OA
ATOM     10  N   UNL     1       6.068  -6.148  26.468  0.00  0.00    -0.275 N 
ATOM     11  H   UNL     1       6.006  -6.769  27.260  0.00  0.00    +0.173 HD
ATOM     12  C   UNL     1       7.098  -5.249  26.471  0.00  0.00    +0.331 A 
ATOM     13  O   UNL     1       7.901  -5.228  27.402  0.00  0.00    -0.246 OA
ATOM     14  N   UNL     1       7.170  -4.405  25.370  0.00  0.00    -0.274 N 
ATOM     15  C   UNL     1       6.299  -4.535  24.305  0.00  0.00    +0.101 A 
ENDBRANCH   1  14
BRANCH   4  16
ATOM     16  O   UNL     1      10.335  -1.933  22.796  0.00  0.00    -0.389 OA
ATOM     17  H   UNL     1       9.653  -1.468  22.283  0.00  0.00    +0.210 HD
ENDBRANCH   4  16
BRANCH   3  18
ATOM     18  C   UNL     1       9.201  -0.098  25.305  0.00  0.00    +0.203 C 
BRANCH  18  19
ATOM     19  O   UNL     1      10.235   0.530  24.565  0.00  0.00    -0.310 OA
BRANCH  19  20
ATOM     20  P   UNL     1       9.891   1.908  23.787  0.00  0.00    +0.309 P 
ATOM     21  O   UNL     1      11.084   2.819  23.735  0.00  0.00    -0.267 OA
BRANCH  20  22
ATOM     22  S   UNL     1       8.318   2.824  24.807  0.00  0.00    -0.077 S 
ATOM     23  H   UNL     1       7.974   3.623  23.792  0.00  0.00    +0.112 HD
ENDBRANCH  20  22
BRANCH  20  24
ATOM     24  S   UNL     1       9.294   1.377  21.860  0.00  0.00    -0.077 S 
ATOM     25  H   UNL     1       8.166   0.777  22.259  0.00  0.00    +0.112 HD
ENDBRANCH  20  24
ENDBRANCH  19  20
ENDBRANCH  18  19
ENDBRANCH   3  18
TORSDOF 7
ENDMDL
MODEL 4
REMARK VINA RESULT:      -6.0      4.570      7.701
REMARK  Name = 
REMARK  8 active torsions:
REMARK  status: ('A' for Active; 'I' for Inactive)
REMARK    1  A    between atoms: C_1  and  C_2
REMARK    2  A    between atoms: N_4  and  C_5
REMARK    3  A    between atoms: C_8  and  O_10
REMARK    4  A    between atoms: C_11  and  C_13
REMARK    5  A    between atoms: C_13  and  O_14
REMARK    6  A    between atoms: O_14  and  P_15
REMARK    7  A    between atoms: P_15  and  S_16
REMARK    8  A    between atoms: P_15  and  S_17
REMARK                            x       y       z     vdW  Elec       q    Type
REMARK                         _______ _______ _______ _____ _____    ______ ____
ROOT
ATOM      1  C   UNL     1       9.183  -1.348  23.297  0.00  0.00    +0.226 C 
ATOM      2  O   UNL     1       8.886  -0.272  24.209  0.00  0.00    -0.348 OA
ATOM      3  C   UNL     1       9.035   0.969  23.492  0.00  0.00    +0.175 C 
ATOM      4  C   UNL     1       9.545   0.621  22.091  0.00  0.00    +0.150 C 
ATOM      5  C   UNL     1       9.011  -0.776  21.899  0.00  0.00    +0.088 C 
ENDROOT
BRANCH   1  14
ATOM      6  C   UNL     1       4.798  -3.694  22.925  0.00  0.00    +0.051 C 
ATOM      7  C   UNL     1       6.236  -3.614  23.322  0.00  0.00    +0.030 A 
ATOM      8  C   UNL     1       6.847  -4.829  23.911  0.00  0.00    +0.257 A 
ATOM      9  O   UNL     1       6.218  -5.871  24.051  0.00  0.00    -0.267 OA
ATOM     10  N   UNL     1       8.158  -4.719  24.272  0.00  0.00    -0.275 N 
ATOM     11  H   UNL     1       8.598  -5.543  24.651  0.00  0.00    +0.173 HD
ATOM     12  C   UNL     1       8.962  -3.632  24.067  0.00  0.00    +0.331 A 
ATOM     13  O   UNL     1      10.162  -3.688  24.329  0.00  0.00    -0.246 OA
ATOM     14  N   UNL     1       8.339  -2.508  23.541  0.00  0.00    -0.274 N 
ATOM     15  C   UNL     1       7.007  -2.528  23.173  0.00  0.00    +0.101 A 
ENDBRANCH   1  14
BRANCH   4  16
ATOM     16  O   UNL     1       9.093   1.510  21.082  0.00  0.00    -0.389 OA
ATOM     17  H   UNL     1       9.855   1.989  20.716  0.00  0.00    +0.210 HD
ENDBRANCH   4  16
BRANCH   3  18
ATOM     18  C   UNL     1       9.975   1.909  24.245  0.00  0.00    +0.203 C 
BRANCH  18  19
ATOM     19  O   UNL     1      10.061   3.143  23.553  0.00  0.00    -0.310 OA
BRANCH  19  20
ATOM     20  P   UNL     1       8.828   4.184  23.688  0.00  0.00    +0.309 P 
ATOM     21  O   UNL     1       7.847   4.020  22.562  0.00  0.00    -0.267 OA
BRANCH  20  22
ATOM     22  S   UNL     1       9.632   6.109  23.678  0.00  0.00    -0.077 S 
ATOM     23  H   UNL     1      10.260   5.965  22.507  0.00  0.00    +0.112 HD
ENDBRANCH  20  22
BRANCH  20  24
ATOM     24  S   UNL     1       7.908   3.791  25.518  0.00  0.00    -0.077 S 
ATOM     25  H   UNL     1       8.009   5.051  25.961  0.00  0.00    +0.112 HD
ENDBRANCH  20  24
ENDBRANCH  19  20
ENDBRANCH  18  19
ENDBRANCH   3  18
TORSDOF 7
ENDMDL
MODEL 5
REMARK VINA RESULT:      -5.8      5.794      8.966
REMARK  Name = 
REMARK  8 active torsions:
REMARK  status: ('A' for Active; 'I' for Inactive)
REMARK    1  A    between atoms: C_1  and  C_2
REMARK    2  A    between atoms: N_4  and  C_5
REMARK    3  A    between atoms: C_8  and  O_10
REMARK    4  A    between atoms: C_11  and  C_13
REMARK    5  A    between atoms: C_13  and  O_14
REMARK    6  A    between atoms: O_14  and  P_15
REMARK    7  A    between atoms: P_15  and  S_16
REMARK    8  A    between atoms: P_15  and  S_17
REMARK                            x       y       z     vdW  Elec       q    Type
REMARK                         _______ _______ _______ _____ _____    ______ ____
ROOT
ATOM      1  C   UNL     1       6.693  -4.562  24.805  0.00  0.00    +0.226 C 
ATOM      2  O   UNL     1       6.253  -3.192  24.724  0.00  0.00    -0.348 OA
ATOM      3  C   UNL     1       6.072  -2.867  23.332  0.00  0.00    +0.175 C 
ATOM      4  C   UNL     1       6.524  -4.086  22.523  0.00  0.00    +0.150 C 
ATOM      5  C   UNL     1       6.285  -5.214  23.494  0.00  0.00    +0.088 C 
ENDROOT
BRANCH   1  14
ATOM      6  C   UNL     1       2.974  -6.998  27.062  0.00  0.00    +0.051 C 
ATOM      7  C   UNL     1       4.351  -6.425  27.011  0.00  0.00    +0.030 A 
ATOM      8  C   UNL     1       5.225  -6.647  28.188  0.00  0.00    +0.257 A 
ATOM      9  O   UNL     1       4.853  -7.294  29.160  0.00  0.00    -0.267 OA
ATOM     10  N   UNL     1       6.472  -6.101  28.114  0.00  0.00    -0.275 N 
ATOM     11  H   UNL     1       7.090  -6.264  28.894  0.00  0.00    +0.173 HD
ATOM     12  C   UNL     1       7.004  -5.448  27.036  0.00  0.00    +0.331 A 
ATOM     13  O   UNL     1       8.182  -5.099  27.040  0.00  0.00    -0.246 OA
ATOM     14  N   UNL     1       6.140  -5.237  25.969  0.00  0.00    -0.274 N 
ATOM     15  C   UNL     1       4.850  -5.735  25.976  0.00  0.00    +0.101 A 
ENDBRANCH   1  14
BRANCH   4  16
ATOM     16  O   UNL     1       5.809  -4.264  21.311  0.00  0.00    -0.389 OA
ATOM     17  H   UNL     1       5.022  -4.809  21.484  0.00  0.00    +0.210 HD
ENDBRANCH   4  16
BRANCH   3  18
ATOM     18  C   UNL     1       6.851  -1.601  22.976  0.00  0.00    +0.203 C 
BRANCH  18  19
ATOM     19  O   UNL     1       8.044  -1.957  22.299  0.00  0.00    -0.310 OA
BRANCH  19  20
ATOM     20  P   UNL     1       9.428  -1.260  22.771  0.00  0.00    +0.309 P 
ATOM     21  O   UNL     1      10.613  -2.130  22.459  0.00  0.00    -0.267 OA
BRANCH  20  22
ATOM     22  S   UNL     1       9.290  -0.926  24.825  0.00  0.00    -0.077 S 
ATOM     23  H   UNL     1       8.425   0.088  24.718  0.00  0.00    +0.112 HD
ENDBRANCH  20  22
BRANCH  20  24
ATOM     24  S   UNL     1       9.566   0.552  21.748  0.00  0.00    -0.077 S 
ATOM     25  H   UNL     1      10.206   1.185  22.740  0.00  0.00    +0.112 HD
ENDBRANCH  20  24
ENDBRANCH  19  20
ENDBRANCH  18  19
ENDBRANCH   3  18
TORSDOF 7
ENDMDL
MODEL 6
REMARK VINA RESULT:      -5.7      3.187      4.510
REMARK  Name = 
REMARK  8 active torsions:
REMARK  status: ('A' for Active; 'I' for Inactive)
REMARK    1  A    between atoms: C_1  and  C_2
REMARK    2  A    between atoms: N_4  and  C_5
REMARK    3  A    between atoms: C_8  and  O_10
REMARK    4  A    between atoms: C_11  and  C_13
REMARK    5  A    between atoms: C_13  and  O_14
REMARK    6  A    between atoms: O_14  and  P_15
REMARK    7  A    between atoms: P_15  and  S_16
REMARK    8  A    between atoms: P_15  and  S_17
REMARK                            x       y       z     vdW  Elec       q    Type
REMARK                         _______ _______ _______ _____ _____    ______ ____
ROOT
ATOM      1  C   UNL     1       7.371  -2.003  24.481  0.00  0.00    +0.226 C 
ATOM      2  O   UNL     1       7.941  -3.321  24.343  0.00  0.00    -0.348 OA
ATOM      3  C   UNL     1       6.972  -4.154  23.678  0.00  0.00    +0.175 C 
ATOM      4  C   UNL     1       5.707  -3.311  23.490  0.00  0.00    +0.150 C 
ATOM      5  C   UNL     1       6.265  -1.912  23.442  0.00  0.00    +0.088 C 
ENDROOT
BRANCH   1  14
ATOM      6  C   UNL     1       9.694   1.431  21.710  0.00  0.00    +0.051 C 
ATOM      7  C   UNL     1       9.450   0.691  22.984  0.00  0.00    +0.030 A 
ATOM      8  C   UNL     1      10.221   1.116  24.176  0.00  0.00    +0.257 A 
ATOM      9  O   UNL     1      11.012   2.051  24.139  0.00  0.00    -0.267 OA
ATOM     10  N   UNL     1       9.983   0.413  25.320  0.00  0.00    -0.275 N 
ATOM     11  H   UNL     1      10.479   0.705  26.148  0.00  0.00    +0.173 HD
ATOM     12  C   UNL     1       9.054  -0.578  25.478  0.00  0.00    +0.331 A 
ATOM     13  O   UNL     1       8.846  -1.063  26.588  0.00  0.00    -0.246 OA
ATOM     14  N   UNL     1       8.378  -0.964  24.328  0.00  0.00    -0.274 N 
ATOM     15  C   UNL     1       8.581  -0.320  23.122  0.00  0.00    +0.101 A 
ENDBRANCH   1  14
BRANCH   4  16
ATOM     16  O   UNL     1       4.974  -3.635  22.319  0.00  0.00    -0.389 OA
ATOM     17  H   UNL     1       4.695  -4.565  22.366  0.00  0.00    +0.210 HD
ENDBRANCH   4  16
BRANCH   3  18
ATOM     18  C   UNL     1       6.718  -5.426  24.487  0.00  0.00    +0.203 C 
BRANCH  18  19
ATOM     19  O   UNL     1       5.348  -5.492  24.843  0.00  0.00    -0.310 OA
BRANCH  19  20
ATOM     20  P   UNL     1       4.971  -5.637  26.411  0.00  0.00    +0.309 P 
ATOM     21  O   UNL     1       5.328  -6.998  26.936  0.00  0.00    -0.267 OA
BRANCH  20  22
ATOM     22  S   UNL     1       2.920  -5.301  26.594  0.00  0.00    -0.077 S 
ATOM     23  H   UNL     1       2.654  -5.510  25.301  0.00  0.00    +0.112 HD
ENDBRANCH  20  22
BRANCH  20  24
ATOM     24  S   UNL     1       6.041  -4.161  27.425  0.00  0.00    -0.077 S 
ATOM     25  H   UNL     1       6.782  -5.029  28.126  0.00  0.00    +0.112 HD
ENDBRANCH  20  24
ENDBRANCH  19  20
ENDBRANCH  18  19
ENDBRANCH   3  18
TORSDOF 7
ENDMDL
MODEL 7
REMARK VINA RESULT:      -5.7      3.026      4.584
REMARK  Name = 
REMARK  8 active torsions:
REMARK  status: ('A' for Active; 'I' for Inactive)
REMARK    1  A    between atoms: C_1  and  C_2
REMARK    2  A    between atoms: N_4  and  C_5
REMARK    3  A    between atoms: C_8  and  O_10
REMARK    4  A    between atoms: C_11  and  C_13
REMARK    5  A    between atoms: C_13  and  O_14
REMARK    6  A    between atoms: O_14  and  P_15
REMARK    7  A    between atoms: P_15  and  S_16
REMARK    8  A    between atoms: P_15  and  S_17
REMARK                            x       y       z     vdW  Elec       q    Type
REMARK                         _______ _______ _______ _____ _____    ______ ____
ROOT
ATOM      1  C   UNL     1       8.338  -2.591  23.882  0.00  0.00    +0.226 C 
ATOM      2  O   UNL     1       7.253  -2.513  24.829  0.00  0.00    -0.348 OA
ATOM      3  C   UNL     1       7.431  -3.567  25.794  0.00  0.00    +0.175 C 
ATOM      4  C   UNL     1       8.643  -4.389  25.345  0.00  0.00    +0.150 C 
ATOM      5  C   UNL     1       9.444  -3.371  24.573  0.00  0.00    +0.088 C 
ENDROOT
BRANCH   1  14
ATOM      6  C   UNL     1       9.018   2.272  24.746  0.00  0.00    +0.051 C 
ATOM      7  C   UNL     1       9.104   1.046  23.898  0.00  0.00    +0.030 A 
ATOM      8  C   UNL     1       9.750   1.181  22.571  0.00  0.00    +0.257 A 
ATOM      9  O   UNL     1      10.221   2.243  22.183  0.00  0.00    -0.267 OA
ATOM     10  N   UNL     1       9.803   0.045  21.818  0.00  0.00    -0.275 N 
ATOM     11  H   UNL     1      10.262   0.112  20.923  0.00  0.00    +0.173 HD
ATOM     12  C   UNL     1       9.391  -1.199  22.206  0.00  0.00    +0.331 A 
ATOM     13  O   UNL     1       9.595  -2.174  21.485  0.00  0.00    -0.246 OA
ATOM     14  N   UNL     1       8.764  -1.272  23.443  0.00  0.00    -0.274 N 
ATOM     15  C   UNL     1       8.647  -0.161  24.257  0.00  0.00    +0.101 A 
ENDBRANCH   1  14
BRANCH   4  16
ATOM     16  O   UNL     1       9.383  -4.949  26.418  0.00  0.00    -0.389 OA
ATOM     17  H   UNL     1       9.163  -4.473  27.237  0.00  0.00    +0.210 HD
ENDBRANCH   4  16
BRANCH   3  18
ATOM     18  C   UNL     1       6.159  -4.407  25.906  0.00  0.00    +0.203 C 
BRANCH  18  19
ATOM     19  O   UNL     1       6.335  -5.625  25.203  0.00  0.00    -0.310 OA
BRANCH  19  20
ATOM     20  P   UNL     1       5.319  -5.961  23.988  0.00  0.00    +0.309 P 
ATOM     21  O   UNL     1       4.598  -7.259  24.220  0.00  0.00    -0.267 OA
BRANCH  20  22
ATOM     22  S   UNL     1       6.450  -6.059  22.237  0.00  0.00    -0.077 S 
ATOM     23  H   UNL     1       6.251  -4.780  21.901  0.00  0.00    +0.112 HD
ENDBRANCH  20  22
BRANCH  20  24
ATOM     24  S   UNL     1       3.961  -4.381  23.887  0.00  0.00    -0.077 S 
ATOM     25  H   UNL     1       2.963  -5.129  23.397  0.00  0.00    +0.112 HD
ENDBRANCH  20  24
ENDBRANCH  19  20
ENDBRANCH  18  19
ENDBRANCH   3  18
TORSDOF 7
ENDMDL
MODEL 8
REMARK VINA RESULT:      -5.6      1.395      1.914
REMARK  Name = 
REMARK  8 active torsions:
REMARK  status: ('A' for Active; 'I' for Inactive)
REMARK    1  A    between atoms: C_1  and  C_2
REMARK    2  A    between atoms: N_4  and  C_5
REMARK    3  A    between atoms: C_8  and  O_10
REMARK    4  A    between atoms: C_11  and  C_13
REMARK    5  A    between atoms: C_13  and  O_14
REMARK    6  A    between atoms: O_14  and  P_15
REMARK    7  A    between atoms: P_15  and  S_16
REMARK    8  A    between atoms: P_15  and  S_17
REMARK                            x       y       z     vdW  Elec       q    Type
REMARK                         _______ _______ _______ _____ _____    ______ ____
ROOT
ATOM      1  C   UNL     1       9.048   1.239  23.451  0.00  0.00    +0.226 C 
ATOM      2  O   UNL     1       9.713   0.352  24.373  0.00  0.00    -0.348 OA
ATOM      3  C   UNL     1       9.960  -0.892  23.690  0.00  0.00    +0.175 C 
ATOM      4  C   UNL     1       9.319  -0.779  22.304  0.00  0.00    +0.150 C 
ATOM      5  C   UNL     1       9.355   0.708  22.060  0.00  0.00    +0.088 C 
ENDROOT
BRANCH   1  14
ATOM      6  C   UNL     1      12.550   4.783  23.261  0.00  0.00    +0.051 C 
ATOM      7  C   UNL     1      11.160   4.298  23.507  0.00  0.00    +0.030 A 
ATOM      8  C   UNL     1      10.140   5.311  23.866  0.00  0.00    +0.257 A 
ATOM      9  O   UNL     1      10.406   6.505  23.940  0.00  0.00    -0.267 OA
ATOM     10  N   UNL     1       8.882   4.834  24.094  0.00  0.00    -0.275 N 
ATOM     11  H   UNL     1       8.169   5.511  24.315  0.00  0.00    +0.173 HD
ATOM     12  C   UNL     1       8.473   3.538  23.944  0.00  0.00    +0.331 A 
ATOM     13  O   UNL     1       7.285   3.243  24.065  0.00  0.00    -0.246 OA
ATOM     14  N   UNL     1       9.468   2.619  23.636  0.00  0.00    -0.274 N 
ATOM     15  C   UNL     1      10.773   3.018  23.415  0.00  0.00    +0.101 A 
ENDBRANCH   1  14
BRANCH   4  16
ATOM     16  O   UNL     1      10.007  -1.502  21.296  0.00  0.00    -0.389 OA
ATOM     17  H   UNL     1      10.412  -2.292  21.693  0.00  0.00    +0.210 HD
ENDBRANCH   4  16
BRANCH   3  18
ATOM     18  C   UNL     1       9.408  -2.064  24.501  0.00  0.00    +0.203 C 
BRANCH  18  19
ATOM     19  O   UNL     1       8.347  -1.609  25.323  0.00  0.00    -0.310 OA
BRANCH  19  20
ATOM     20  P   UNL     1       6.840  -2.068  24.951  0.00  0.00    +0.309 P 
ATOM     21  O   UNL     1       6.071  -0.949  24.307  0.00  0.00    -0.267 OA
BRANCH  20  22
ATOM     22  S   UNL     1       5.912  -2.663  26.722  0.00  0.00    -0.077 S 
ATOM     23  H   UNL     1       6.979  -3.315  27.196  0.00  0.00    +0.112 HD
ENDBRANCH  20  22
BRANCH  20  24
ATOM     24  S   UNL     1       7.009  -3.683  23.642  0.00  0.00    -0.077 S 
ATOM     25  H   UNL     1       7.511  -4.515  24.564  0.00  0.00    +0.112 HD
ENDBRANCH  20  24
ENDBRANCH  19  20
ENDBRANCH  18  19
ENDBRANCH   3  18
TORSDOF 7
ENDMDL
MODEL 9
REMARK VINA RESULT:      -5.6      4.774      7.618
REMARK  Name = 
REMARK  8 active torsions:
REMARK  status: ('A' for Active; 'I' for Inactive)
REMARK    1  A    between atoms: C_1  and  C_2
REMARK    2  A    between atoms: N_4  and  C_5
REMARK    3  A    between atoms: C_8  and  O_10
REMARK    4  A    between atoms: C_11  and  C_13
REMARK    5  A    between atoms: C_13  and  O_14
REMARK    6  A    between atoms: O_14  and  P_15
REMARK    7  A    between atoms: P_15  and  S_16
REMARK    8  A    between atoms: P_15  and  S_17
REMARK                            x       y       z     vdW  Elec       q    Type
REMARK                         _______ _______ _______ _____ _____    ______ ____
ROOT
ATOM      1  C   UNL     1       8.173   0.001  23.994  0.00  0.00    +0.226 C 
ATOM      2  O   UNL     1       7.035   0.383  23.194  0.00  0.00    -0.348 OA
ATOM      3  C   UNL     1       7.477   1.364  22.237  0.00  0.00    +0.175 C 
ATOM      4  C   UNL     1       8.948   1.661  22.543  0.00  0.00    +0.150 C 
ATOM      5  C   UNL     1       9.403   0.374  23.183  0.00  0.00    +0.088 C 
ENDROOT
BRANCH   1  14
ATOM      6  C   UNL     1       7.412  -4.770  22.761  0.00  0.00    +0.051 C 
ATOM      7  C   UNL     1       7.789  -3.686  23.716  0.00  0.00    +0.030 A 
ATOM      8  C   UNL     1       8.238  -4.096  25.068  0.00  0.00    +0.257 A 
ATOM      9  O   UNL     1       8.324  -5.274  25.395  0.00  0.00    -0.267 OA
ATOM     10  N   UNL     1       8.565  -3.081  25.919  0.00  0.00    -0.275 N 
ATOM     11  H   UNL     1       8.897  -3.342  26.835  0.00  0.00    +0.173 HD
ATOM     12  C   UNL     1       8.591  -1.749  25.613  0.00  0.00    +0.331 A 
ATOM     13  O   UNL     1       9.015  -0.932  26.427  0.00  0.00    -0.246 OA
ATOM     14  N   UNL     1       8.133  -1.410  24.346  0.00  0.00    -0.274 N 
ATOM     15  C   UNL     1       7.758  -2.377  23.432  0.00  0.00    +0.101 A 
ENDBRANCH   1  14
BRANCH   4  16
ATOM     16  O   UNL     1       9.715   1.988  21.396  0.00  0.00    -0.389 OA
ATOM     17  H   UNL     1       9.230   2.643  20.865  0.00  0.00    +0.210 HD
ENDBRANCH   4  16
BRANCH   3  18
ATOM     18  C   UNL     1       6.597   2.612  22.308  0.00  0.00    +0.203 C 
BRANCH  18  19
ATOM     19  O   UNL     1       7.326   3.731  21.834  0.00  0.00    -0.310 OA
BRANCH  19  20
ATOM     20  P   UNL     1       7.139   5.146  22.599  0.00  0.00    +0.309 P 
ATOM     21  O   UNL     1       7.461   6.302  21.696  0.00  0.00    -0.267 OA
BRANCH  20  22
ATOM     22  S   UNL     1       8.413   5.136  24.251  0.00  0.00    -0.077 S 
ATOM     23  H   UNL     1       8.586   6.461  24.270  0.00  0.00    +0.112 HD
ENDBRANCH  20  22
BRANCH  20  24
ATOM     24  S   UNL     1       5.149   5.235  23.217  0.00  0.00    -0.077 S 
ATOM     25  H   UNL     1       5.301   4.334  24.197  0.00  0.00    +0.112 HD
ENDBRANCH  20  24
ENDBRANCH  19  20
ENDBRANCH  18  19
ENDBRANCH   3  18
TORSDOF 7
ENDMDL
