MODEL 1
REMARK VINA RESULT:      -6.5      0.000      0.000
REMARK  Name = 
REMARK  10 active torsions:
REMARK  status: ('A' for Active; 'I' for Inactive)
REMARK    1  A    between atoms: C_1  and  C_2
REMARK    2  A    between atoms: C_2  and  C_3
REMARK    3  A    between atoms: C_3  and  C_4
REMARK    4  A    between atoms: C_3  and  C_6
REMARK    5  A    between atoms: C_4  and  C_5
REMARK    6  A    between atoms: N_8  and  C_9
REMARK    7  A    between atoms: C_11  and  C_19
REMARK    8  A    between atoms: C_14  and  N_15
REMARK    9  A    between atoms: C_16  and  C_17
REMARK   10  A    between atoms: C_19  and  O_20
REMARK                            x       y       z     vdW  Elec       q    Type
REMARK                         _______ _______ _______ _____ _____    ______ ____
ROOT
ATOM      1  C   UNL     1       8.024  -2.633  23.052  0.00  0.00    +0.056 A 
ATOM      2  C   UNL     1       8.301  -3.204  24.320  0.00  0.00    +0.055 A 
ATOM      3  C   UNL     1       7.991  -4.561  24.531  0.00  0.00    +0.026 A 
ATOM      4  C   UNL     1       7.333  -5.319  23.562  0.00  0.00    +0.017 A 
ATOM      5  C   UNL     1       6.990  -4.737  22.349  0.00  0.00    +0.061 A 
ATOM      6  C   UNL     1       7.396  -3.428  22.077  0.00  0.00    +0.040 A 
ENDROOT
BRANCH   2   7
ATOM      7  N   UNL     1       8.755  -2.390  25.395  0.00  0.00    -0.284 N 
ATOM      8  H   UNL     1       9.731  -2.131  25.384  0.00  0.00    +0.155 HD
ATOM      9  C   UNL     1       7.955  -1.791  26.359  0.00  0.00    +0.214 C 
ATOM     10  O   UNL     1       6.797  -2.088  26.634  0.00  0.00    -0.276 OA
ATOM     11  C   UNL     1       8.650  -0.682  27.103  0.00  0.00    +0.109 C 
ENDBRANCH   2   7
BRANCH   1  13
ATOM     12  C   UNL     1       9.706  -0.912  22.377  0.00  0.00    +0.220 C 
ATOM     13  N   UNL     1       8.418  -1.297  22.738  0.00  0.00    -0.284 N 
ATOM     14  H   UNL     1       7.716  -0.576  22.832  0.00  0.00    +0.155 HD
ATOM     15  O   UNL     1      10.607  -1.694  22.080  0.00  0.00    -0.275 OA
BRANCH  12  16
ATOM     16  C   UNL     1       9.930   0.602  22.290  0.00  0.00    +0.075 C 
BRANCH  16  18
ATOM     17  C   UNL     1       8.063   2.355  21.930  0.00  0.00    +0.004 C 
ATOM     18  C   UNL     1       8.882   1.219  21.334  0.00  0.00    +0.009 C 
ENDBRANCH  16  18
BRANCH  16  19
ATOM     19  C   UNL     1       9.947   1.216  23.699  0.00  0.00    +0.009 C 
ATOM     20  C   UNL     1      11.020   0.652  24.627  0.00  0.00    +0.004 C 
ENDBRANCH  16  19
ENDBRANCH  12  16
ENDBRANCH   1  13
BRANCH   5  21
ATOM     21  C   UNL     1       6.209  -5.528  21.370  0.00  0.00    +0.337 C 
ATOM     22  O   UNL     1       5.974  -5.143  20.237  0.00  0.00    -0.245 OA
BRANCH  21  23
ATOM     23  O   UNL     1       5.846  -6.745  21.826  0.00  0.00    -0.477 OA
ATOM     24  H   UNL     1       5.152  -7.205  21.316  0.00  0.00    +0.295 HD
ENDBRANCH  21  23
ENDBRANCH   5  21
TORSDOF 7
ENDMDL
MODEL 2
REMARK VINA RESULT:      -6.1      2.262      6.018
REMARK  Name = 
REMARK  10 active torsions:
REMARK  status: ('A' for Active; 'I' for Inactive)
REMARK    1  A    between atoms: C_1  and  C_2
REMARK    2  A    between atoms: C_2  and  C_3
REMARK    3  A    between atoms: C_3  and  C_4
REMARK    4  A    between atoms: C_3  and  C_6
REMARK    5  A    between atoms: C_4  and  C_5
REMARK    6  A    between atoms: N_8  and  C_9
REMARK    7  A    between atoms: C_11  and  C_19
REMARK    8  A    between atoms: C_14  and  N_15
REMARK    9  A    between atoms: C_16  and  C_17
REMARK   10  A    between atoms: C_19  and  O_20
REMARK                            x       y       z     vdW  Elec       q    Type
REMARK                         _______ _______ _______ _____ _____    ______ ____
ROOT
ATOM      1  C   UNL     1       8.430  -1.248  23.544  0.00  0.00    +0.056 A 
ATOM      2  C   UNL     1       8.832  -1.400  24.895  0.00  0.00    +0.055 A 
ATOM      3  C   UNL     1       9.539  -0.351  25.511  0.00  0.00    +0.026 A 
ATOM      4  C   UNL     1       9.936   0.780  24.798  0.00  0.00    +0.017 A 
ATOM      5  C   UNL     1       9.612   0.893  23.452  0.00  0.00    +0.061 A 
ATOM      6  C   UNL     1       8.808  -0.081  22.856  0.00  0.00    +0.040 A 
ENDROOT
BRANCH   2   7
ATOM      7  N   UNL     1       8.641  -2.638  25.570  0.00  0.00    -0.284 N 
ATOM      8  H   UNL     1       7.989  -2.637  26.341  0.00  0.00    +0.155 HD
ATOM      9  C   UNL     1       9.140  -3.871  25.168  0.00  0.00    +0.214 C 
ATOM     10  O   UNL     1      10.049  -4.065  24.369  0.00  0.00    -0.276 OA
ATOM     11  C   UNL     1       8.450  -5.035  25.829  0.00  0.00    +0.109 C 
ENDBRANCH   2   7
BRANCH   1  13
ATOM     12  C   UNL     1       6.281  -2.479  23.212  0.00  0.00    +0.220 C 
ATOM     13  N   UNL     1       7.613  -2.224  22.898  0.00  0.00    -0.284 N 
ATOM     14  H   UNL     1       8.054  -2.801  22.195  0.00  0.00    +0.155 HD
ATOM     15  O   UNL     1       5.587  -1.761  23.929  0.00  0.00    -0.275 OA
BRANCH  12  16
ATOM     16  C   UNL     1       5.677  -3.710  22.526  0.00  0.00    +0.075 C 
BRANCH  16  18
ATOM     17  C   UNL     1       6.487  -5.736  21.135  0.00  0.00    +0.004 C 
ATOM     18  C   UNL     1       6.798  -4.738  22.241  0.00  0.00    +0.009 C 
ENDBRANCH  16  18
BRANCH  16  19
ATOM     19  C   UNL     1       4.507  -4.258  23.359  0.00  0.00    +0.009 C 
ATOM     20  C   UNL     1       4.913  -5.206  24.482  0.00  0.00    +0.004 C 
ENDBRANCH  16  19
ENDBRANCH  12  16
ENDBRANCH   1  13
BRANCH   5  21
ATOM     21  C   UNL     1      10.122   2.055  22.688  0.00  0.00    +0.337 C 
ATOM     22  O   UNL     1      10.830   2.918  23.179  0.00  0.00    -0.245 OA
BRANCH  21  23
ATOM     23  O   UNL     1       9.792   2.028  21.380  0.00  0.00    -0.477 OA
ATOM     24  H   UNL     1      10.532   2.110  20.747  0.00  0.00    +0.295 HD
ENDBRANCH  21  23
ENDBRANCH   5  21
TORSDOF 7
ENDMDL
MODEL 3
REMARK VINA RESULT:      -6.0      2.356      6.021
REMARK  Name = 
REMARK  10 active torsions:
REMARK  status: ('A' for Active; 'I' for Inactive)
REMARK    1  A    between atoms: C_1  and  C_2
REMARK    2  A    between atoms: C_2  and  C_3
REMARK    3  A    between atoms: C_3  and  C_4
REMARK    4  A    between atoms: C_3  and  C_6
REMARK    5  A    between atoms: C_4  and  C_5
REMARK    6  A    between atoms: N_8  and  C_9
REMARK    7  A    between atoms: C_11  and  C_19
REMARK    8  A    between atoms: C_14  and  N_15
REMARK    9  A    between atoms: C_16  and  C_17
REMARK   10  A    between atoms: C_19  and  O_20
REMARK                            x       y       z     vdW  Elec       q    Type
REMARK                         _______ _______ _______ _____ _____    ______ ____
ROOT
ATOM      1  C   UNL     1       8.198  -1.566  22.819  0.00  0.00    +0.056 A 
ATOM      2  C   UNL     1       9.228  -1.899  23.735  0.00  0.00    +0.055 A 
ATOM      3  C   UNL     1      10.109  -0.887  24.158  0.00  0.00    +0.026 A 
ATOM      4  C   UNL     1      10.052   0.401  23.623  0.00  0.00    +0.017 A 
ATOM      5  C   UNL     1       9.094   0.706  22.666  0.00  0.00    +0.061 A 
ATOM      6  C   UNL     1       8.136  -0.251  22.324  0.00  0.00    +0.040 A 
ENDROOT
BRANCH   2   7
ATOM      7  N   UNL     1       9.448  -3.253  24.113  0.00  0.00    -0.284 N 
ATOM      8  H   UNL     1      10.075  -3.789  23.531  0.00  0.00    +0.155 HD
ATOM      9  C   UNL     1       9.013  -3.853  25.288  0.00  0.00    +0.214 C 
ATOM     10  O   UNL     1       8.136  -3.437  26.039  0.00  0.00    -0.276 OA
ATOM     11  C   UNL     1       9.729  -5.141  25.599  0.00  0.00    +0.109 C 
ENDBRANCH   2   7
BRANCH   1  13
ATOM     12  C   UNL     1       6.048  -2.791  23.166  0.00  0.00    +0.220 C 
ATOM     13  N   UNL     1       7.205  -2.519  22.441  0.00  0.00    -0.284 N 
ATOM     14  H   UNL     1       7.384  -3.066  21.609  0.00  0.00    +0.155 HD
ATOM     15  O   UNL     1       5.635  -2.105  24.098  0.00  0.00    -0.275 OA
BRANCH  12  16
ATOM     16  C   UNL     1       5.240  -3.996  22.669  0.00  0.00    +0.075 C 
BRANCH  16  18
ATOM     17  C   UNL     1       6.255  -5.700  21.008  0.00  0.00    +0.004 C 
ATOM     18  C   UNL     1       6.194  -5.192  22.442  0.00  0.00    +0.009 C 
ENDBRANCH  16  18
BRANCH  16  19
ATOM     19  C   UNL     1       4.075  -4.283  23.631  0.00  0.00    +0.009 C 
ATOM     20  C   UNL     1       3.232  -5.502  23.265  0.00  0.00    +0.004 C 
ENDBRANCH  16  19
ENDBRANCH  12  16
ENDBRANCH   1  13
BRANCH   5  21
ATOM     21  C   UNL     1       9.108   2.049  22.041  0.00  0.00    +0.337 C 
ATOM     22  O   UNL     1       8.128   2.771  21.988  0.00  0.00    -0.245 OA
BRANCH  21  23
ATOM     23  O   UNL     1      10.327   2.427  21.601  0.00  0.00    -0.477 OA
ATOM     24  H   UNL     1      10.353   3.228  21.043  0.00  0.00    +0.295 HD
ENDBRANCH  21  23
ENDBRANCH   5  21
TORSDOF 7
ENDMDL
MODEL 4
REMARK VINA RESULT:      -5.9      2.598      3.290
REMARK  Name = 
REMARK  10 active torsions:
REMARK  status: ('A' for Active; 'I' for Inactive)
REMARK    1  A    between atoms: C_1  and  C_2
REMARK    2  A    between atoms: C_2  and  C_3
REMARK    3  A    between atoms: C_3  and  C_4
REMARK    4  A    between atoms: C_3  and  C_6
REMARK    5  A    between atoms: C_4  and  C_5
REMARK    6  A    between atoms: N_8  and  C_9
REMARK    7  A    between atoms: C_11  and  C_19
REMARK    8  A    between atoms: C_14  and  N_15
REMARK    9  A    between atoms: C_16  and  C_17
REMARK   10  A    between atoms: C_19  and  O_20
REMARK                            x       y       z     vdW  Elec       q    Type
REMARK                         _______ _______ _______ _____ _____    ______ ____
ROOT
ATOM      1  C   UNL     1       8.817  -1.321  24.527  0.00  0.00    +0.056 A 
ATOM      2  C   UNL     1       7.976  -1.051  25.636  0.00  0.00    +0.055 A 
ATOM      3  C   UNL     1       7.733  -2.079  26.565  0.00  0.00    +0.026 A 
ATOM      4  C   UNL     1       8.216  -3.373  26.365  0.00  0.00    +0.017 A 
ATOM      5  C   UNL     1       8.973  -3.658  25.236  0.00  0.00    +0.061 A 
ATOM      6  C   UNL     1       9.324  -2.623  24.367  0.00  0.00    +0.040 A 
ENDROOT
BRANCH   2   7
ATOM      7  N   UNL     1       7.287   0.190  25.734  0.00  0.00    -0.284 N 
ATOM      8  H   UNL     1       7.824   0.981  26.060  0.00  0.00    +0.155 HD
ATOM      9  C   UNL     1       6.002   0.448  25.273  0.00  0.00    +0.214 C 
ATOM     10  O   UNL     1       5.147  -0.384  24.990  0.00  0.00    -0.276 OA
ATOM     11  C   UNL     1       5.702   1.918  25.144  0.00  0.00    +0.109 C 
ENDBRANCH   2   7
BRANCH   1  13
ATOM     12  C   UNL     1      10.205   0.639  23.837  0.00  0.00    +0.220 C 
ATOM     13  N   UNL     1       9.194  -0.291  23.613  0.00  0.00    -0.284 N 
ATOM     14  H   UNL     1       8.652  -0.207  22.764  0.00  0.00    +0.155 HD
ATOM     15  O   UNL     1      11.032   0.561  24.743  0.00  0.00    -0.275 OA
BRANCH  12  16
ATOM     16  C   UNL     1      10.286   1.770  22.805  0.00  0.00    +0.075 C 
BRANCH  16  18
ATOM     17  C   UNL     1       7.973   2.542  21.943  0.00  0.00    +0.004 C 
ATOM     18  C   UNL     1       9.153   1.597  21.767  0.00  0.00    +0.009 C 
ENDBRANCH  16  18
BRANCH  16  19
ATOM     19  C   UNL     1      10.297   3.133  23.516  0.00  0.00    +0.009 C 
ATOM     20  C   UNL     1      11.570   3.949  23.312  0.00  0.00    +0.004 C 
ENDBRANCH  16  19
ENDBRANCH  12  16
ENDBRANCH   1  13
BRANCH   5  21
ATOM     21  C   UNL     1       9.396  -5.056  24.992  0.00  0.00    +0.337 C 
ATOM     22  O   UNL     1       8.976  -5.729  24.067  0.00  0.00    -0.245 OA
BRANCH  21  23
ATOM     23  O   UNL     1      10.347  -5.490  25.847  0.00  0.00    -0.477 OA
ATOM     24  H   UNL     1      10.027  -5.893  26.677  0.00  0.00    +0.295 HD
ENDBRANCH  21  23
ENDBRANCH   5  21
TORSDOF 7
ENDMDL
MODEL 5
REMARK VINA RESULT:      -5.8      2.594      6.829
REMARK  Name = 
REMARK  10 active torsions:
REMARK  status: ('A' for Active; 'I' for Inactive)
REMARK    1  A    between atoms: C_1  and  C_2
REMARK    2  A    between atoms: C_2  and  C_3
REMARK    3  A    between atoms: C_3  and  C_4
REMARK    4  A    between atoms: C_3  and  C_6
REMARK    5  A    between atoms: C_4  and  C_5
REMARK    6  A    between atoms: N_8  and  C_9
REMARK    7  A    between atoms: C_11  and  C_19
REMARK    8  A    between atoms: C_14  and  N_15
REMARK    9  A    between atoms: C_16  and  C_17
REMARK   10  A    between atoms: C_19  and  O_20
REMARK                            x       y       z     vdW  Elec       q    Type
REMARK                         _______ _______ _______ _____ _____    ______ ____
ROOT
ATOM      1  C   UNL     1       7.858  -2.947  24.384  0.00  0.00    +0.056 A 
ATOM      2  C   UNL     1       7.885  -3.149  22.982  0.00  0.00    +0.055 A 
ATOM      3  C   UNL     1       8.793  -2.400  22.209  0.00  0.00    +0.026 A 
ATOM      4  C   UNL     1       9.587  -1.403  22.778  0.00  0.00    +0.017 A 
ATOM      5  C   UNL     1       9.502  -1.151  24.141  0.00  0.00    +0.061 A 
ATOM      6  C   UNL     1       8.697  -1.964  24.941  0.00  0.00    +0.040 A 
ENDROOT
BRANCH   2   7
ATOM      7  N   UNL     1       6.924  -3.989  22.354  0.00  0.00    -0.284 N 
ATOM      8  H   UNL     1       6.073  -3.546  22.039  0.00  0.00    +0.155 HD
ATOM      9  C   UNL     1       7.115  -5.317  21.992  0.00  0.00    +0.214 C 
ATOM     10  O   UNL     1       7.993  -6.067  22.403  0.00  0.00    -0.276 OA
ATOM     11  C   UNL     1       6.097  -5.813  20.998  0.00  0.00    +0.109 C 
ENDBRANCH   2   7
BRANCH   1  13
ATOM     12  C   UNL     1       7.408  -5.001  25.734  0.00  0.00    +0.220 C 
ATOM     13  N   UNL     1       7.044  -3.754  25.235  0.00  0.00    -0.284 N 
ATOM     14  H   UNL     1       6.117  -3.410  25.448  0.00  0.00    +0.155 HD
ATOM     15  O   UNL     1       8.544  -5.466  25.681  0.00  0.00    -0.275 OA
BRANCH  12  16
ATOM     16  C   UNL     1       6.289  -5.764  26.452  0.00  0.00    +0.075 C 
BRANCH  16  18
ATOM     17  C   UNL     1       6.072  -6.416  28.946  0.00  0.00    +0.004 C 
ATOM     18  C   UNL     1       6.215  -5.297  27.925  0.00  0.00    +0.009 C 
ENDBRANCH  16  18
BRANCH  16  19
ATOM     19  C   UNL     1       4.970  -5.626  25.673  0.00  0.00    +0.009 C 
ATOM     20  C   UNL     1       4.771  -6.659  24.568  0.00  0.00    +0.004 C 
ENDBRANCH  16  19
ENDBRANCH  12  16
ENDBRANCH   1  13
BRANCH   5  21
ATOM     21  C   UNL     1      10.282  -0.027  24.711  0.00  0.00    +0.337 C 
ATOM     22  O   UNL     1      11.126   0.586  24.081  0.00  0.00    -0.245 OA
BRANCH  21  23
ATOM     23  O   UNL     1       9.917   0.300  25.968  0.00  0.00    -0.477 OA
ATOM     24  H   UNL     1       9.639   1.226  26.108  0.00  0.00    +0.295 HD
ENDBRANCH  21  23
ENDBRANCH   5  21
TORSDOF 7
ENDMDL
MODEL 6
REMARK VINA RESULT:      -5.8      4.127      7.998
REMARK  Name = 
REMARK  10 active torsions:
REMARK  status: ('A' for Active; 'I' for Inactive)
REMARK    1  A    between atoms: C_1  and  C_2
REMARK    2  A    between atoms: C_2  and  C_3
REMARK    3  A    between atoms: C_3  and  C_4
REMARK    4  A    between atoms: C_3  and  C_6
REMARK    5  A    between atoms: C_4  and  C_5
REMARK    6  A    between atoms: N_8  and  C_9
REMARK    7  A    between atoms: C_11  and  C_19
REMARK    8  A    between atoms: C_14  and  N_15
REMARK    9  A    between atoms: C_16  and  C_17
REMARK   10  A    between atoms: C_19  and  O_20
REMARK                            x       y       z     vdW  Elec       q    Type
REMARK                         _______ _______ _______ _____ _____    ______ ____
ROOT
ATOM      1  C   UNL     1       9.689   3.142  23.685  0.00  0.00    +0.056 A 
ATOM      2  C   UNL     1       8.618   4.067  23.771  0.00  0.00    +0.055 A 
ATOM      3  C   UNL     1       8.901   5.441  23.660  0.00  0.00    +0.026 A 
ATOM      4  C   UNL     1      10.212   5.911  23.568  0.00  0.00    +0.017 A 
ATOM      5  C   UNL     1      11.268   5.009  23.565  0.00  0.00    +0.061 A 
ATOM      6  C   UNL     1      10.999   3.639  23.554  0.00  0.00    +0.040 A 
ENDROOT
BRANCH   2   7
ATOM      7  N   UNL     1       7.306   3.623  24.096  0.00  0.00    -0.284 N 
ATOM      8  H   UNL     1       7.057   3.626  25.075  0.00  0.00    +0.155 HD
ATOM      9  C   UNL     1       6.290   3.346  23.190  0.00  0.00    +0.214 C 
ATOM     10  O   UNL     1       6.421   3.141  21.987  0.00  0.00    -0.276 OA
ATOM     11  C   UNL     1       4.925   3.300  23.823  0.00  0.00    +0.109 C 
ENDBRANCH   2   7
BRANCH   1  13
ATOM     12  C   UNL     1       9.169   0.984  22.539  0.00  0.00    +0.220 C 
ATOM     13  N   UNL     1       9.456   1.734  23.676  0.00  0.00    -0.284 N 
ATOM     14  H   UNL     1       9.453   1.262  24.570  0.00  0.00    +0.155 HD
ATOM     15  O   UNL     1       9.289   1.395  21.387  0.00  0.00    -0.275 OA
BRANCH  12  16
ATOM     16  C   UNL     1       8.754  -0.468  22.808  0.00  0.00    +0.075 C 
BRANCH  16  18
ATOM     17  C   UNL     1       9.991  -2.529  23.764  0.00  0.00    +0.004 C 
ATOM     18  C   UNL     1      10.009  -1.372  22.774  0.00  0.00    +0.009 C 
ENDBRANCH  16  18
BRANCH  16  19
ATOM     19  C   UNL     1       7.942  -0.553  24.111  0.00  0.00    +0.009 C 
ATOM     20  C   UNL     1       6.443  -0.325  23.943  0.00  0.00    +0.004 C 
ENDBRANCH  16  19
ENDBRANCH  12  16
ENDBRANCH   1  13
BRANCH   5  21
ATOM     21  C   UNL     1      12.654   5.529  23.564  0.00  0.00    +0.337 C 
ATOM     22  O   UNL     1      13.453   5.297  22.672  0.00  0.00    -0.245 OA
BRANCH  21  23
ATOM     23  O   UNL     1      12.927   6.344  24.604  0.00  0.00    -0.477 OA
ATOM     24  H   UNL     1      12.674   7.281  24.495  0.00  0.00    +0.295 HD
ENDBRANCH  21  23
ENDBRANCH   5  21
TORSDOF 7
ENDMDL
MODEL 7
REMARK VINA RESULT:      -5.7      2.432      6.136
REMARK  Name = 
REMARK  10 active torsions:
REMARK  status: ('A' for Active; 'I' for Inactive)
REMARK    1  A    between atoms: C_1  and  C_2
REMARK    2  A    between atoms: C_2  and  C_3
REMARK    3  A    between atoms: C_3  and  C_4
REMARK    4  A    between atoms: C_3  and  C_6
REMARK    5  A    between atoms: C_4  and  C_5
REMARK    6  A    between atoms: N_8  and  C_9
REMARK    7  A    between atoms: C_11  and  C_19
REMARK    8  A    between atoms: C_14  and  N_15
REMARK    9  A    between atoms: C_16  and  C_17
REMARK   10  A    between atoms: C_19  and  O_20
REMARK                            x       y       z     vdW  Elec       q    Type
REMARK                         _______ _______ _______ _____ _____    ______ ____
ROOT
ATOM      1  C   UNL     1       7.897  -1.277  23.824  0.00  0.00    +0.056 A 
ATOM      2  C   UNL     1       8.195  -2.158  22.755  0.00  0.00    +0.055 A 
ATOM      3  C   UNL     1       9.188  -1.786  21.829  0.00  0.00    +0.026 A 
ATOM      4  C   UNL     1       9.808  -0.537  21.886  0.00  0.00    +0.017 A 
ATOM      5  C   UNL     1       9.459   0.359  22.888  0.00  0.00    +0.061 A 
ATOM      6  C   UNL     1       8.564  -0.039  23.884  0.00  0.00    +0.040 A 
ENDROOT
BRANCH   2   7
ATOM      7  N   UNL     1       7.413  -3.328  22.545  0.00  0.00    -0.284 N 
ATOM      8  H   UNL     1       6.615  -3.235  21.934  0.00  0.00    +0.155 HD
ATOM      9  C   UNL     1       7.737  -4.611  22.967  0.00  0.00    +0.214 C 
ATOM     10  O   UNL     1       8.560  -4.912  23.826  0.00  0.00    -0.276 OA
ATOM     11  C   UNL     1       6.951  -5.685  22.261  0.00  0.00    +0.109 C 
ENDBRANCH   2   7
BRANCH   1  13
ATOM     12  C   UNL     1       7.321  -2.382  25.990  0.00  0.00    +0.220 C 
ATOM     13  N   UNL     1       6.984  -1.645  24.858  0.00  0.00    -0.284 N 
ATOM     14  H   UNL     1       6.015  -1.390  24.729  0.00  0.00    +0.155 HD
ATOM     15  O   UNL     1       8.473  -2.623  26.345  0.00  0.00    -0.275 OA
BRANCH  12  16
ATOM     16  C   UNL     1       6.133  -2.829  26.850  0.00  0.00    +0.075 C 
BRANCH  16  18
ATOM     17  C   UNL     1       3.787  -1.740  26.791  0.00  0.00    +0.004 C 
ATOM     18  C   UNL     1       4.819  -2.593  26.068  0.00  0.00    +0.009 C 
ENDBRANCH  16  18
BRANCH  16  19
ATOM     19  C   UNL     1       6.340  -4.276  27.326  0.00  0.00    +0.009 C 
ATOM     20  C   UNL     1       6.056  -5.341  26.271  0.00  0.00    +0.004 C 
ENDBRANCH  16  19
ENDBRANCH  12  16
ENDBRANCH   1  13
BRANCH   5  21
ATOM     21  C   UNL     1      10.057   1.714  22.877  0.00  0.00    +0.337 C 
ATOM     22  O   UNL     1      10.501   2.255  23.875  0.00  0.00    -0.245 OA
BRANCH  21  23
ATOM     23  O   UNL     1      10.130   2.263  21.646  0.00  0.00    -0.477 OA
ATOM     24  H   UNL     1      11.029   2.427  21.302  0.00  0.00    +0.295 HD
ENDBRANCH  21  23
ENDBRANCH   5  21
TORSDOF 7
ENDMDL
MODEL 8
REMARK VINA RESULT:      -5.6      4.340      7.939
REMARK  Name = 
REMARK  10 active torsions:
REMARK  status: ('A' for Active; 'I' for Inactive)
REMARK    1  A    between atoms: C_1  and  C_2
REMARK    2  A    between atoms: C_2  and  C_3
REMARK    3  A    between atoms: C_3  and  C_4
REMARK    4  A    between atoms: C_3  and  C_6
REMARK    5  A    between atoms: C_4  and  C_5
REMARK    6  A    between atoms: N_8  and  C_9
REMARK    7  A    between atoms: C_11  and  C_19
REMARK    8  A    between atoms: C_14  and  N_15
REMARK    9  A    between atoms: C_16  and  C_17
REMARK   10  A    between atoms: C_19  and  O_20
REMARK                            x       y       z     vdW  Elec       q    Type
REMARK                         _______ _______ _______ _____ _____    ______ ____
ROOT
ATOM      1  C   UNL     1      10.096   3.237  23.842  0.00  0.00    +0.056 A 
ATOM      2  C   UNL     1       9.356   4.263  24.482  0.00  0.00    +0.055 A 
ATOM      3  C   UNL     1       9.818   5.589  24.385  0.00  0.00    +0.026 A 
ATOM      4  C   UNL     1      11.029   5.897  23.763  0.00  0.00    +0.017 A 
ATOM      5  C   UNL     1      11.794   4.881  23.206  0.00  0.00    +0.061 A 
ATOM      6  C   UNL     1      11.294   3.578  23.187  0.00  0.00    +0.040 A 
ENDROOT
BRANCH   2   7
ATOM      7  N   UNL     1       8.248   3.942  25.315  0.00  0.00    -0.284 N 
ATOM      8  H   UNL     1       8.444   3.812  26.297  0.00  0.00    +0.155 HD
ATOM      9  C   UNL     1       6.912   3.953  24.935  0.00  0.00    +0.214 C 
ATOM     10  O   UNL     1       6.479   3.937  23.787  0.00  0.00    -0.276 OA
ATOM     11  C   UNL     1       5.962   3.975  26.103  0.00  0.00    +0.109 C 
ENDBRANCH   2   7
BRANCH   1  13
ATOM     12  C   UNL     1      10.348   0.781  24.225  0.00  0.00    +0.220 C 
ATOM     13  N   UNL     1       9.621   1.892  23.806  0.00  0.00    -0.284 N 
ATOM     14  H   UNL     1       8.708   1.736  23.401  0.00  0.00    +0.155 HD
ATOM     15  O   UNL     1      11.394   0.838  24.868  0.00  0.00    -0.275 OA
BRANCH  12  16
ATOM     16  C   UNL     1       9.710  -0.574  23.897  0.00  0.00    +0.075 C 
BRANCH  16  18
ATOM     17  C   UNL     1       7.533  -1.262  25.115  0.00  0.00    +0.004 C 
ATOM     18  C   UNL     1       9.050  -1.150  25.173  0.00  0.00    +0.009 C 
ENDBRANCH  16  18
BRANCH  16  19
ATOM     19  C   UNL     1       8.760  -0.434  22.696  0.00  0.00    +0.009 C 
ATOM     20  C   UNL     1       9.408  -0.684  21.338  0.00  0.00    +0.004 C 
ENDBRANCH  16  19
ENDBRANCH  12  16
ENDBRANCH   1  13
BRANCH   5  21
ATOM     21  C   UNL     1      13.119   5.214  22.635  0.00  0.00    +0.337 C 
ATOM     22  O   UNL     1      13.261   5.773  21.561  0.00  0.00    -0.245 OA
BRANCH  21  23
ATOM     23  O   UNL     1      14.151   4.906  23.449  0.00  0.00    -0.477 OA
ATOM     24  H   UNL     1      14.371   5.568  24.132  0.00  0.00    +0.295 HD
ENDBRANCH  21  23
ENDBRANCH   5  21
TORSDOF 7
ENDMDL
MODEL 9
REMARK VINA RESULT:      -5.6      1.440      1.451
REMARK  Name = 
REMARK  10 active torsions:
REMARK  status: ('A' for Active; 'I' for Inactive)
REMARK    1  A    between atoms: C_1  and  C_2
REMARK    2  A    between atoms: C_2  and  C_3
REMARK    3  A    between atoms: C_3  and  C_4
REMARK    4  A    between atoms: C_3  and  C_6
REMARK    5  A    between atoms: C_4  and  C_5
REMARK    6  A    between atoms: N_8  and  C_9
REMARK    7  A    between atoms: C_11  and  C_19
REMARK    8  A    between atoms: C_14  and  N_15
REMARK    9  A    between atoms: C_16  and  C_17
REMARK   10  A    between atoms: C_19  and  O_20
REMARK                            x       y       z     vdW  Elec       q    Type
REMARK                         _______ _______ _______ _____ _____    ______ ____
ROOT
ATOM      1  C   UNL     1       7.252  -2.661  23.453  0.00  0.00    +0.056 A 
ATOM      2  C   UNL     1       6.879  -2.764  24.816  0.00  0.00    +0.055 A 
ATOM      3  C   UNL     1       6.203  -3.921  25.246  0.00  0.00    +0.026 A 
ATOM      4  C   UNL     1       5.808  -4.913  24.347  0.00  0.00    +0.017 A 
ATOM      5  C   UNL     1       6.102  -4.774  22.997  0.00  0.00    +0.061 A 
ATOM      6  C   UNL     1       6.877  -3.692  22.572  0.00  0.00    +0.040 A 
ENDROOT
BRANCH   2   7
ATOM      7  N   UNL     1       7.065  -1.665  25.701  0.00  0.00    -0.284 N 
ATOM      8  H   UNL     1       7.912  -1.666  26.251  0.00  0.00    +0.155 HD
ATOM      9  C   UNL     1       6.278  -0.522  25.757  0.00  0.00    +0.214 C 
ATOM     10  O   UNL     1       5.150  -0.388  25.294  0.00  0.00    -0.276 OA
ATOM     11  C   UNL     1       6.942   0.620  26.480  0.00  0.00    +0.109 C 
ENDBRANCH   2   7
BRANCH   1  13
ATOM     12  C   UNL     1       9.429  -1.517  23.012  0.00  0.00    +0.220 C 
ATOM     13  N   UNL     1       8.038  -1.569  22.978  0.00  0.00    -0.284 N 
ATOM     14  H   UNL     1       7.541  -0.757  22.638  0.00  0.00    +0.155 HD
ATOM     15  O   UNL     1      10.154  -2.479  23.254  0.00  0.00    -0.275 OA
BRANCH  12  16
ATOM     16  C   UNL     1      10.036  -0.159  22.638  0.00  0.00    +0.075 C 
BRANCH  16  18
ATOM     17  C   UNL     1       8.570   1.624  21.471  0.00  0.00    +0.004 C 
ATOM     18  C   UNL     1       9.387   0.348  21.328  0.00  0.00    +0.009 C 
ENDBRANCH  16  18
BRANCH  16  19
ATOM     19  C   UNL     1       9.924   0.814  23.823  0.00  0.00    +0.009 C 
ATOM     20  C   UNL     1      10.478   0.280  25.141  0.00  0.00    +0.004 C 
ENDBRANCH  16  19
ENDBRANCH  12  16
ENDBRANCH   1  13
BRANCH   5  21
ATOM     21  C   UNL     1       5.593  -5.788  22.045  0.00  0.00    +0.337 C 
ATOM     22  O   UNL     1       6.112  -6.007  20.964  0.00  0.00    -0.245 OA
BRANCH  21  23
ATOM     23  O   UNL     1       4.547  -6.496  22.518  0.00  0.00    -0.477 OA
ATOM     24  H   UNL     1       3.752  -5.982  22.757  0.00  0.00    +0.295 HD
ENDBRANCH  21  23
ENDBRANCH   5  21
TORSDOF 7
ENDMDL
