MODEL 1
REMARK VINA RESULT:      -5.3      0.000      0.000
REMARK  Name = 
REMARK  7 active torsions:
REMARK  status: ('A' for Active; 'I' for Inactive)
REMARK    1  A    between atoms: C_1  and  N_2
REMARK    2  A    between atoms: N_2  and  C_6
REMARK    3  A    between atoms: C_3  and  C_4
REMARK    4  A    between atoms: C_9  and  C_10
REMARK    5  A    between atoms: C_10  and  O_11
REMARK    6  A    between atoms: C_15  and  N_16
REMARK    7  A    between atoms: C_17  and  C_18
REMARK                            x       y       z     vdW  Elec       q    Type
REMARK                         _______ _______ _______ _____ _____    ______ ____
ROOT
ATOM      1  C   UNL     1       7.106  -1.309  24.977  0.00  0.00    +0.065 A 
ATOM      2  C   UNL     1       7.265  -0.023  25.571  0.00  0.00    +0.058 A 
ATOM      3  I   UNL     1       6.584   0.356  27.576  0.00  0.00    -0.040 I 
ATOM      4  C   UNL     1       8.105   0.966  24.975  0.00  0.00    +0.063 A 
ATOM      5  C   UNL     1       8.951   0.584  23.905  0.00  0.00    +0.051 A 
ATOM      6  I   UNL     1      10.462   1.993  23.278  0.00  0.00    -0.041 I 
ATOM      7  C   UNL     1       8.830  -0.687  23.308  0.00  0.00    +0.089 A 
ATOM      8  C   UNL     1       7.832  -1.567  23.783  0.00  0.00    +0.051 A 
ATOM      9  I   UNL     1       7.154  -3.149  22.458  0.00  0.00    -0.041 I 
ENDROOT
BRANCH   1  11
ATOM     10  C   UNL     1       4.940  -2.384  25.588  0.00  0.00    +0.138 C 
ATOM     11  N   UNL     1       6.407  -2.393  25.632  0.00  0.00    -0.273 N 
ATOM     12  C   UNL     1       6.977  -3.439  26.365  0.00  0.00    +0.216 C 
ATOM     13  O   UNL     1       6.280  -4.317  26.878  0.00  0.00    -0.276 OA
ATOM     14  C   UNL     1       8.463  -3.486  26.585  0.00  0.00    +0.109 C 
ENDBRANCH   1  11
BRANCH   4  15
ATOM     15  N   UNL     1       8.304   2.243  25.571  0.00  0.00    -0.284 N 
ATOM     16  H   UNL     1       9.280   2.507  25.686  0.00  0.00    +0.155 HD
ATOM     17  C   UNL     1       7.656   3.420  25.257  0.00  0.00    +0.214 C 
ATOM     18  O   UNL     1       8.229   4.477  25.520  0.00  0.00    -0.276 OA
ATOM     19  C   UNL     1       6.289   3.431  24.630  0.00  0.00    +0.109 C 
ENDBRANCH   4  15
BRANCH   7  20
ATOM     20  C   UNL     1       9.757  -1.112  22.224  0.00  0.00    +0.339 C 
ATOM     21  O   UNL     1      10.710  -1.855  22.391  0.00  0.00    -0.245 OA
BRANCH  20  22
ATOM     22  O   UNL     1       9.409  -0.659  20.997  0.00  0.00    -0.477 OA
ATOM     23  H   UNL     1      10.064  -0.775  20.283  0.00  0.00    +0.295 HD
ENDBRANCH  20  22
ENDBRANCH   7  20
TORSDOF 4
ENDMDL
MODEL 2
REMARK VINA RESULT:      -5.2      2.734      4.195
REMARK  Name = 
REMARK  7 active torsions:
REMARK  status: ('A' for Active; 'I' for Inactive)
REMARK    1  A    between atoms: C_1  and  N_2
REMARK    2  A    between atoms: N_2  and  C_6
REMARK    3  A    between atoms: C_3  and  C_4
REMARK    4  A    between atoms: C_9  and  C_10
REMARK    5  A    between atoms: C_10  and  O_11
REMARK    6  A    between atoms: C_15  and  N_16
REMARK    7  A    between atoms: C_17  and  C_18
REMARK                            x       y       z     vdW  Elec       q    Type
REMARK                         _______ _______ _______ _____ _____    ______ ____
ROOT
ATOM      1  C   UNL     1       7.525  -1.947  24.300  0.00  0.00    +0.065 A 
ATOM      2  C   UNL     1       8.318  -0.907  23.731  0.00  0.00    +0.058 A 
ATOM      3  I   UNL     1       9.327  -1.193  21.853  0.00  0.00    -0.040 I 
ATOM      4  C   UNL     1       8.257   0.427  24.235  0.00  0.00    +0.063 A 
ATOM      5  C   UNL     1       7.240   0.757  25.165  0.00  0.00    +0.051 A 
ATOM      6  I   UNL     1       6.945   2.846  25.621  0.00  0.00    -0.041 I 
ATOM      7  C   UNL     1       6.428  -0.247  25.733  0.00  0.00    +0.089 A 
ATOM      8  C   UNL     1       6.664  -1.593  25.373  0.00  0.00    +0.051 A 
ATOM      9  I   UNL     1       5.976  -3.144  26.728  0.00  0.00    -0.041 I 
ENDROOT
BRANCH   1  11
ATOM     10  C   UNL     1       6.281  -3.536  22.836  0.00  0.00    +0.138 C 
ATOM     11  N   UNL     1       7.426  -3.265  23.714  0.00  0.00    -0.273 N 
ATOM     12  C   UNL     1       8.280  -4.350  23.937  0.00  0.00    +0.216 C 
ATOM     13  O   UNL     1       8.101  -5.433  23.375  0.00  0.00    -0.276 OA
ATOM     14  C   UNL     1       9.415  -4.230  24.913  0.00  0.00    +0.109 C 
ENDBRANCH   1  11
BRANCH   4  15
ATOM     15  N   UNL     1       9.013   1.486  23.659  0.00  0.00    -0.284 N 
ATOM     16  H   UNL     1       8.504   2.362  23.558  0.00  0.00    +0.155 HD
ATOM     17  C   UNL     1      10.300   1.863  23.981  0.00  0.00    +0.214 C 
ATOM     18  O   UNL     1      10.635   3.022  23.739  0.00  0.00    -0.276 OA
ATOM     19  C   UNL     1      11.280   0.900  24.593  0.00  0.00    +0.109 C 
ENDBRANCH   4  15
BRANCH   7  20
ATOM     20  C   UNL     1       5.321   0.103  26.663  0.00  0.00    +0.339 C 
ATOM     21  O   UNL     1       5.470   0.316  27.855  0.00  0.00    -0.245 OA
BRANCH  20  22
ATOM     22  O   UNL     1       4.119   0.242  26.056  0.00  0.00    -0.477 OA
ATOM     23  H   UNL     1       3.500  -0.509  26.127  0.00  0.00    +0.295 HD
ENDBRANCH  20  22
ENDBRANCH   7  20
TORSDOF 4
ENDMDL
MODEL 3
REMARK VINA RESULT:      -5.1      3.560      5.789
REMARK  Name = 
REMARK  7 active torsions:
REMARK  status: ('A' for Active; 'I' for Inactive)
REMARK    1  A    between atoms: C_1  and  N_2
REMARK    2  A    between atoms: N_2  and  C_6
REMARK    3  A    between atoms: C_3  and  C_4
REMARK    4  A    between atoms: C_9  and  C_10
REMARK    5  A    between atoms: C_10  and  O_11
REMARK    6  A    between atoms: C_15  and  N_16
REMARK    7  A    between atoms: C_17  and  C_18
REMARK                            x       y       z     vdW  Elec       q    Type
REMARK                         _______ _______ _______ _____ _____    ______ ____
ROOT
ATOM      1  C   UNL     1       5.227  -3.897  26.114  0.00  0.00    +0.065 A 
ATOM      2  C   UNL     1       6.374  -3.414  25.417  0.00  0.00    +0.058 A 
ATOM      3  I   UNL     1       8.009  -2.508  26.481  0.00  0.00    -0.040 I 
ATOM      4  C   UNL     1       6.599  -3.749  24.048  0.00  0.00    +0.063 A 
ATOM      5  C   UNL     1       5.788  -4.743  23.447  0.00  0.00    +0.051 A 
ATOM      6  I   UNL     1       6.388  -5.484  21.511  0.00  0.00    -0.041 I 
ATOM      7  C   UNL     1       4.657  -5.253  24.117  0.00  0.00    +0.089 A 
ATOM      8  C   UNL     1       4.335  -4.736  25.392  0.00  0.00    +0.051 A 
ATOM      9  I   UNL     1       2.287  -4.939  26.086  0.00  0.00    -0.041 I 
ENDROOT
BRANCH   1  11
ATOM     10  C   UNL     1       4.470  -2.462  28.007  0.00  0.00    +0.138 C 
ATOM     11  N   UNL     1       5.048  -3.728  27.539  0.00  0.00    -0.273 N 
ATOM     12  C   UNL     1       5.421  -4.624  28.545  0.00  0.00    +0.216 C 
ATOM     13  O   UNL     1       5.213  -4.376  29.734  0.00  0.00    -0.276 OA
ATOM     14  C   UNL     1       6.136  -5.899  28.195  0.00  0.00    +0.109 C 
ENDBRANCH   1  11
BRANCH   4  15
ATOM     15  N   UNL     1       7.755  -3.306  23.344  0.00  0.00    -0.284 N 
ATOM     16  H   UNL     1       8.191  -4.017  22.760  0.00  0.00    +0.155 HD
ATOM     17  C   UNL     1       7.902  -2.131  22.638  0.00  0.00    +0.214 C 
ATOM     18  O   UNL     1       8.751  -2.100  21.748  0.00  0.00    -0.276 OA
ATOM     19  C   UNL     1       7.075  -0.913  22.943  0.00  0.00    +0.109 C 
ENDBRANCH   4  15
BRANCH   7  20
ATOM     20  C   UNL     1       3.838  -6.339  23.515  0.00  0.00    +0.339 C 
ATOM     21  O   UNL     1       2.976  -6.159  22.671  0.00  0.00    -0.245 OA
BRANCH  20  22
ATOM     22  O   UNL     1       4.183  -7.580  23.931  0.00  0.00    -0.477 OA
ATOM     23  H   UNL     1       3.743  -8.331  23.491  0.00  0.00    +0.295 HD
ENDBRANCH  20  22
ENDBRANCH   7  20
TORSDOF 4
ENDMDL
MODEL 4
REMARK VINA RESULT:      -5.1      3.764      6.691
REMARK  Name = 
REMARK  7 active torsions:
REMARK  status: ('A' for Active; 'I' for Inactive)
REMARK    1  A    between atoms: C_1  and  N_2
REMARK    2  A    between atoms: N_2  and  C_6
REMARK    3  A    between atoms: C_3  and  C_4
REMARK    4  A    between atoms: C_9  and  C_10
REMARK    5  A    between atoms: C_10  and  O_11
REMARK    6  A    between atoms: C_15  and  N_16
REMARK    7  A    between atoms: C_17  and  C_18
REMARK                            x       y       z     vdW  Elec       q    Type
REMARK                         _______ _______ _______ _____ _____    ______ ____
ROOT
ATOM      1  C   UNL     1       6.446  -3.667  24.470  0.00  0.00    +0.065 A 
ATOM      2  C   UNL     1       6.000  -3.296  25.773  0.00  0.00    +0.058 A 
ATOM      3  I   UNL     1       6.641  -1.450  26.672  0.00  0.00    -0.040 I 
ATOM      4  C   UNL     1       4.923  -3.984  26.408  0.00  0.00    +0.063 A 
ATOM      5  C   UNL     1       4.157  -4.900  25.644  0.00  0.00    +0.051 A 
ATOM      6  I   UNL     1       2.326  -5.638  26.518  0.00  0.00    -0.041 I 
ATOM      7  C   UNL     1       4.562  -5.274  24.347  0.00  0.00    +0.089 A 
ATOM      8  C   UNL     1       5.761  -4.735  23.830  0.00  0.00    +0.051 A 
ATOM      9  I   UNL     1       6.755  -5.814  22.229  0.00  0.00    -0.041 I 
ENDROOT
BRANCH   1  11
ATOM     10  C   UNL     1       6.899  -1.948  22.722  0.00  0.00    +0.138 C 
ATOM     11  N   UNL     1       7.412  -2.892  23.723  0.00  0.00    -0.273 N 
ATOM     12  C   UNL     1       8.805  -2.981  23.804  0.00  0.00    +0.216 C 
ATOM     13  O   UNL     1       9.535  -2.262  23.118  0.00  0.00    -0.276 OA
ATOM     14  C   UNL     1       9.446  -4.000  24.703  0.00  0.00    +0.109 C 
ENDBRANCH   1  11
BRANCH   4  15
ATOM     15  N   UNL     1       4.441  -3.607  27.693  0.00  0.00    -0.284 N 
ATOM     16  H   UNL     1       3.476  -3.280  27.701  0.00  0.00    +0.155 HD
ATOM     17  C   UNL     1       4.588  -4.300  28.875  0.00  0.00    +0.214 C 
ATOM     18  O   UNL     1       3.765  -4.093  29.767  0.00  0.00    -0.276 OA
ATOM     19  C   UNL     1       5.718  -5.268  29.093  0.00  0.00    +0.109 C 
ENDBRANCH   4  15
BRANCH   7  20
ATOM     20  C   UNL     1       3.727  -6.188  23.521  0.00  0.00    +0.339 C 
ATOM     21  O   UNL     1       2.954  -5.813  22.655  0.00  0.00    -0.245 OA
BRANCH  20  22
ATOM     22  O   UNL     1       3.952  -7.501  23.760  0.00  0.00    -0.477 OA
ATOM     23  H   UNL     1       4.645  -7.934  23.228  0.00  0.00    +0.295 HD
ENDBRANCH  20  22
ENDBRANCH   7  20
TORSDOF 4
ENDMDL
MODEL 5
REMARK VINA RESULT:      -5.0      2.332      2.823
REMARK  Name = 
REMARK  7 active torsions:
REMARK  status: ('A' for Active; 'I' for Inactive)
REMARK    1  A    between atoms: C_1  and  N_2
REMARK    2  A    between atoms: N_2  and  C_6
REMARK    3  A    between atoms: C_3  and  C_4
REMARK    4  A    between atoms: C_9  and  C_10
REMARK    5  A    between atoms: C_10  and  O_11
REMARK    6  A    between atoms: C_15  and  N_16
REMARK    7  A    between atoms: C_17  and  C_18
REMARK                            x       y       z     vdW  Elec       q    Type
REMARK                         _______ _______ _______ _____ _____    ______ ____
ROOT
ATOM      1  C   UNL     1       7.570  -0.349  24.433  0.00  0.00    +0.065 A 
ATOM      2  C   UNL     1       6.637   0.576  24.986  0.00  0.00    +0.058 A 
ATOM      3  I   UNL     1       5.219  -0.049  26.478  0.00  0.00    -0.040 I 
ATOM      4  C   UNL     1       6.780   1.981  24.778  0.00  0.00    +0.063 A 
ATOM      5  C   UNL     1       7.979   2.465  24.199  0.00  0.00    +0.051 A 
ATOM      6  I   UNL     1       8.316   4.596  24.239  0.00  0.00    -0.041 I 
ATOM      7  C   UNL     1       8.929   1.575  23.659  0.00  0.00    +0.089 A 
ATOM      8  C   UNL     1       8.652   0.189  23.685  0.00  0.00    +0.051 A 
ATOM      9  I   UNL     1       9.684  -1.083  22.260  0.00  0.00    -0.041 I 
ENDROOT
BRANCH   1  11
ATOM     10  C   UNL     1       8.449  -2.211  25.839  0.00  0.00    +0.138 C 
ATOM     11  N   UNL     1       7.563  -1.758  24.760  0.00  0.00    -0.273 N 
ATOM     12  C   UNL     1       6.839  -2.766  24.116  0.00  0.00    +0.216 C 
ATOM     13  O   UNL     1       6.907  -3.940  24.486  0.00  0.00    -0.276 OA
ATOM     14  C   UNL     1       5.994  -2.442  22.917  0.00  0.00    +0.109 C 
ENDBRANCH   1  11
BRANCH   4  15
ATOM     15  N   UNL     1       5.879   2.923  25.351  0.00  0.00    -0.284 N 
ATOM     16  H   UNL     1       6.326   3.646  25.912  0.00  0.00    +0.155 HD
ATOM     17  C   UNL     1       4.831   3.562  24.724  0.00  0.00    +0.214 C 
ATOM     18  O   UNL     1       4.451   4.635  25.192  0.00  0.00    -0.276 OA
ATOM     19  C   UNL     1       4.151   2.976  23.517  0.00  0.00    +0.109 C 
ENDBRANCH   4  15
BRANCH   7  20
ATOM     20  C   UNL     1      10.216   2.076  23.105  0.00  0.00    +0.339 C 
ATOM     21  O   UNL     1      11.247   2.175  23.749  0.00  0.00    -0.245 OA
BRANCH  20  22
ATOM     22  O   UNL     1      10.172   2.351  21.780  0.00  0.00    -0.477 OA
ATOM     23  H   UNL     1      10.265   3.287  21.521  0.00  0.00    +0.295 HD
ENDBRANCH  20  22
ENDBRANCH   7  20
TORSDOF 4
ENDMDL
MODEL 6
REMARK VINA RESULT:      -4.9      2.861      6.382
REMARK  Name = 
REMARK  7 active torsions:
REMARK  status: ('A' for Active; 'I' for Inactive)
REMARK    1  A    between atoms: C_1  and  N_2
REMARK    2  A    between atoms: N_2  and  C_6
REMARK    3  A    between atoms: C_3  and  C_4
REMARK    4  A    between atoms: C_9  and  C_10
REMARK    5  A    between atoms: C_10  and  O_11
REMARK    6  A    between atoms: C_15  and  N_16
REMARK    7  A    between atoms: C_17  and  C_18
REMARK                            x       y       z     vdW  Elec       q    Type
REMARK                         _______ _______ _______ _____ _____    ______ ____
ROOT
ATOM      1  C   UNL     1       7.322   0.361  23.486  0.00  0.00    +0.065 A 
ATOM      2  C   UNL     1       7.760  -0.945  23.120  0.00  0.00    +0.058 A 
ATOM      3  I   UNL     1       9.521  -1.219  21.916  0.00  0.00    -0.040 I 
ATOM      4  C   UNL     1       7.218  -2.107  23.747  0.00  0.00    +0.063 A 
ATOM      5  C   UNL     1       6.397  -1.943  24.890  0.00  0.00    +0.051 A 
ATOM      6  I   UNL     1       5.903  -3.712  26.024  0.00  0.00    -0.041 I 
ATOM      7  C   UNL     1       5.962  -0.663  25.288  0.00  0.00    +0.089 A 
ATOM      8  C   UNL     1       6.341   0.454  24.510  0.00  0.00    +0.051 A 
ATOM      9  I   UNL     1       5.129   2.251  24.649  0.00  0.00    -0.041 I 
ENDROOT
BRANCH   1  11
ATOM     10  C   UNL     1       7.437   2.171  21.774  0.00  0.00    +0.138 C 
ATOM     11  N   UNL     1       7.962   1.566  23.005  0.00  0.00    -0.273 N 
ATOM     12  C   UNL     1       9.081   2.200  23.554  0.00  0.00    +0.216 C 
ATOM     13  O   UNL     1       9.541   3.231  23.060  0.00  0.00    -0.276 OA
ATOM     14  C   UNL     1       9.781   1.602  24.741  0.00  0.00    +0.109 C 
ENDBRANCH   1  11
BRANCH   4  15
ATOM     15  N   UNL     1       7.666  -3.418  23.420  0.00  0.00    -0.284 N 
ATOM     16  H   UNL     1       7.995  -3.962  24.216  0.00  0.00    +0.155 HD
ATOM     17  C   UNL     1       7.039  -4.335  22.604  0.00  0.00    +0.214 C 
ATOM     18  O   UNL     1       7.297  -5.526  22.776  0.00  0.00    -0.276 OA
ATOM     19  C   UNL     1       6.081  -3.912  21.524  0.00  0.00    +0.109 C 
ENDBRANCH   4  15
BRANCH   7  20
ATOM     20  C   UNL     1       5.150  -0.482  26.522  0.00  0.00    +0.339 C 
ATOM     21  O   UNL     1       5.610  -0.141  27.599  0.00  0.00    -0.245 OA
BRANCH  20  22
ATOM     22  O   UNL     1       3.821  -0.659  26.335  0.00  0.00    -0.477 OA
ATOM     23  H   UNL     1       3.297  -0.922  27.114  0.00  0.00    +0.295 HD
ENDBRANCH  20  22
ENDBRANCH   7  20
TORSDOF 4
ENDMDL
MODEL 7
REMARK VINA RESULT:      -4.9      3.034      5.406
REMARK  Name = 
REMARK  7 active torsions:
REMARK  status: ('A' for Active; 'I' for Inactive)
REMARK    1  A    between atoms: C_1  and  N_2
REMARK    2  A    between atoms: N_2  and  C_6
REMARK    3  A    between atoms: C_3  and  C_4
REMARK    4  A    between atoms: C_9  and  C_10
REMARK    5  A    between atoms: C_10  and  O_11
REMARK    6  A    between atoms: C_15  and  N_16
REMARK    7  A    between atoms: C_17  and  C_18
REMARK                            x       y       z     vdW  Elec       q    Type
REMARK                         _______ _______ _______ _____ _____    ______ ____
ROOT
ATOM      1  C   UNL     1       7.614  -2.367  24.942  0.00  0.00    +0.065 A 
ATOM      2  C   UNL     1       6.696  -1.433  25.505  0.00  0.00    +0.058 A 
ATOM      3  I   UNL     1       6.195   0.382  24.465  0.00  0.00    -0.040 I 
ATOM      4  C   UNL     1       5.884  -1.780  26.627  0.00  0.00    +0.063 A 
ATOM      5  C   UNL     1       5.841  -3.135  27.041  0.00  0.00    +0.051 A 
ATOM      6  I   UNL     1       4.336  -3.687  28.487  0.00  0.00    -0.041 I 
ATOM      7  C   UNL     1       6.724  -4.086  26.491  0.00  0.00    +0.089 A 
ATOM      8  C   UNL     1       7.670  -3.658  25.534  0.00  0.00    +0.051 A 
ATOM      9  I   UNL     1       9.447  -4.873  25.244  0.00  0.00    -0.041 I 
ENDROOT
BRANCH   1  11
ATOM     10  C   UNL     1       7.860  -2.814  22.501  0.00  0.00    +0.138 C 
ATOM     11  N   UNL     1       8.326  -2.119  23.708  0.00  0.00    -0.273 N 
ATOM     12  C   UNL     1       9.463  -1.323  23.539  0.00  0.00    +0.216 C 
ATOM     13  O   UNL     1       9.987  -1.179  22.433  0.00  0.00    -0.276 OA
ATOM     14  C   UNL     1      10.106  -0.662  24.726  0.00  0.00    +0.109 C 
ENDBRANCH   1  11
BRANCH   4  15
ATOM     15  N   UNL     1       4.937  -0.874  27.181  0.00  0.00    -0.284 N 
ATOM     16  H   UNL     1       4.039  -1.293  27.414  0.00  0.00    +0.155 HD
ATOM     17  C   UNL     1       5.157   0.059  28.173  0.00  0.00    +0.214 C 
ATOM     18  O   UNL     1       4.189   0.430  28.836  0.00  0.00    -0.276 OA
ATOM     19  C   UNL     1       6.524   0.628  28.438  0.00  0.00    +0.109 C 
ENDBRANCH   4  15
BRANCH   7  20
ATOM     20  C   UNL     1       6.640  -5.520  26.881  0.00  0.00    +0.339 C 
ATOM     21  O   UNL     1       5.966  -6.350  26.294  0.00  0.00    -0.245 OA
BRANCH  20  22
ATOM     22  O   UNL     1       7.445  -5.854  27.916  0.00  0.00    -0.477 OA
ATOM     23  H   UNL     1       7.048  -6.388  28.629  0.00  0.00    +0.295 HD
ENDBRANCH  20  22
ENDBRANCH   7  20
TORSDOF 4
ENDMDL
MODEL 8
REMARK VINA RESULT:      -4.9      2.503      6.351
REMARK  Name = 
REMARK  7 active torsions:
REMARK  status: ('A' for Active; 'I' for Inactive)
REMARK    1  A    between atoms: C_1  and  N_2
REMARK    2  A    between atoms: N_2  and  C_6
REMARK    3  A    between atoms: C_3  and  C_4
REMARK    4  A    between atoms: C_9  and  C_10
REMARK    5  A    between atoms: C_10  and  O_11
REMARK    6  A    between atoms: C_15  and  N_16
REMARK    7  A    between atoms: C_17  and  C_18
REMARK                            x       y       z     vdW  Elec       q    Type
REMARK                         _______ _______ _______ _____ _____    ______ ____
ROOT
ATOM      1  C   UNL     1       7.521   2.074  24.548  0.00  0.00    +0.065 A 
ATOM      2  C   UNL     1       8.544   1.098  24.366  0.00  0.00    +0.058 A 
ATOM      3  I   UNL     1      10.559   1.688  23.902  0.00  0.00    -0.040 I 
ATOM      4  C   UNL     1       8.339  -0.264  24.741  0.00  0.00    +0.063 A 
ATOM      5  C   UNL     1       7.188  -0.596  25.498  0.00  0.00    +0.051 A 
ATOM      6  I   UNL     1       7.097  -2.573  26.359  0.00  0.00    -0.041 I 
ATOM      7  C   UNL     1       6.166   0.352  25.710  0.00  0.00    +0.089 A 
ATOM      8  C   UNL     1       6.302   1.635  25.133  0.00  0.00    +0.051 A 
ATOM      9  I   UNL     1       4.500   2.806  24.819  0.00  0.00    -0.041 I 
ENDROOT
BRANCH   1  11
ATOM     10  C   UNL     1       8.056   4.306  25.523  0.00  0.00    +0.138 C 
ATOM     11  N   UNL     1       7.742   3.488  24.344  0.00  0.00    -0.273 N 
ATOM     12  C   UNL     1       7.634   4.191  23.140  0.00  0.00    +0.216 C 
ATOM     13  O   UNL     1       7.853   5.403  23.083  0.00  0.00    -0.276 OA
ATOM     14  C   UNL     1       7.196   3.484  21.889  0.00  0.00    +0.109 C 
ENDBRANCH   1  11
BRANCH   4  15
ATOM     15  N   UNL     1       9.360  -1.246  24.600  0.00  0.00    -0.284 N 
ATOM     16  H   UNL     1       9.545  -1.786  25.443  0.00  0.00    +0.155 HD
ATOM     17  C   UNL     1       9.515  -2.145  23.566  0.00  0.00    +0.214 C 
ATOM     18  O   UNL     1      10.137  -3.182  23.796  0.00  0.00    -0.276 OA
ATOM     19  C   UNL     1       8.963  -1.879  22.192  0.00  0.00    +0.109 C 
ENDBRANCH   4  15
BRANCH   7  20
ATOM     20  C   UNL     1       4.985   0.026  26.554  0.00  0.00    +0.339 C 
ATOM     21  O   UNL     1       4.012  -0.595  26.159  0.00  0.00    -0.245 OA
BRANCH  20  22
ATOM     22  O   UNL     1       5.110   0.415  27.845  0.00  0.00    -0.477 OA
ATOM     23  H   UNL     1       4.403   0.983  28.204  0.00  0.00    +0.295 HD
ENDBRANCH  20  22
ENDBRANCH   7  20
TORSDOF 4
ENDMDL
MODEL 9
REMARK VINA RESULT:      -4.9      2.674      4.900
REMARK  Name = 
REMARK  7 active torsions:
REMARK  status: ('A' for Active; 'I' for Inactive)
REMARK    1  A    between atoms: C_1  and  N_2
REMARK    2  A    between atoms: N_2  and  C_6
REMARK    3  A    between atoms: C_3  and  C_4
REMARK    4  A    between atoms: C_9  and  C_10
REMARK    5  A    between atoms: C_10  and  O_11
REMARK    6  A    between atoms: C_15  and  N_16
REMARK    7  A    between atoms: C_17  and  C_18
REMARK                            x       y       z     vdW  Elec       q    Type
REMARK                         _______ _______ _______ _____ _____    ______ ____
ROOT
ATOM      1  C   UNL     1       5.586  -3.221  24.801  0.00  0.00    +0.065 A 
ATOM      2  C   UNL     1       6.494  -3.010  23.722  0.00  0.00    +0.058 A 
ATOM      3  I   UNL     1       6.714  -4.478  22.166  0.00  0.00    -0.040 I 
ATOM      4  C   UNL     1       7.079  -1.729  23.491  0.00  0.00    +0.063 A 
ATOM      5  C   UNL     1       6.583  -0.614  24.211  0.00  0.00    +0.051 A 
ATOM      6  I   UNL     1       7.224   1.347  23.577  0.00  0.00    -0.041 I 
ATOM      7  C   UNL     1       5.672  -0.788  25.272  0.00  0.00    +0.089 A 
ATOM      8  C   UNL     1       5.279  -2.100  25.619  0.00  0.00    +0.051 A 
ATOM      9  I   UNL     1       4.512  -2.437  27.623  0.00  0.00    -0.041 I 
ENDROOT
BRANCH   1  11
ATOM     10  C   UNL     1       3.466  -4.488  24.453  0.00  0.00    +0.138 C 
ATOM     11  N   UNL     1       4.841  -4.449  24.969  0.00  0.00    -0.273 N 
ATOM     12  C   UNL     1       5.265  -5.606  25.629  0.00  0.00    +0.216 C 
ATOM     13  O   UNL     1       4.543  -6.603  25.706  0.00  0.00    -0.276 OA
ATOM     14  C   UNL     1       6.606  -5.642  26.306  0.00  0.00    +0.109 C 
ENDBRANCH   1  11
BRANCH   4  15
ATOM     15  N   UNL     1       7.960  -1.490  22.398  0.00  0.00    -0.284 N 
ATOM     16  H   UNL     1       7.689  -0.711  21.801  0.00  0.00    +0.155 HD
ATOM     17  C   UNL     1       9.338  -1.443  22.433  0.00  0.00    +0.214 C 
ATOM     18  O   UNL     1       9.912  -0.803  21.552  0.00  0.00    -0.276 OA
ATOM     19  C   UNL     1      10.130  -2.156  23.493  0.00  0.00    +0.109 C 
ENDBRANCH   4  15
BRANCH   7  20
ATOM     20  C   UNL     1       5.103   0.385  25.990  0.00  0.00    +0.339 C 
ATOM     21  O   UNL     1       4.016   0.878  25.741  0.00  0.00    -0.245 OA
BRANCH  20  22
ATOM     22  O   UNL     1       5.872   0.826  27.012  0.00  0.00    -0.477 OA
ATOM     23  H   UNL     1       5.497   0.753  27.910  0.00  0.00    +0.295 HD
ENDBRANCH  20  22
ENDBRANCH   7  20
TORSDOF 4
ENDMDL
