MODEL 1
REMARK VINA RESULT:      -7.2      0.000      0.000
REMARK  Name = 
REMARK  4 active torsions:
REMARK  status: ('A' for Active; 'I' for Inactive)
REMARK    1  A    between atoms: N_8  and  C_9
REMARK    2  A    between atoms: C_12  and  C_14
REMARK    3  A    between atoms: C_14  and  O_15
REMARK    4  A    between atoms: N_19  and  C_20
REMARK                            x       y       z     vdW  Elec       q    Type
REMARK                         _______ _______ _______ _____ _____    ______ ____
ROOT
ATOM      1  N   UNL     1      10.310  -5.568  25.516  0.00  0.00    -0.327 N 
ATOM      2  H   UNL     1       9.971  -6.109  26.299  0.00  0.00    +0.145 HD
ATOM      3  H   UNL     1      11.173  -5.056  25.624  0.00  0.00    +0.145 HD
ATOM      4  C   UNL     1       9.303  -4.742  25.059  0.00  0.00    +0.216 A 
ATOM      5  N   UNL     1       8.055  -5.109  25.375  0.00  0.00    -0.198 NA
ATOM      6  C   UNL     1       6.991  -4.401  24.898  0.00  0.00    +0.152 A 
ATOM      7  N   UNL     1       5.681  -4.816  25.220  0.00  0.00    -0.324 N 
ATOM      8  H   UNL     1       4.989  -4.182  24.829  0.00  0.00    +0.148 HD
ATOM      9  C   UNL     1       7.272  -3.275  24.097  0.00  0.00    +0.148 A 
ATOM     10  N   UNL     1       6.476  -2.347  23.459  0.00  0.00    -0.231 NA
ATOM     11  C   UNL     1       7.321  -1.490  22.911  0.00  0.00    +0.202 A 
ATOM     12  N   UNL     1       8.630  -1.819  23.166  0.00  0.00    -0.308 N 
ATOM     13  C   UNL     1       8.611  -2.976  23.909  0.00  0.00    +0.168 A 
ATOM     14  N   UNL     1       9.670  -3.655  24.370  0.00  0.00    -0.195 NA
ENDROOT
BRANCH  12  15
ATOM     15  C   UNL     1       9.841  -1.096  22.811  0.00  0.00    +0.113 C 
ATOM     16  C   UNL     1       9.704  -0.123  21.680  0.00  0.00    -0.006 C 
ATOM     17  C   UNL     1       9.960   1.135  22.054  0.00  0.00    -0.023 C 
ATOM     18  C   UNL     1      10.281   1.242  23.517  0.00  0.00    +0.039 C 
ATOM     19  C   UNL     1      10.406  -0.233  23.954  0.00  0.00    +0.039 C 
BRANCH  18  20
ATOM     20  C   UNL     1       9.212   2.013  24.300  0.00  0.00    +0.163 C 
BRANCH  20  21
ATOM     21  O   UNL     1       8.829   1.304  25.470  0.00  0.00    -0.394 OA
ATOM     22  H   UNL     1       8.507   0.429  25.194  0.00  0.00    +0.209 HD
ENDBRANCH  20  21
ENDBRANCH  18  20
ENDBRANCH  12  15
BRANCH   7  23
ATOM     23  C   UNL     1       5.470  -5.423  26.536  0.00  0.00    +0.072 C 
ATOM     24  C   UNL     1       4.798  -6.753  26.717  0.00  0.00    +0.024 C 
ATOM     25  C   UNL     1       4.087  -5.498  27.129  0.00  0.00    +0.024 C 
ENDBRANCH   7  23
TORSDOF 4
ENDMDL
MODEL 2
REMARK VINA RESULT:      -6.5      1.728      2.014
REMARK  Name = 
REMARK  4 active torsions:
REMARK  status: ('A' for Active; 'I' for Inactive)
REMARK    1  A    between atoms: N_8  and  C_9
REMARK    2  A    between atoms: C_12  and  C_14
REMARK    3  A    between atoms: C_14  and  O_15
REMARK    4  A    between atoms: N_19  and  C_20
REMARK                            x       y       z     vdW  Elec       q    Type
REMARK                         _______ _______ _______ _____ _____    ______ ____
ROOT
ATOM      1  N   UNL     1       9.881  -5.412  25.610  0.00  0.00    -0.327 N 
ATOM      2  H   UNL     1       9.390  -6.275  25.798  0.00  0.00    +0.145 HD
ATOM      3  H   UNL     1      10.319  -4.931  26.382  0.00  0.00    +0.145 HD
ATOM      4  C   UNL     1       9.055  -4.559  24.905  0.00  0.00    +0.216 A 
ATOM      5  N   UNL     1       8.044  -5.134  24.244  0.00  0.00    -0.198 NA
ATOM      6  C   UNL     1       7.226  -4.380  23.453  0.00  0.00    +0.152 A 
ATOM      7  N   UNL     1       6.180  -5.007  22.742  0.00  0.00    -0.324 N 
ATOM      8  H   UNL     1       5.631  -4.327  22.223  0.00  0.00    +0.148 HD
ATOM      9  C   UNL     1       7.482  -2.995  23.394  0.00  0.00    +0.148 A 
ATOM     10  N   UNL     1       6.881  -1.951  22.722  0.00  0.00    -0.231 NA
ATOM     11  C   UNL     1       7.535  -0.871  23.115  0.00  0.00    +0.202 A 
ATOM     12  N   UNL     1       8.530  -1.166  24.013  0.00  0.00    -0.308 N 
ATOM     13  C   UNL     1       8.519  -2.530  24.184  0.00  0.00    +0.168 A 
ATOM     14  N   UNL     1       9.332  -3.251  24.969  0.00  0.00    -0.195 NA
ENDROOT
BRANCH  12  15
ATOM     15  C   UNL     1       9.412  -0.259  24.732  0.00  0.00    +0.113 C 
ATOM     16  C   UNL     1      10.752  -0.027  24.105  0.00  0.00    -0.006 C 
ATOM     17  C   UNL     1      10.943   1.252  23.768  0.00  0.00    -0.023 C 
ATOM     18  C   UNL     1       9.750   2.110  24.075  0.00  0.00    +0.039 C 
ATOM     19  C   UNL     1       8.843   1.164  24.890  0.00  0.00    +0.039 C 
BRANCH  18  20
ATOM     20  C   UNL     1       9.073   2.652  22.812  0.00  0.00    +0.163 C 
BRANCH  20  21
ATOM     21  O   UNL     1       9.766   2.233  21.644  0.00  0.00    -0.394 OA
ATOM     22  H   UNL     1       9.271   1.490  21.257  0.00  0.00    +0.209 HD
ENDBRANCH  20  21
ENDBRANCH  18  20
ENDBRANCH  12  15
BRANCH   7  23
ATOM     23  C   UNL     1       5.529  -6.157  23.374  0.00  0.00    +0.072 C 
ATOM     24  C   UNL     1       4.048  -6.392  23.301  0.00  0.00    +0.024 C 
ATOM     25  C   UNL     1       4.672  -5.972  24.599  0.00  0.00    +0.024 C 
ENDBRANCH   7  23
TORSDOF 4
ENDMDL
MODEL 3
REMARK VINA RESULT:      -6.4      2.855      3.895
REMARK  Name = 
REMARK  4 active torsions:
REMARK  status: ('A' for Active; 'I' for Inactive)
REMARK    1  A    between atoms: N_8  and  C_9
REMARK    2  A    between atoms: C_12  and  C_14
REMARK    3  A    between atoms: C_14  and  O_15
REMARK    4  A    between atoms: N_19  and  C_20
REMARK                            x       y       z     vdW  Elec       q    Type
REMARK                         _______ _______ _______ _____ _____    ______ ____
ROOT
ATOM      1  N   UNL     1       5.361  -6.807  26.887  0.00  0.00    -0.327 N 
ATOM      2  H   UNL     1       4.464  -7.240  27.059  0.00  0.00    +0.145 HD
ATOM      3  H   UNL     1       5.760  -6.227  27.610  0.00  0.00    +0.145 HD
ATOM      4  C   UNL     1       5.321  -6.133  25.683  0.00  0.00    +0.216 A 
ATOM      5  N   UNL     1       4.378  -6.529  24.820  0.00  0.00    -0.198 NA
ATOM      6  C   UNL     1       4.316  -5.978  23.573  0.00  0.00    +0.152 A 
ATOM      7  N   UNL     1       3.330  -6.425  22.666  0.00  0.00    -0.324 N 
ATOM      8  H   UNL     1       3.375  -5.909  21.792  0.00  0.00    +0.148 HD
ATOM      9  C   UNL     1       5.258  -4.976  23.262  0.00  0.00    +0.148 A 
ATOM     10  N   UNL     1       5.491  -4.216  22.135  0.00  0.00    -0.231 NA
ATOM     11  C   UNL     1       6.477  -3.402  22.471  0.00  0.00    +0.202 A 
ATOM     12  N   UNL     1       6.893  -3.597  23.764  0.00  0.00    -0.308 N 
ATOM     13  C   UNL     1       6.131  -4.621  24.276  0.00  0.00    +0.168 A 
ATOM     14  N   UNL     1       6.207  -5.146  25.506  0.00  0.00    -0.195 NA
ENDROOT
BRANCH  12  15
ATOM     15  C   UNL     1       7.888  -2.859  24.527  0.00  0.00    +0.113 C 
ATOM     16  C   UNL     1       9.309  -3.279  24.312  0.00  0.00    -0.006 C 
ATOM     17  C   UNL     1      10.061  -2.296  23.806  0.00  0.00    -0.023 C 
ATOM     18  C   UNL     1       9.272  -1.044  23.553  0.00  0.00    +0.039 C 
ATOM     19  C   UNL     1       7.913  -1.350  24.217  0.00  0.00    +0.039 C 
BRANCH  18  20
ATOM     20  C   UNL     1       9.152  -0.714  22.061  0.00  0.00    +0.163 C 
BRANCH  20  21
ATOM     21  O   UNL     1       9.927  -1.612  21.278  0.00  0.00    -0.394 OA
ATOM     22  H   UNL     1       9.637  -1.525  20.354  0.00  0.00    +0.209 HD
ENDBRANCH  20  21
ENDBRANCH  18  20
ENDBRANCH  12  15
BRANCH   7  23
ATOM     23  C   UNL     1       2.037  -6.829  23.221  0.00  0.00    +0.072 C 
ATOM     24  C   UNL     1       1.577  -8.259  23.248  0.00  0.00    +0.024 C 
ATOM     25  C   UNL     1       0.924  -7.285  22.312  0.00  0.00    +0.024 C 
ENDBRANCH   7  23
TORSDOF 4
ENDMDL
MODEL 4
REMARK VINA RESULT:      -6.4      2.500      3.295
REMARK  Name = 
REMARK  4 active torsions:
REMARK  status: ('A' for Active; 'I' for Inactive)
REMARK    1  A    between atoms: N_8  and  C_9
REMARK    2  A    between atoms: C_12  and  C_14
REMARK    3  A    between atoms: C_14  and  O_15
REMARK    4  A    between atoms: N_19  and  C_20
REMARK                            x       y       z     vdW  Elec       q    Type
REMARK                         _______ _______ _______ _____ _____    ______ ____
ROOT
ATOM      1  N   UNL     1       7.032  -2.946  26.632  0.00  0.00    -0.327 N 
ATOM      2  H   UNL     1       6.261  -3.585  26.501  0.00  0.00    +0.145 HD
ATOM      3  H   UNL     1       6.879  -2.115  27.185  0.00  0.00    +0.145 HD
ATOM      4  C   UNL     1       7.576  -2.625  25.404  0.00  0.00    +0.216 A 
ATOM      5  N   UNL     1       7.335  -3.491  24.412  0.00  0.00    -0.198 NA
ATOM      6  C   UNL     1       7.900  -3.301  23.185  0.00  0.00    +0.152 A 
ATOM      7  N   UNL     1       7.655  -4.237  22.156  0.00  0.00    -0.324 N 
ATOM      8  H   UNL     1       8.107  -3.956  21.290  0.00  0.00    +0.148 HD
ATOM      9  C   UNL     1       8.708  -2.157  23.016  0.00  0.00    +0.148 A 
ATOM     10  N   UNL     1       9.420  -1.653  21.948  0.00  0.00    -0.231 NA
ATOM     11  C   UNL     1       9.931  -0.515  22.385  0.00  0.00    +0.202 A 
ATOM     12  N   UNL     1       9.582  -0.256  23.688  0.00  0.00    -0.308 N 
ATOM     13  C   UNL     1       8.813  -1.315  24.110  0.00  0.00    +0.168 A 
ATOM     14  N   UNL     1       8.265  -1.482  25.321  0.00  0.00    -0.195 NA
ENDROOT
BRANCH  12  15
ATOM     15  C   UNL     1       9.873   0.916  24.497  0.00  0.00    +0.113 C 
ATOM     16  C   UNL     1      10.916   1.839  23.946  0.00  0.00    -0.006 C 
ATOM     17  C   UNL     1      10.435   3.060  23.693  0.00  0.00    -0.023 C 
ATOM     18  C   UNL     1       8.969   3.172  23.994  0.00  0.00    +0.039 C 
ATOM     19  C   UNL     1       8.659   1.840  24.710  0.00  0.00    +0.039 C 
BRANCH  18  20
ATOM     20  C   UNL     1       8.123   3.387  22.733  0.00  0.00    +0.163 C 
BRANCH  20  21
ATOM     21  O   UNL     1       8.696   2.720  21.617  0.00  0.00    -0.394 OA
ATOM     22  H   UNL     1       8.195   2.982  20.826  0.00  0.00    +0.209 HD
ENDBRANCH  20  21
ENDBRANCH  18  20
ENDBRANCH  12  15
BRANCH   7  23
ATOM     23  C   UNL     1       6.342  -4.883  22.131  0.00  0.00    +0.072 C 
ATOM     24  C   UNL     1       6.142  -6.328  22.488  0.00  0.00    +0.024 C 
ATOM     25  C   UNL     1       6.006  -5.889  21.060  0.00  0.00    +0.024 C 
ENDBRANCH   7  23
TORSDOF 4
ENDMDL
MODEL 5
REMARK VINA RESULT:      -6.3      2.016      2.285
REMARK  Name = 
REMARK  4 active torsions:
REMARK  status: ('A' for Active; 'I' for Inactive)
REMARK    1  A    between atoms: N_8  and  C_9
REMARK    2  A    between atoms: C_12  and  C_14
REMARK    3  A    between atoms: C_14  and  O_15
REMARK    4  A    between atoms: N_19  and  C_20
REMARK                            x       y       z     vdW  Elec       q    Type
REMARK                         _______ _______ _______ _____ _____    ______ ____
ROOT
ATOM      1  N   UNL     1       7.938  -5.784  27.170  0.00  0.00    -0.327 N 
ATOM      2  H   UNL     1       7.176  -6.269  27.623  0.00  0.00    +0.145 HD
ATOM      3  H   UNL     1       8.425  -5.067  27.686  0.00  0.00    +0.145 HD
ATOM      4  C   UNL     1       7.514  -5.307  25.946  0.00  0.00    +0.216 A 
ATOM      5  N   UNL     1       6.445  -5.916  25.417  0.00  0.00    -0.198 NA
ATOM      6  C   UNL     1       6.005  -5.567  24.173  0.00  0.00    +0.152 A 
ATOM      7  N   UNL     1       4.892  -6.236  23.619  0.00  0.00    -0.324 N 
ATOM      8  H   UNL     1       4.652  -5.856  22.708  0.00  0.00    +0.148 HD
ATOM      9  C   UNL     1       6.703  -4.539  23.505  0.00  0.00    +0.148 A 
ATOM     10  N   UNL     1       6.549  -3.939  22.273  0.00  0.00    -0.231 NA
ATOM     11  C   UNL     1       7.473  -2.995  22.236  0.00  0.00    +0.202 A 
ATOM     12  N   UNL     1       8.219  -2.953  23.387  0.00  0.00    -0.308 N 
ATOM     13  C   UNL     1       7.746  -3.955  24.202  0.00  0.00    +0.168 A 
ATOM     14  N   UNL     1       8.193  -4.279  25.423  0.00  0.00    -0.195 NA
ENDROOT
BRANCH  12  15
ATOM     15  C   UNL     1       9.267  -2.018  23.766  0.00  0.00    +0.113 C 
ATOM     16  C   UNL     1      10.276  -1.713  22.701  0.00  0.00    -0.006 C 
ATOM     17  C   UNL     1      10.283  -0.421  22.360  0.00  0.00    -0.023 C 
ATOM     18  C   UNL     1       9.252   0.375  23.108  0.00  0.00    +0.039 C 
ATOM     19  C   UNL     1       8.742  -0.626  24.166  0.00  0.00    +0.039 C 
BRANCH  18  20
ATOM     20  C   UNL     1       8.141   0.905  22.195  0.00  0.00    +0.163 C 
BRANCH  20  21
ATOM     21  O   UNL     1       8.683   1.649  21.113  0.00  0.00    -0.394 OA
ATOM     22  H   UNL     1       9.653   1.602  21.178  0.00  0.00    +0.209 HD
ENDBRANCH  20  21
ENDBRANCH  18  20
ENDBRANCH  12  15
BRANCH   7  23
ATOM     23  C   UNL     1       3.840  -6.672  24.540  0.00  0.00    +0.072 C 
ATOM     24  C   UNL     1       2.674  -7.509  24.101  0.00  0.00    +0.024 C 
ATOM     25  C   UNL     1       2.461  -6.070  24.464  0.00  0.00    +0.024 C 
ENDBRANCH   7  23
TORSDOF 4
ENDMDL
MODEL 6
REMARK VINA RESULT:      -6.3      2.884      6.857
REMARK  Name = 
REMARK  4 active torsions:
REMARK  status: ('A' for Active; 'I' for Inactive)
REMARK    1  A    between atoms: N_8  and  C_9
REMARK    2  A    between atoms: C_12  and  C_14
REMARK    3  A    between atoms: C_14  and  O_15
REMARK    4  A    between atoms: N_19  and  C_20
REMARK                            x       y       z     vdW  Elec       q    Type
REMARK                         _______ _______ _______ _____ _____    ______ ____
ROOT
ATOM      1  N   UNL     1       9.153   0.737  21.116  0.00  0.00    -0.327 N 
ATOM      2  H   UNL     1       8.835   1.666  20.881  0.00  0.00    +0.145 HD
ATOM      3  H   UNL     1       8.817  -0.039  20.565  0.00  0.00    +0.145 HD
ATOM      4  C   UNL     1       8.950   0.509  22.462  0.00  0.00    +0.216 A 
ATOM      5  N   UNL     1       8.836   1.600  23.230  0.00  0.00    -0.198 NA
ATOM      6  C   UNL     1       8.715   1.473  24.584  0.00  0.00    +0.152 A 
ATOM      7  N   UNL     1       8.621   2.634  25.382  0.00  0.00    -0.324 N 
ATOM      8  H   UNL     1       8.502   2.396  26.363  0.00  0.00    +0.148 HD
ATOM      9  C   UNL     1       8.691   0.166  25.111  0.00  0.00    +0.148 A 
ATOM     10  N   UNL     1       8.584  -0.334  26.393  0.00  0.00    -0.231 NA
ATOM     11  C   UNL     1       8.560  -1.648  26.245  0.00  0.00    +0.202 A 
ATOM     12  N   UNL     1       8.645  -2.023  24.927  0.00  0.00    -0.308 N 
ATOM     13  C   UNL     1       8.751  -0.866  24.191  0.00  0.00    +0.168 A 
ATOM     14  N   UNL     1       8.866  -0.765  22.860  0.00  0.00    -0.195 NA
ENDROOT
BRANCH  12  15
ATOM     15  C   UNL     1       8.572  -3.356  24.349  0.00  0.00    +0.113 C 
ATOM     16  C   UNL     1       9.584  -4.336  24.858  0.00  0.00    -0.006 C 
ATOM     17  C   UNL     1       9.018  -5.385  25.465  0.00  0.00    -0.023 C 
ATOM     18  C   UNL     1       7.521  -5.282  25.508  0.00  0.00    +0.039 C 
ATOM     19  C   UNL     1       7.230  -4.069  24.599  0.00  0.00    +0.039 C 
BRANCH  18  20
ATOM     20  C   UNL     1       6.983  -5.110  26.932  0.00  0.00    +0.163 C 
BRANCH  20  21
ATOM     21  O   UNL     1       7.603  -6.026  27.824  0.00  0.00    -0.394 OA
ATOM     22  H   UNL     1       7.322  -6.922  27.573  0.00  0.00    +0.209 HD
ENDBRANCH  20  21
ENDBRANCH  18  20
ENDBRANCH  12  15
BRANCH   7  23
ATOM     23  C   UNL     1       7.927   3.791  24.812  0.00  0.00    +0.072 C 
ATOM     24  C   UNL     1       8.656   4.969  24.232  0.00  0.00    +0.024 C 
ATOM     25  C   UNL     1       7.925   5.113  25.534  0.00  0.00    +0.024 C 
ENDBRANCH   7  23
TORSDOF 4
ENDMDL
MODEL 7
REMARK VINA RESULT:      -6.2      2.427      2.763
REMARK  Name = 
REMARK  4 active torsions:
REMARK  status: ('A' for Active; 'I' for Inactive)
REMARK    1  A    between atoms: N_8  and  C_9
REMARK    2  A    between atoms: C_12  and  C_14
REMARK    3  A    between atoms: C_14  and  O_15
REMARK    4  A    between atoms: N_19  and  C_20
REMARK                            x       y       z     vdW  Elec       q    Type
REMARK                         _______ _______ _______ _____ _____    ______ ____
ROOT
ATOM      1  N   UNL     1       6.194  -5.720  20.811  0.00  0.00    -0.327 N 
ATOM      2  H   UNL     1       5.626  -6.510  21.085  0.00  0.00    +0.145 HD
ATOM      3  H   UNL     1       7.162  -5.883  20.576  0.00  0.00    +0.145 HD
ATOM      4  C   UNL     1       6.079  -4.722  21.757  0.00  0.00    +0.216 A 
ATOM      5  N   UNL     1       4.988  -4.769  22.530  0.00  0.00    -0.198 NA
ATOM      6  C   UNL     1       4.749  -3.778  23.438  0.00  0.00    +0.152 A 
ATOM      7  N   UNL     1       3.580  -3.830  24.228  0.00  0.00    -0.324 N 
ATOM      8  H   UNL     1       3.544  -3.052  24.882  0.00  0.00    +0.148 HD
ATOM      9  C   UNL     1       5.702  -2.744  23.532  0.00  0.00    +0.148 A 
ATOM     10  N   UNL     1       5.793  -1.610  24.312  0.00  0.00    -0.231 NA
ATOM     11  C   UNL     1       6.951  -1.064  23.986  0.00  0.00    +0.202 A 
ATOM     12  N   UNL     1       7.618  -1.791  23.032  0.00  0.00    -0.308 N 
ATOM     13  C   UNL     1       6.815  -2.862  22.717  0.00  0.00    +0.168 A 
ATOM     14  N   UNL     1       7.071  -3.826  21.822  0.00  0.00    -0.195 NA
ENDROOT
BRANCH  12  15
ATOM     15  C   UNL     1       8.942  -1.569  22.471  0.00  0.00    +0.113 C 
ATOM     16  C   UNL     1       9.074  -0.374  21.578  0.00  0.00    -0.006 C 
ATOM     17  C   UNL     1       9.945   0.523  22.051  0.00  0.00    -0.023 C 
ATOM     18  C   UNL     1      10.532   0.111  23.370  0.00  0.00    +0.039 C 
ATOM     19  C   UNL     1      10.035  -1.341  23.533  0.00  0.00    +0.039 C 
BRANCH  18  20
ATOM     20  C   UNL     1      10.099   1.028  24.520  0.00  0.00    +0.163 C 
BRANCH  20  21
ATOM     21  O   UNL     1      10.089   0.324  25.754  0.00  0.00    -0.394 OA
ATOM     22  H   UNL     1       9.445  -0.401  25.677  0.00  0.00    +0.209 HD
ENDBRANCH  20  21
ENDBRANCH  18  20
ENDBRANCH  12  15
BRANCH   7  23
ATOM     23  C   UNL     1       3.091  -5.153  24.624  0.00  0.00    +0.072 C 
ATOM     24  C   UNL     1       1.827  -5.748  24.074  0.00  0.00    +0.024 C 
ATOM     25  C   UNL     1       1.873  -5.286  25.501  0.00  0.00    +0.024 C 
ENDBRANCH   7  23
TORSDOF 4
ENDMDL
MODEL 8
REMARK VINA RESULT:      -6.1      3.191      7.382
REMARK  Name = 
REMARK  4 active torsions:
REMARK  status: ('A' for Active; 'I' for Inactive)
REMARK    1  A    between atoms: N_8  and  C_9
REMARK    2  A    between atoms: C_12  and  C_14
REMARK    3  A    between atoms: C_14  and  O_15
REMARK    4  A    between atoms: N_19  and  C_20
REMARK                            x       y       z     vdW  Elec       q    Type
REMARK                         _______ _______ _______ _____ _____    ______ ____
ROOT
ATOM      1  N   UNL     1       6.392   2.742  24.857  0.00  0.00    -0.327 N 
ATOM      2  H   UNL     1       6.783   3.584  25.256  0.00  0.00    +0.145 HD
ATOM      3  H   UNL     1       5.852   2.134  25.455  0.00  0.00    +0.145 HD
ATOM      4  C   UNL     1       7.385   2.038  24.207  0.00  0.00    +0.216 A 
ATOM      5  N   UNL     1       8.460   2.745  23.838  0.00  0.00    -0.198 NA
ATOM      6  C   UNL     1       9.456   2.152  23.118  0.00  0.00    +0.152 A 
ATOM      7  N   UNL     1      10.571   2.918  22.715  0.00  0.00    -0.324 N 
ATOM      8  H   UNL     1      11.249   2.346  22.218  0.00  0.00    +0.148 HD
ATOM      9  C   UNL     1       9.306   0.783  22.814  0.00  0.00    +0.148 A 
ATOM     10  N   UNL     1      10.085  -0.123  22.125  0.00  0.00    -0.231 NA
ATOM     11  C   UNL     1       9.443  -1.274  22.230  0.00  0.00    +0.202 A 
ATOM     12  N   UNL     1       8.283  -1.157  22.955  0.00  0.00    -0.308 N 
ATOM     13  C   UNL     1       8.174   0.165  23.318  0.00  0.00    +0.168 A 
ATOM     14  N   UNL     1       7.187   0.727  24.029  0.00  0.00    -0.195 NA
ENDROOT
BRANCH  12  15
ATOM     15  C   UNL     1       7.347  -2.195  23.357  0.00  0.00    +0.113 C 
ATOM     16  C   UNL     1       7.325  -3.416  22.490  0.00  0.00    -0.006 C 
ATOM     17  C   UNL     1       7.675  -4.521  23.156  0.00  0.00    -0.023 C 
ATOM     18  C   UNL     1       8.032  -4.239  24.586  0.00  0.00    +0.039 C 
ATOM     19  C   UNL     1       7.616  -2.763  24.763  0.00  0.00    +0.039 C 
BRANCH  18  20
ATOM     20  C   UNL     1       9.516  -4.486  24.883  0.00  0.00    +0.163 C 
BRANCH  20  21
ATOM     21  O   UNL     1       9.695  -5.699  25.600  0.00  0.00    -0.394 OA
ATOM     22  H   UNL     1      10.645  -5.909  25.594  0.00  0.00    +0.209 HD
ENDBRANCH  20  21
ENDBRANCH  18  20
ENDBRANCH  12  15
BRANCH   7  23
ATOM     23  C   UNL     1      11.020   3.981  23.617  0.00  0.00    +0.072 C 
ATOM     24  C   UNL     1      10.842   5.439  23.302  0.00  0.00    +0.024 C 
ATOM     25  C   UNL     1      12.213   4.831  23.262  0.00  0.00    +0.024 C 
ENDBRANCH   7  23
TORSDOF 4
ENDMDL
MODEL 9
REMARK VINA RESULT:      -6.1      3.348      6.620
REMARK  Name = 
REMARK  4 active torsions:
REMARK  status: ('A' for Active; 'I' for Inactive)
REMARK    1  A    between atoms: N_8  and  C_9
REMARK    2  A    between atoms: C_12  and  C_14
REMARK    3  A    between atoms: C_14  and  O_15
REMARK    4  A    between atoms: N_19  and  C_20
REMARK                            x       y       z     vdW  Elec       q    Type
REMARK                         _______ _______ _______ _____ _____    ______ ____
ROOT
ATOM      1  N   UNL     1       9.628   1.876  21.514  0.00  0.00    -0.327 N 
ATOM      2  H   UNL     1       9.305   2.714  21.053  0.00  0.00    +0.145 HD
ATOM      3  H   UNL     1      10.123   1.187  20.966  0.00  0.00    +0.145 HD
ATOM      4  C   UNL     1       8.581   1.297  22.202  0.00  0.00    +0.216 A 
ATOM      5  N   UNL     1       7.561   2.108  22.508  0.00  0.00    -0.198 NA
ATOM      6  C   UNL     1       6.519   1.643  23.258  0.00  0.00    +0.152 A 
ATOM      7  N   UNL     1       5.464   2.519  23.594  0.00  0.00    -0.324 N 
ATOM      8  H   UNL     1       4.742   2.037  24.123  0.00  0.00    +0.148 HD
ATOM      9  C   UNL     1       6.563   0.292  23.659  0.00  0.00    +0.148 A 
ATOM     10  N   UNL     1       5.713  -0.501  24.401  0.00  0.00    -0.231 NA
ATOM     11  C   UNL     1       6.266  -1.702  24.385  0.00  0.00    +0.202 A 
ATOM     12  N   UNL     1       7.435  -1.725  23.665  0.00  0.00    -0.308 N 
ATOM     13  C   UNL     1       7.646  -0.444  23.211  0.00  0.00    +0.168 A 
ATOM     14  N   UNL     1       8.677  -0.010  22.473  0.00  0.00    -0.195 NA
ENDROOT
BRANCH  12  15
ATOM     15  C   UNL     1       8.292  -2.857  23.347  0.00  0.00    +0.113 C 
ATOM     16  C   UNL     1       9.562  -2.947  24.136  0.00  0.00    -0.006 C 
ATOM     17  C   UNL     1       9.628  -4.063  24.869  0.00  0.00    -0.023 C 
ATOM     18  C   UNL     1       8.397  -4.911  24.735  0.00  0.00    +0.039 C 
ATOM     19  C   UNL     1       7.626  -4.225  23.587  0.00  0.00    +0.039 C 
BRANCH  18  20
ATOM     20  C   UNL     1       7.591  -4.990  26.037  0.00  0.00    +0.163 C 
BRANCH  20  21
ATOM     21  O   UNL     1       8.125  -5.981  26.905  0.00  0.00    -0.394 OA
ATOM     22  H   UNL     1       8.396  -6.739  26.359  0.00  0.00    +0.209 HD
ENDBRANCH  20  21
ENDBRANCH  18  20
ENDBRANCH  12  15
BRANCH   7  23
ATOM     23  C   UNL     1       5.102   3.546  22.616  0.00  0.00    +0.072 C 
ATOM     24  C   UNL     1       5.244   5.016  22.893  0.00  0.00    +0.024 C 
ATOM     25  C   UNL     1       3.878   4.400  22.821  0.00  0.00    +0.024 C 
ENDBRANCH   7  23
TORSDOF 4
ENDMDL
