MODEL 1
REMARK VINA RESULT:      -7.5      0.000      0.000
REMARK  Name = 
REMARK  3 active torsions:
REMARK  status: ('A' for Active; 'I' for Inactive)
REMARK    1  A    between atoms: C_1  and  N_2
REMARK    2  A    between atoms: C_8  and  O_10
REMARK    3  A    between atoms: O_10  and  C_11
REMARK                            x       y       z     vdW  Elec       q    Type
REMARK                         _______ _______ _______ _____ _____    ______ ____
ROOT
ATOM      1  C   UNL     1       7.293  -1.819  24.950  0.00  0.00    +0.328 C 
ATOM      2  C   UNL     1       8.039  -3.097  25.243  0.00  0.00    +0.131 A 
ATOM      3  C   UNL     1       9.137  -3.177  24.409  0.00  0.00    +0.153 A 
ATOM      4  N   UNL     1      10.075  -4.143  24.485  0.00  0.00    -0.247 NA
ATOM      5  C   UNL     1       9.818  -5.059  25.451  0.00  0.00    +0.131 A 
ATOM      6  C   UNL     1       8.708  -4.986  26.298  0.00  0.00    +0.131 A 
ATOM      7  C   UNL     1       9.183  -1.972  23.556  0.00  0.00    +0.275 C 
ATOM      8  O   UNL     1      10.079  -1.758  22.759  0.00  0.00    -0.268 OA
ATOM      9  N   UNL     1       7.785  -3.989  26.229  0.00  0.00    -0.251 NA
ATOM     10  N   UNL     1       8.094  -1.169  23.930  0.00  0.00    -0.208 N 
ATOM     11  C   UNL     1       7.840   0.122  23.435  0.00  0.00    +0.131 A 
ATOM     12  C   UNL     1       6.947   0.973  24.093  0.00  0.00    +0.045 A 
ATOM     13  C   UNL     1       6.745   2.271  23.617  0.00  0.00    +0.025 A 
ATOM     14  C   UNL     1       7.410   2.686  22.475  0.00  0.00    +0.059 A 
ATOM     15 CL   UNL     1       7.193   4.270  21.860  0.00  0.00    -0.082 Cl
ATOM     16  C   UNL     1       8.256   1.784  21.859  0.00  0.00    +0.132 A 
ATOM     17  N   UNL     1       8.484   0.531  22.325  0.00  0.00    -0.238 NA
ENDROOT
BRANCH   1  18
ATOM     18  O   UNL     1       5.910  -1.965  24.563  0.00  0.00    -0.422 OA
BRANCH  18  24
ATOM     19  C   UNL     1       3.146  -7.054  24.847  0.00  0.00    +0.105 C 
ATOM     20  N   UNL     1       4.567  -6.722  24.762  0.00  0.00    -0.302 NA
ATOM     21  C   UNL     1       4.949  -5.661  25.723  0.00  0.00    +0.103 C 
ATOM     22  C   UNL     1       4.468  -4.240  25.354  0.00  0.00    +0.126 C 
ATOM     23  N   UNL     1       4.845  -3.916  23.981  0.00  0.00    -0.265 N 
ATOM     24  C   UNL     1       5.650  -2.872  23.584  0.00  0.00    +0.405 C 
ATOM     25  O   UNL     1       6.064  -2.756  22.438  0.00  0.00    -0.226 OA
ATOM     26  C   UNL     1       4.453  -4.913  22.985  0.00  0.00    +0.126 C 
ATOM     27  C   UNL     1       4.944  -6.315  23.389  0.00  0.00    +0.103 C 
ENDBRANCH  18  24
ENDBRANCH   1  18
TORSDOF 2
ENDMDL
MODEL 2
REMARK VINA RESULT:      -7.1      1.521      1.620
REMARK  Name = 
REMARK  3 active torsions:
REMARK  status: ('A' for Active; 'I' for Inactive)
REMARK    1  A    between atoms: C_1  and  N_2
REMARK    2  A    between atoms: C_8  and  O_10
REMARK    3  A    between atoms: O_10  and  C_11
REMARK                            x       y       z     vdW  Elec       q    Type
REMARK                         _______ _______ _______ _____ _____    ______ ____
ROOT
ATOM      1  C   UNL     1       7.842  -1.595  25.706  0.00  0.00    +0.328 C 
ATOM      2  C   UNL     1       8.211  -3.057  25.718  0.00  0.00    +0.131 A 
ATOM      3  C   UNL     1       9.167  -3.287  24.748  0.00  0.00    +0.153 A 
ATOM      4  N   UNL     1       9.791  -4.468  24.566  0.00  0.00    -0.247 NA
ATOM      5  C   UNL     1       9.363  -5.432  25.418  0.00  0.00    +0.131 A 
ATOM      6  C   UNL     1       8.395  -5.208  26.401  0.00  0.00    +0.131 A 
ATOM      7  C   UNL     1       9.486  -2.011  24.074  0.00  0.00    +0.275 C 
ATOM      8  O   UNL     1      10.336  -1.913  23.208  0.00  0.00    -0.268 OA
ATOM      9  N   UNL     1       7.795  -4.002  26.593  0.00  0.00    -0.251 NA
ATOM     10  N   UNL     1       8.708  -1.020  24.694  0.00  0.00    -0.208 N 
ATOM     11  C   UNL     1       8.795   0.357  24.424  0.00  0.00    +0.131 A 
ATOM     12  C   UNL     1       8.242   1.291  25.304  0.00  0.00    +0.045 A 
ATOM     13  C   UNL     1       8.382   2.657  25.046  0.00  0.00    +0.025 A 
ATOM     14  C   UNL     1       9.041   3.066  23.898  0.00  0.00    +0.059 A 
ATOM     15 CL   UNL     1       9.238   4.732  23.546  0.00  0.00    -0.082 Cl
ATOM     16  C   UNL     1       9.538   2.089  23.058  0.00  0.00    +0.132 A 
ATOM     17  N   UNL     1       9.435   0.761  23.309  0.00  0.00    -0.238 NA
ENDROOT
BRANCH   1  18
ATOM     18  O   UNL     1       6.448  -1.293  25.483  0.00  0.00    -0.422 OA
BRANCH  18  24
ATOM     19  C   UNL     1       2.142  -4.987  26.682  0.00  0.00    +0.105 C 
ATOM     20  N   UNL     1       3.569  -5.199  26.442  0.00  0.00    -0.302 NA
ATOM     21  C   UNL     1       4.410  -4.255  27.214  0.00  0.00    +0.103 C 
ATOM     22  C   UNL     1       4.412  -2.802  26.690  0.00  0.00    +0.126 C 
ATOM     23  N   UNL     1       4.708  -2.778  25.261  0.00  0.00    -0.265 N 
ATOM     24  C   UNL     1       5.771  -2.140  24.662  0.00  0.00    +0.405 C 
ATOM     25  O   UNL     1       6.057  -2.298  23.483  0.00  0.00    -0.226 OA
ATOM     26  C   UNL     1       3.876  -3.662  24.446  0.00  0.00    +0.126 C 
ATOM     27  C   UNL     1       3.893  -5.097  25.001  0.00  0.00    +0.103 C 
ENDBRANCH  18  24
ENDBRANCH   1  18
TORSDOF 2
ENDMDL
MODEL 3
REMARK VINA RESULT:      -6.8      2.100      2.843
REMARK  Name = 
REMARK  3 active torsions:
REMARK  status: ('A' for Active; 'I' for Inactive)
REMARK    1  A    between atoms: C_1  and  N_2
REMARK    2  A    between atoms: C_8  and  O_10
REMARK    3  A    between atoms: O_10  and  C_11
REMARK                            x       y       z     vdW  Elec       q    Type
REMARK                         _______ _______ _______ _____ _____    ______ ____
ROOT
ATOM      1  C   UNL     1       6.162  -2.765  25.743  0.00  0.00    +0.328 C 
ATOM      2  C   UNL     1       6.062  -3.931  26.695  0.00  0.00    +0.131 A 
ATOM      3  C   UNL     1       7.258  -4.622  26.687  0.00  0.00    +0.153 A 
ATOM      4  N   UNL     1       7.541  -5.654  27.506  0.00  0.00    -0.247 NA
ATOM      5  C   UNL     1       6.514  -5.975  28.330  0.00  0.00    +0.131 A 
ATOM      6  C   UNL     1       5.299  -5.282  28.344  0.00  0.00    +0.131 A 
ATOM      7  C   UNL     1       8.196  -3.949  25.763  0.00  0.00    +0.275 C 
ATOM      8  O   UNL     1       9.344  -4.320  25.600  0.00  0.00    -0.268 OA
ATOM      9  N   UNL     1       5.039  -4.223  27.532  0.00  0.00    -0.251 NA
ATOM     10  N   UNL     1       7.525  -2.829  25.250  0.00  0.00    -0.208 N 
ATOM     11  C   UNL     1       8.105  -1.856  24.417  0.00  0.00    +0.131 A 
ATOM     12  C   UNL     1       7.483  -0.619  24.227  0.00  0.00    +0.045 A 
ATOM     13  C   UNL     1       8.098   0.356  23.437  0.00  0.00    +0.025 A 
ATOM     14  C   UNL     1       9.307   0.067  22.824  0.00  0.00    +0.059 A 
ATOM     15 CL   UNL     1      10.097   1.234  21.850  0.00  0.00    -0.082 Cl
ATOM     16  C   UNL     1       9.851  -1.185  23.032  0.00  0.00    +0.132 A 
ATOM     17  N   UNL     1       9.280  -2.131  23.818  0.00  0.00    -0.238 NA
ENDROOT
BRANCH   1  18
ATOM     18  O   UNL     1       5.185  -2.727  24.681  0.00  0.00    -0.422 OA
BRANCH  18  24
ATOM     19  C   UNL     1       0.573  -6.218  24.285  0.00  0.00    +0.105 C 
ATOM     20  N   UNL     1       1.828  -6.343  25.024  0.00  0.00    -0.302 NA
ATOM     21  C   UNL     1       2.166  -5.103  25.761  0.00  0.00    +0.103 C 
ATOM     22  C   UNL     1       2.658  -3.933  24.880  0.00  0.00    +0.126 C 
ATOM     23  N   UNL     1       3.737  -4.377  24.002  0.00  0.00    -0.265 N 
ATOM     24  C   UNL     1       5.019  -3.876  23.973  0.00  0.00    +0.405 C 
ATOM     25  O   UNL     1       5.920  -4.404  23.334  0.00  0.00    -0.226 OA
ATOM     26  C   UNL     1       3.439  -5.576  23.219  0.00  0.00    +0.126 C 
ATOM     27  C   UNL     1       2.946  -6.716  24.128  0.00  0.00    +0.103 C 
ENDBRANCH  18  24
ENDBRANCH   1  18
TORSDOF 2
ENDMDL
MODEL 4
REMARK VINA RESULT:      -6.8      2.823      5.600
REMARK  Name = 
REMARK  3 active torsions:
REMARK  status: ('A' for Active; 'I' for Inactive)
REMARK    1  A    between atoms: C_1  and  N_2
REMARK    2  A    between atoms: C_8  and  O_10
REMARK    3  A    between atoms: O_10  and  C_11
REMARK                            x       y       z     vdW  Elec       q    Type
REMARK                         _______ _______ _______ _____ _____    ______ ____
ROOT
ATOM      1  C   UNL     1       7.739   0.059  24.579  0.00  0.00    +0.328 C 
ATOM      2  C   UNL     1       7.890  -1.441  24.583  0.00  0.00    +0.131 A 
ATOM      3  C   UNL     1       9.135  -1.769  24.083  0.00  0.00    +0.153 A 
ATOM      4  N   UNL     1       9.631  -3.022  24.050  0.00  0.00    -0.247 NA
ATOM      5  C   UNL     1       8.767  -3.948  24.534  0.00  0.00    +0.131 A 
ATOM      6  C   UNL     1       7.505  -3.625  25.040  0.00  0.00    +0.131 A 
ATOM      7  C   UNL     1       9.861  -0.526  23.749  0.00  0.00    +0.275 C 
ATOM      8  O   UNL     1      11.006  -0.520  23.334  0.00  0.00    -0.268 OA
ATOM      9  N   UNL     1       7.029  -2.352  25.094  0.00  0.00    -0.251 NA
ATOM     10  N   UNL     1       9.017   0.542  24.092  0.00  0.00    -0.208 N 
ATOM     11  C   UNL     1       9.375   1.900  24.035  0.00  0.00    +0.131 A 
ATOM     12  C   UNL     1       8.614   2.864  24.700  0.00  0.00    +0.045 A 
ATOM     13  C   UNL     1       9.012   4.204  24.676  0.00  0.00    +0.025 A 
ATOM     14  C   UNL     1      10.144   4.561  23.962  0.00  0.00    +0.059 A 
ATOM     15 CL   UNL     1      10.670   6.191  23.909  0.00  0.00    -0.082 Cl
ATOM     16  C   UNL     1      10.833   3.561  23.305  0.00  0.00    +0.132 A 
ATOM     17  N   UNL     1      10.475   2.254  23.342  0.00  0.00    -0.238 NA
ENDROOT
BRANCH   1  18
ATOM     18  O   UNL     1       6.623   0.583  23.828  0.00  0.00    -0.422 OA
BRANCH  18  24
ATOM     19  C   UNL     1       3.567   5.360  22.615  0.00  0.00    +0.105 C 
ATOM     20  N   UNL     1       4.692   5.127  23.521  0.00  0.00    -0.302 NA
ATOM     21  C   UNL     1       5.783   4.364  22.869  0.00  0.00    +0.103 C 
ATOM     22  C   UNL     1       5.490   2.864  22.647  0.00  0.00    +0.126 C 
ATOM     23  N   UNL     1       5.038   2.246  23.891  0.00  0.00    -0.265 N 
ATOM     24  C   UNL     1       5.649   1.202  24.548  0.00  0.00    +0.405 C 
ATOM     25  O   UNL     1       5.316   0.842  25.669  0.00  0.00    -0.226 OA
ATOM     26  C   UNL     1       3.933   2.936  24.554  0.00  0.00    +0.126 C 
ATOM     27  C   UNL     1       4.257   4.428  24.751  0.00  0.00    +0.103 C 
ENDBRANCH  18  24
ENDBRANCH   1  18
TORSDOF 2
ENDMDL
MODEL 5
REMARK VINA RESULT:      -6.8      3.122      6.769
REMARK  Name = 
REMARK  3 active torsions:
REMARK  status: ('A' for Active; 'I' for Inactive)
REMARK    1  A    between atoms: C_1  and  N_2
REMARK    2  A    between atoms: C_8  and  O_10
REMARK    3  A    between atoms: O_10  and  C_11
REMARK                            x       y       z     vdW  Elec       q    Type
REMARK                         _______ _______ _______ _____ _____    ______ ____
ROOT
ATOM      1  C   UNL     1       6.689  -1.943  23.425  0.00  0.00    +0.328 C 
ATOM      2  C   UNL     1       8.046  -1.460  22.979  0.00  0.00    +0.131 A 
ATOM      3  C   UNL     1       8.989  -2.423  23.286  0.00  0.00    +0.153 A 
ATOM      4  N   UNL     1      10.286  -2.353  22.925  0.00  0.00    -0.247 NA
ATOM      5  C   UNL     1      10.590  -1.218  22.249  0.00  0.00    +0.131 A 
ATOM      6  C   UNL     1       9.643  -0.239  21.936  0.00  0.00    +0.131 A 
ATOM      7  C   UNL     1       8.312  -3.574  23.918  0.00  0.00    +0.275 C 
ATOM      8  O   UNL     1       8.900  -4.589  24.247  0.00  0.00    -0.268 OA
ATOM      9  N   UNL     1       8.331  -0.336  22.281  0.00  0.00    -0.251 NA
ATOM     10  N   UNL     1       6.942  -3.271  23.950  0.00  0.00    -0.208 N 
ATOM     11  C   UNL     1       5.933  -4.154  24.375  0.00  0.00    +0.131 A 
ATOM     12  C   UNL     1       4.593  -3.904  24.064  0.00  0.00    +0.045 A 
ATOM     13  C   UNL     1       3.609  -4.818  24.449  0.00  0.00    +0.025 A 
ATOM     14  C   UNL     1       3.974  -5.947  25.165  0.00  0.00    +0.059 A 
ATOM     15 CL   UNL     1       2.798  -7.094  25.653  0.00  0.00    -0.082 Cl
ATOM     16  C   UNL     1       5.312  -6.116  25.462  0.00  0.00    +0.132 A 
ATOM     17  N   UNL     1       6.282  -5.253  25.071  0.00  0.00    -0.238 NA
ENDROOT
BRANCH   1  18
ATOM     18  O   UNL     1       5.991  -1.096  24.362  0.00  0.00    -0.422 OA
BRANCH  18  24
ATOM     19  C   UNL     1       6.688   4.649  24.716  0.00  0.00    +0.105 C 
ATOM     20  N   UNL     1       7.536   3.598  24.155  0.00  0.00    -0.302 NA
ATOM     21  C   UNL     1       6.772   2.668  23.292  0.00  0.00    +0.103 C 
ATOM     22  C   UNL     1       5.844   1.689  24.045  0.00  0.00    +0.126 C 
ATOM     23  N   UNL     1       6.582   0.999  25.099  0.00  0.00    -0.265 N 
ATOM     24  C   UNL     1       6.765  -0.362  25.205  0.00  0.00    +0.405 C 
ATOM     25  O   UNL     1       7.533  -0.863  26.015  0.00  0.00    -0.226 OA
ATOM     26  C   UNL     1       7.322   1.875  26.006  0.00  0.00    +0.126 C 
ATOM     27  C   UNL     1       8.228   2.839  25.221  0.00  0.00    +0.103 C 
ENDBRANCH  18  24
ENDBRANCH   1  18
TORSDOF 2
ENDMDL
MODEL 6
REMARK VINA RESULT:      -6.6      2.688      5.200
REMARK  Name = 
REMARK  3 active torsions:
REMARK  status: ('A' for Active; 'I' for Inactive)
REMARK    1  A    between atoms: C_1  and  N_2
REMARK    2  A    between atoms: C_8  and  O_10
REMARK    3  A    between atoms: O_10  and  C_11
REMARK                            x       y       z     vdW  Elec       q    Type
REMARK                         _______ _______ _______ _____ _____    ______ ____
ROOT
ATOM      1  C   UNL     1       7.096  -1.298  24.317  0.00  0.00    +0.328 C 
ATOM      2  C   UNL     1       6.782  -2.739  24.006  0.00  0.00    +0.131 A 
ATOM      3  C   UNL     1       7.559  -3.148  22.940  0.00  0.00    +0.153 A 
ATOM      4  N   UNL     1       7.602  -4.414  22.477  0.00  0.00    -0.247 NA
ATOM      5  C   UNL     1       6.776  -5.254  23.147  0.00  0.00    +0.131 A 
ATOM      6  C   UNL     1       5.985  -4.848  24.227  0.00  0.00    +0.131 A 
ATOM      7  C   UNL     1       8.422  -2.027  22.515  0.00  0.00    +0.275 C 
ATOM      8  O   UNL     1       9.246  -2.126  21.623  0.00  0.00    -0.268 OA
ATOM      9  N   UNL     1       5.974  -3.573  24.702  0.00  0.00    -0.251 NA
ATOM     10  N   UNL     1       8.148  -0.955  23.379  0.00  0.00    -0.208 N 
ATOM     11  C   UNL     1       8.838   0.270  23.384  0.00  0.00    +0.131 A 
ATOM     12  C   UNL     1       8.735   1.139  24.474  0.00  0.00    +0.045 A 
ATOM     13  C   UNL     1       9.468   2.329  24.486  0.00  0.00    +0.025 A 
ATOM     14  C   UNL     1      10.264   2.646  23.398  0.00  0.00    +0.059 A 
ATOM     15 CL   UNL     1      11.182   4.093  23.374  0.00  0.00    -0.082 Cl
ATOM     16  C   UNL     1      10.297   1.755  22.343  0.00  0.00    +0.132 A 
ATOM     17  N   UNL     1       9.614   0.584  22.329  0.00  0.00    -0.238 NA
ENDROOT
BRANCH   1  18
ATOM     18  O   UNL     1       5.982  -0.380  24.265  0.00  0.00    -0.422 OA
BRANCH  18  24
ATOM     19  C   UNL     1       4.081   4.909  25.690  0.00  0.00    +0.105 C 
ATOM     20  N   UNL     1       5.352   4.230  25.942  0.00  0.00    -0.302 NA
ATOM     21  C   UNL     1       5.888   3.583  24.722  0.00  0.00    +0.103 C 
ATOM     22  C   UNL     1       5.148   2.300  24.283  0.00  0.00    +0.126 C 
ATOM     23  N   UNL     1       5.029   1.373  25.405  0.00  0.00    -0.265 N 
ATOM     24  C   UNL     1       5.536   0.094  25.459  0.00  0.00    +0.405 C 
ATOM     25  O   UNL     1       5.548  -0.568  26.488  0.00  0.00    -0.226 OA
ATOM     26  C   UNL     1       4.465   1.952  26.623  0.00  0.00    +0.126 C 
ATOM     27  C   UNL     1       5.222   3.230  27.025  0.00  0.00    +0.103 C 
ENDBRANCH  18  24
ENDBRANCH   1  18
TORSDOF 2
ENDMDL
MODEL 7
REMARK VINA RESULT:      -6.6      3.243      5.116
REMARK  Name = 
REMARK  3 active torsions:
REMARK  status: ('A' for Active; 'I' for Inactive)
REMARK    1  A    between atoms: C_1  and  N_2
REMARK    2  A    between atoms: C_8  and  O_10
REMARK    3  A    between atoms: O_10  and  C_11
REMARK                            x       y       z     vdW  Elec       q    Type
REMARK                         _______ _______ _______ _____ _____    ______ ____
ROOT
ATOM      1  C   UNL     1       7.389   0.191  24.077  0.00  0.00    +0.328 C 
ATOM      2  C   UNL     1       8.391   1.315  23.997  0.00  0.00    +0.131 A 
ATOM      3  C   UNL     1       9.503   0.876  23.303  0.00  0.00    +0.153 A 
ATOM      4  N   UNL     1      10.540   1.666  22.960  0.00  0.00    -0.247 NA
ATOM      5  C   UNL     1      10.403   2.943  23.394  0.00  0.00    +0.131 A 
ATOM      6  C   UNL     1       9.282   3.394  24.098  0.00  0.00    +0.131 A 
ATOM      7  C   UNL     1       9.285  -0.523  22.881  0.00  0.00    +0.275 C 
ATOM      8  O   UNL     1      10.088  -1.144  22.208  0.00  0.00    -0.268 OA
ATOM      9  N   UNL     1       8.229   2.593  24.411  0.00  0.00    -0.251 NA
ATOM     10  N   UNL     1       8.004  -0.886  23.325  0.00  0.00    -0.208 N 
ATOM     11  C   UNL     1       7.366  -2.104  23.032  0.00  0.00    +0.131 A 
ATOM     12  C   UNL     1       5.989  -2.249  23.220  0.00  0.00    +0.045 A 
ATOM     13  C   UNL     1       5.363  -3.450  22.875  0.00  0.00    +0.025 A 
ATOM     14  C   UNL     1       6.126  -4.494  22.380  0.00  0.00    +0.059 A 
ATOM     15 CL   UNL     1       5.397  -5.982  21.941  0.00  0.00    -0.082 Cl
ATOM     16  C   UNL     1       7.485  -4.292  22.245  0.00  0.00    +0.132 A 
ATOM     17  N   UNL     1       8.103  -3.123  22.549  0.00  0.00    -0.238 NA
ENDROOT
BRANCH   1  18
ATOM     18  O   UNL     1       6.992  -0.212  25.405  0.00  0.00    -0.422 OA
BRANCH  18  24
ATOM     19  C   UNL     1       3.632  -3.806  28.473  0.00  0.00    +0.105 C 
ATOM     20  N   UNL     1       3.781  -3.605  27.032  0.00  0.00    -0.302 NA
ATOM     21  C   UNL     1       5.204  -3.566  26.620  0.00  0.00    +0.103 C 
ATOM     22  C   UNL     1       5.962  -2.276  27.004  0.00  0.00    +0.126 C 
ATOM     23  N   UNL     1       5.217  -1.099  26.564  0.00  0.00    -0.265 N 
ATOM     24  C   UNL     1       5.663  -0.137  25.686  0.00  0.00    +0.405 C 
ATOM     25  O   UNL     1       4.931   0.730  25.229  0.00  0.00    -0.226 OA
ATOM     26  C   UNL     1       3.816  -1.067  26.981  0.00  0.00    +0.126 C 
ATOM     27  C   UNL     1       3.096  -2.370  26.588  0.00  0.00    +0.103 C 
ENDBRANCH  18  24
ENDBRANCH   1  18
TORSDOF 2
ENDMDL
MODEL 8
REMARK VINA RESULT:      -6.5      3.468      6.975
REMARK  Name = 
REMARK  3 active torsions:
REMARK  status: ('A' for Active; 'I' for Inactive)
REMARK    1  A    between atoms: C_1  and  N_2
REMARK    2  A    between atoms: C_8  and  O_10
REMARK    3  A    between atoms: O_10  and  C_11
REMARK                            x       y       z     vdW  Elec       q    Type
REMARK                         _______ _______ _______ _____ _____    ______ ____
ROOT
ATOM      1  C   UNL     1       7.212  -1.172  24.496  0.00  0.00    +0.328 C 
ATOM      2  C   UNL     1       8.060  -0.556  23.412  0.00  0.00    +0.131 A 
ATOM      3  C   UNL     1       9.177  -1.344  23.213  0.00  0.00    +0.153 A 
ATOM      4  N   UNL     1      10.086  -1.135  22.241  0.00  0.00    -0.247 NA
ATOM      5  C   UNL     1       9.815  -0.044  21.484  0.00  0.00    +0.131 A 
ATOM      6  C   UNL     1       8.688   0.761  21.680  0.00  0.00    +0.131 A 
ATOM      7  C   UNL     1       9.113  -2.507  24.123  0.00  0.00    +0.275 C 
ATOM      8  O   UNL     1       9.948  -3.394  24.123  0.00  0.00    -0.268 OA
ATOM      9  N   UNL     1       7.762   0.520  22.647  0.00  0.00    -0.251 NA
ATOM     10  N   UNL     1       7.914  -2.393  24.843  0.00  0.00    -0.208 N 
ATOM     11  C   UNL     1       7.418  -3.358  25.738  0.00  0.00    +0.131 A 
ATOM     12  C   UNL     1       6.082  -3.327  26.149  0.00  0.00    +0.045 A 
ATOM     13  C   UNL     1       5.593  -4.323  26.998  0.00  0.00    +0.025 A 
ATOM     14  C   UNL     1       6.452  -5.312  27.448  0.00  0.00    +0.059 A 
ATOM     15 CL   UNL     1       5.891  -6.554  28.487  0.00  0.00    -0.082 Cl
ATOM     16  C   UNL     1       7.765  -5.266  27.024  0.00  0.00    +0.132 A 
ATOM     17  N   UNL     1       8.248  -4.323  26.179  0.00  0.00    -0.238 NA
ENDROOT
BRANCH   1  18
ATOM     18  O   UNL     1       6.943  -0.338  25.643  0.00  0.00    -0.422 OA
BRANCH  18  24
ATOM     19  C   UNL     1       6.206   5.412  25.768  0.00  0.00    +0.105 C 
ATOM     20  N   UNL     1       6.023   4.384  26.792  0.00  0.00    -0.302 NA
ATOM     21  C   UNL     1       7.176   3.456  26.860  0.00  0.00    +0.103 C 
ATOM     22  C   UNL     1       7.274   2.449  25.692  0.00  0.00    +0.126 C 
ATOM     23  N   UNL     1       6.002   1.754  25.512  0.00  0.00    -0.265 N 
ATOM     24  C   UNL     1       5.799   0.396  25.602  0.00  0.00    +0.405 C 
ATOM     25  O   UNL     1       4.683  -0.106  25.607  0.00  0.00    -0.226 OA
ATOM     26  C   UNL     1       4.836   2.628  25.396  0.00  0.00    +0.126 C 
ATOM     27  C   UNL     1       4.775   3.620  26.572  0.00  0.00    +0.103 C 
ENDBRANCH  18  24
ENDBRANCH   1  18
TORSDOF 2
ENDMDL
MODEL 9
REMARK VINA RESULT:      -6.4      3.197      7.047
REMARK  Name = 
REMARK  3 active torsions:
REMARK  status: ('A' for Active; 'I' for Inactive)
REMARK    1  A    between atoms: C_1  and  N_2
REMARK    2  A    between atoms: C_8  and  O_10
REMARK    3  A    between atoms: O_10  and  C_11
REMARK                            x       y       z     vdW  Elec       q    Type
REMARK                         _______ _______ _______ _____ _____    ______ ____
ROOT
ATOM      1  C   UNL     1       6.617  -0.696  23.610  0.00  0.00    +0.328 C 
ATOM      2  C   UNL     1       7.670   0.179  22.978  0.00  0.00    +0.131 A 
ATOM      3  C   UNL     1       8.886  -0.475  23.025  0.00  0.00    +0.153 A 
ATOM      4  N   UNL     1      10.015  -0.015  22.450  0.00  0.00    -0.247 NA
ATOM      5  C   UNL     1       9.850   1.183  21.837  0.00  0.00    +0.131 A 
ATOM      6  C   UNL     1       8.624   1.852  21.785  0.00  0.00    +0.131 A 
ATOM      7  C   UNL     1       8.697  -1.796  23.660  0.00  0.00    +0.275 C 
ATOM      8  O   UNL     1       9.599  -2.605  23.786  0.00  0.00    -0.268 OA
ATOM      9  N   UNL     1       7.485   1.362  22.345  0.00  0.00    -0.251 NA
ATOM     10  N   UNL     1       7.330  -1.909  23.960  0.00  0.00    -0.208 N 
ATOM     11  C   UNL     1       6.713  -3.063  24.473  0.00  0.00    +0.131 A 
ATOM     12  C   UNL     1       5.324  -3.207  24.427  0.00  0.00    +0.045 A 
ATOM     13  C   UNL     1       4.730  -4.383  24.894  0.00  0.00    +0.025 A 
ATOM     14  C   UNL     1       5.530  -5.379  25.430  0.00  0.00    +0.059 A 
ATOM     15 CL   UNL     1       4.843  -6.838  26.011  0.00  0.00    -0.082 Cl
ATOM     16  C   UNL     1       6.893  -5.159  25.470  0.00  0.00    +0.132 A 
ATOM     17  N   UNL     1       7.486  -4.036  24.995  0.00  0.00    -0.238 NA
ENDROOT
BRANCH   1  18
ATOM     18  O   UNL     1       5.905  -0.125  24.728  0.00  0.00    -0.422 OA
BRANCH  18  24
ATOM     19  C   UNL     1       5.730   5.527  26.012  0.00  0.00    +0.105 C 
ATOM     20  N   UNL     1       6.661   4.740  25.204  0.00  0.00    -0.302 NA
ATOM     21  C   UNL     1       5.957   3.838  24.263  0.00  0.00    +0.103 C 
ATOM     22  C   UNL     1       5.288   2.607  24.914  0.00  0.00    +0.126 C 
ATOM     23  N   UNL     1       6.243   1.899  25.762  0.00  0.00    -0.265 N 
ATOM     24  C   UNL     1       6.647   0.592  25.614  0.00  0.00    +0.405 C 
ATOM     25  O   UNL     1       7.574   0.111  26.253  0.00  0.00    -0.226 OA
ATOM     26  C   UNL     1       6.936   2.738  26.739  0.00  0.00    +0.126 C 
ATOM     27  C   UNL     1       7.583   3.956  26.056  0.00  0.00    +0.103 C 
ENDBRANCH  18  24
ENDBRANCH   1  18
TORSDOF 2
ENDMDL
