MODEL 1
REMARK VINA RESULT:      -5.8      0.000      0.000
REMARK  Name = 
REMARK  12 active torsions:
REMARK  status: ('A' for Active; 'I' for Inactive)
REMARK    1  A    between atoms: O_1  and  C_2
REMARK    2  A    between atoms: C_4  and  O_6
REMARK    3  A    between atoms: C_7  and  O_9
REMARK    4  A    between atoms: O_9  and  P_10
REMARK    5  A    between atoms: P_10  and  O_11
REMARK    6  A    between atoms: P_10  and  O_12
REMARK    7  A    between atoms: C_14  and  O_16
REMARK    8  A    between atoms: C_17  and  O_19
REMARK    9  A    between atoms: C_20  and  O_22
REMARK   10  A    between atoms: O_22  and  P_23
REMARK   11  A    between atoms: P_23  and  O_24
REMARK   12  A    between atoms: P_23  and  O_25
REMARK                            x       y       z     vdW  Elec       q    Type
REMARK                         _______ _______ _______ _____ _____    ______ ____
ROOT
ATOM      1  C   UNL     1       9.299  -1.736  21.833  0.00  0.00    +0.177 C 
ATOM      2  C   UNL     1       7.831  -2.116  22.171  0.00  0.00    +0.192 C 
ATOM      3  C   UNL     1       7.123  -1.398  23.346  0.00  0.00    +0.177 C 
ATOM      4  C   UNL     1       8.062  -1.017  24.514  0.00  0.00    +0.177 C 
ATOM      5  C   UNL     1       9.385  -0.466  23.965  0.00  0.00    +0.192 C 
ATOM      6  C   UNL     1      10.123  -1.494  23.112  0.00  0.00    +0.177 C 
ENDROOT
BRANCH   1   7
ATOM      7  O   UNL     1       9.303  -0.678  20.874  0.00  0.00    -0.386 OA
ATOM      8  H   UNL     1       9.499   0.154  21.354  0.00  0.00    +0.210 HD
ENDBRANCH   1   7
BRANCH   3   9
ATOM      9  O   UNL     1       6.403  -0.242  22.884  0.00  0.00    -0.386 OA
ATOM     10  H   UNL     1       6.204  -0.417  21.943  0.00  0.00    +0.210 HD
ENDBRANCH   3   9
BRANCH   4  11
ATOM     11  O   UNL     1       8.340  -2.127  25.367  0.00  0.00    -0.386 OA
ATOM     12  H   UNL     1       8.740  -2.831  24.820  0.00  0.00    +0.210 HD
ENDBRANCH   4  11
BRANCH   6  13
ATOM     13  O   UNL     1      10.372  -2.734  23.776  0.00  0.00    -0.386 OA
ATOM     14  H   UNL     1      11.232  -2.660  24.255  0.00  0.00    +0.210 HD
ENDBRANCH   6  13
BRANCH   2  15
ATOM     15  O   UNL     1       7.815  -3.447  22.609  0.00  0.00    -0.278 OA
BRANCH  15  16
ATOM     16  P   UNL     1       6.323  -4.286  22.355  0.00  0.00    +0.473 P 
ATOM     17  O   UNL     1       4.988  -5.037  22.126  0.00  0.00    -0.228 OA
BRANCH  16  18
ATOM     18  O   UNL     1       6.542  -4.866  23.867  0.00  0.00    -0.303 OA
ATOM     19  H   UNL     1       7.466  -4.765  24.147  0.00  0.00    +0.222 HD
ENDBRANCH  16  18
BRANCH  16  20
ATOM     20  O   UNL     1       7.204  -5.409  21.573  0.00  0.00    -0.303 OA
ATOM     21  H   UNL     1       7.598  -6.047  22.194  0.00  0.00    +0.222 HD
ENDBRANCH  16  20
ENDBRANCH  15  16
ENDBRANCH   2  15
BRANCH   5  22
ATOM     22  O   UNL     1       9.129   0.604  23.072  0.00  0.00    -0.278 OA
BRANCH  22  23
ATOM     23  P   UNL     1      10.184   1.954  23.308  0.00  0.00    +0.473 P 
ATOM     24  O   UNL     1      11.127   3.164  23.519  0.00  0.00    -0.228 OA
BRANCH  23  25
ATOM     25  O   UNL     1       8.801   2.811  23.508  0.00  0.00    -0.303 OA
ATOM     26  H   UNL     1       8.610   2.908  24.458  0.00  0.00    +0.222 HD
ENDBRANCH  23  25
BRANCH  23  27
ATOM     27  O   UNL     1      10.159   2.088  21.677  0.00  0.00    -0.303 OA
ATOM     28  H   UNL     1       9.282   2.458  21.464  0.00  0.00    +0.222 HD
ENDBRANCH  23  27
ENDBRANCH  22  23
ENDBRANCH   5  22
TORSDOF 12
ENDMDL
MODEL 2
REMARK VINA RESULT:      -5.7      2.110      3.524
REMARK  Name = 
REMARK  12 active torsions:
REMARK  status: ('A' for Active; 'I' for Inactive)
REMARK    1  A    between atoms: O_1  and  C_2
REMARK    2  A    between atoms: C_4  and  O_6
REMARK    3  A    between atoms: C_7  and  O_9
REMARK    4  A    between atoms: O_9  and  P_10
REMARK    5  A    between atoms: P_10  and  O_11
REMARK    6  A    between atoms: P_10  and  O_12
REMARK    7  A    between atoms: C_14  and  O_16
REMARK    8  A    between atoms: C_17  and  O_19
REMARK    9  A    between atoms: C_20  and  O_22
REMARK   10  A    between atoms: O_22  and  P_23
REMARK   11  A    between atoms: P_23  and  O_24
REMARK   12  A    between atoms: P_23  and  O_25
REMARK                            x       y       z     vdW  Elec       q    Type
REMARK                         _______ _______ _______ _____ _____    ______ ____
ROOT
ATOM      1  C   UNL     1       7.640  -1.929  24.318  0.00  0.00    +0.177 C 
ATOM      2  C   UNL     1       9.144  -2.058  24.684  0.00  0.00    +0.192 C 
ATOM      3  C   UNL     1      10.166  -1.118  23.997  0.00  0.00    +0.177 C 
ATOM      4  C   UNL     1       9.802  -0.744  22.542  0.00  0.00    +0.177 C 
ATOM      5  C   UNL     1       8.299  -0.451  22.435  0.00  0.00    +0.192 C 
ATOM      6  C   UNL     1       7.452  -1.662  22.812  0.00  0.00    +0.177 C 
ENDROOT
BRANCH   1   7
ATOM      7  O   UNL     1       7.017  -0.996  25.203  0.00  0.00    -0.386 OA
ATOM      8  H   UNL     1       7.581  -0.196  25.233  0.00  0.00    +0.210 HD
ENDBRANCH   1   7
BRANCH   3   9
ATOM      9  O   UNL     1      10.383   0.068  24.780  0.00  0.00    -0.386 OA
ATOM     10  H   UNL     1       9.619   0.124  25.388  0.00  0.00    +0.210 HD
ENDBRANCH   3   9
BRANCH   4  11
ATOM     11  O   UNL     1      10.139  -1.779  21.618  0.00  0.00    -0.386 OA
ATOM     12  H   UNL     1      10.651  -2.456  22.101  0.00  0.00    +0.210 HD
ENDBRANCH   4  11
BRANCH   6  13
ATOM     13  O   UNL     1       7.753  -2.842  22.065  0.00  0.00    -0.386 OA
ATOM     14  H   UNL     1       8.163  -2.569  21.210  0.00  0.00    +0.210 HD
ENDBRANCH   6  13
BRANCH   2  15
ATOM     15  O   UNL     1       9.591  -3.315  24.257  0.00  0.00    -0.278 OA
BRANCH  15  16
ATOM     16  P   UNL     1       8.957  -4.659  25.142  0.00  0.00    +0.473 P 
ATOM     17  O   UNL     1       8.389  -5.863  25.933  0.00  0.00    -0.228 OA
BRANCH  16  18
ATOM     18  O   UNL     1      10.482  -5.246  25.088  0.00  0.00    -0.303 OA
ATOM     19  H   UNL     1      10.593  -5.979  25.715  0.00  0.00    +0.222 HD
ENDBRANCH  16  18
BRANCH  16  20
ATOM     20  O   UNL     1       8.461  -5.242  23.705  0.00  0.00    -0.303 OA
ATOM     21  H   UNL     1       7.569  -5.625  23.767  0.00  0.00    +0.222 HD
ENDBRANCH  16  20
ENDBRANCH  15  16
ENDBRANCH   2  15
BRANCH   5  22
ATOM     22  O   UNL     1       7.932   0.537  23.382  0.00  0.00    -0.278 OA
BRANCH  22  23
ATOM     23  P   UNL     1       7.051   1.853  22.686  0.00  0.00    +0.473 P 
ATOM     24  O   UNL     1       6.263   3.031  22.064  0.00  0.00    -0.228 OA
BRANCH  23  25
ATOM     25  O   UNL     1       7.673   2.730  23.923  0.00  0.00    -0.303 OA
ATOM     26  H   UNL     1       8.499   3.162  23.636  0.00  0.00    +0.222 HD
ENDBRANCH  23  25
BRANCH  23  27
ATOM     27  O   UNL     1       5.789   1.300  23.569  0.00  0.00    -0.303 OA
ATOM     28  H   UNL     1       5.055   1.204  22.933  0.00  0.00    +0.222 HD
ENDBRANCH  23  27
ENDBRANCH  22  23
ENDBRANCH   5  22
TORSDOF 12
ENDMDL
MODEL 3
REMARK VINA RESULT:      -5.5      2.466      3.362
REMARK  Name = 
REMARK  12 active torsions:
REMARK  status: ('A' for Active; 'I' for Inactive)
REMARK    1  A    between atoms: O_1  and  C_2
REMARK    2  A    between atoms: C_4  and  O_6
REMARK    3  A    between atoms: C_7  and  O_9
REMARK    4  A    between atoms: O_9  and  P_10
REMARK    5  A    between atoms: P_10  and  O_11
REMARK    6  A    between atoms: P_10  and  O_12
REMARK    7  A    between atoms: C_14  and  O_16
REMARK    8  A    between atoms: C_17  and  O_19
REMARK    9  A    between atoms: C_20  and  O_22
REMARK   10  A    between atoms: O_22  and  P_23
REMARK   11  A    between atoms: P_23  and  O_24
REMARK   12  A    between atoms: P_23  and  O_25
REMARK                            x       y       z     vdW  Elec       q    Type
REMARK                         _______ _______ _______ _____ _____    ______ ____
ROOT
ATOM      1  C   UNL     1      10.163   1.254  22.661  0.00  0.00    +0.177 C 
ATOM      2  C   UNL     1       8.811   0.489  22.710  0.00  0.00    +0.192 C 
ATOM      3  C   UNL     1       7.614   1.130  23.453  0.00  0.00    +0.177 C 
ATOM      4  C   UNL     1       8.012   1.981  24.681  0.00  0.00    +0.177 C 
ATOM      5  C   UNL     1       9.252   2.823  24.356  0.00  0.00    +0.192 C 
ATOM      6  C   UNL     1      10.456   1.957  24.001  0.00  0.00    +0.177 C 
ENDROOT
BRANCH   1   7
ATOM      7  O   UNL     1      10.193   2.083  21.498  0.00  0.00    -0.386 OA
ATOM      8  H   UNL     1       9.849   2.964  21.754  0.00  0.00    +0.210 HD
ENDBRANCH   1   7
BRANCH   3   9
ATOM      9  O   UNL     1       6.802   1.902  22.551  0.00  0.00    -0.386 OA
ATOM     10  H   UNL     1       5.989   2.117  23.049  0.00  0.00    +0.210 HD
ENDBRANCH   3   9
BRANCH   4  11
ATOM     11  O   UNL     1       8.286   1.176  25.828  0.00  0.00    -0.386 OA
ATOM     12  H   UNL     1       8.089   1.710  26.622  0.00  0.00    +0.210 HD
ENDBRANCH   4  11
BRANCH   6  13
ATOM     13  O   UNL     1      10.796   0.990  24.996  0.00  0.00    -0.386 OA
ATOM     14  H   UNL     1      10.050   0.346  25.066  0.00  0.00    +0.210 HD
ENDBRANCH   6  13
BRANCH   2  15
ATOM     15  O   UNL     1       9.002  -0.685  23.451  0.00  0.00    -0.278 OA
BRANCH  15  16
ATOM     16  P   UNL     1       8.343  -2.117  22.740  0.00  0.00    +0.473 P 
ATOM     17  O   UNL     1       7.754  -3.400  22.102  0.00  0.00    -0.228 OA
BRANCH  16  18
ATOM     18  O   UNL     1       9.290  -2.923  23.801  0.00  0.00    -0.303 OA
ATOM     19  H   UNL     1      10.154  -3.127  23.410  0.00  0.00    +0.222 HD
ENDBRANCH  16  18
BRANCH  16  20
ATOM     20  O   UNL     1       9.459  -1.928  21.570  0.00  0.00    -0.303 OA
ATOM     21  H   UNL     1       9.896  -1.061  21.634  0.00  0.00    +0.222 HD
ENDBRANCH  16  20
ENDBRANCH  15  16
ENDBRANCH   2  15
BRANCH   5  22
ATOM     22  O   UNL     1       9.022   3.591  23.188  0.00  0.00    -0.278 OA
BRANCH  22  23
ATOM     23  P   UNL     1       8.209   5.084  23.504  0.00  0.00    +0.473 P 
ATOM     24  O   UNL     1       7.481   6.422  23.786  0.00  0.00    -0.228 OA
BRANCH  23  25
ATOM     25  O   UNL     1       7.563   4.879  22.012  0.00  0.00    -0.303 OA
ATOM     26  H   UNL     1       8.128   5.315  21.347  0.00  0.00    +0.222 HD
ENDBRANCH  23  25
BRANCH  23  27
ATOM     27  O   UNL     1       9.571   5.792  22.936  0.00  0.00    -0.303 OA
ATOM     28  H   UNL     1       9.770   6.509  23.568  0.00  0.00    +0.222 HD
ENDBRANCH  23  27
ENDBRANCH  22  23
ENDBRANCH   5  22
TORSDOF 12
ENDMDL
MODEL 4
REMARK VINA RESULT:      -5.4      2.797      4.449
REMARK  Name = 
REMARK  12 active torsions:
REMARK  status: ('A' for Active; 'I' for Inactive)
REMARK    1  A    between atoms: O_1  and  C_2
REMARK    2  A    between atoms: C_4  and  O_6
REMARK    3  A    between atoms: C_7  and  O_9
REMARK    4  A    between atoms: O_9  and  P_10
REMARK    5  A    between atoms: P_10  and  O_11
REMARK    6  A    between atoms: P_10  and  O_12
REMARK    7  A    between atoms: C_14  and  O_16
REMARK    8  A    between atoms: C_17  and  O_19
REMARK    9  A    between atoms: C_20  and  O_22
REMARK   10  A    between atoms: O_22  and  P_23
REMARK   11  A    between atoms: P_23  and  O_24
REMARK   12  A    between atoms: P_23  and  O_25
REMARK                            x       y       z     vdW  Elec       q    Type
REMARK                         _______ _______ _______ _____ _____    ______ ____
ROOT
ATOM      1  C   UNL     1       7.385  -2.535  25.552  0.00  0.00    +0.177 C 
ATOM      2  C   UNL     1       7.811  -4.022  25.699  0.00  0.00    +0.192 C 
ATOM      3  C   UNL     1       8.401  -4.758  24.472  0.00  0.00    +0.177 C 
ATOM      4  C   UNL     1       7.811  -4.303  23.117  0.00  0.00    +0.177 C 
ATOM      5  C   UNL     1       7.662  -2.776  23.096  0.00  0.00    +0.192 C 
ATOM      6  C   UNL     1       6.719  -2.278  24.186  0.00  0.00    +0.177 C 
ENDROOT
BRANCH   1   7
ATOM      7  O   UNL     1       8.492  -1.693  25.878  0.00  0.00    -0.386 OA
ATOM      8  H   UNL     1       8.441  -1.496  26.836  0.00  0.00    +0.210 HD
ENDBRANCH   1   7
BRANCH   3   9
ATOM      9  O   UNL     1       9.835  -4.660  24.452  0.00  0.00    -0.386 OA
ATOM     10  H   UNL     1      10.108  -4.989  23.573  0.00  0.00    +0.210 HD
ENDBRANCH   3   9
BRANCH   4  11
ATOM     11  O   UNL     1       6.539  -4.897  22.856  0.00  0.00    -0.386 OA
ATOM     12  H   UNL     1       6.469  -5.705  23.399  0.00  0.00    +0.210 HD
ENDBRANCH   4  11
BRANCH   6  13
ATOM     13  O   UNL     1       5.421  -2.875  24.155  0.00  0.00    -0.386 OA
ATOM     14  H   UNL     1       5.113  -2.895  23.217  0.00  0.00    +0.210 HD
ENDBRANCH   6  13
BRANCH   2  15
ATOM     15  O   UNL     1       6.661  -4.782  25.953  0.00  0.00    -0.278 OA
BRANCH  15  16
ATOM     16  P   UNL     1       6.452  -5.269  27.600  0.00  0.00    +0.473 P 
ATOM     17  O   UNL     1       6.265  -5.707  29.074  0.00  0.00    -0.228 OA
BRANCH  16  18
ATOM     18  O   UNL     1       7.994  -5.806  27.500  0.00  0.00    -0.303 OA
ATOM     19  H   UNL     1       8.107  -6.629  28.000  0.00  0.00    +0.222 HD
ENDBRANCH  16  18
BRANCH  16  20
ATOM     20  O   UNL     1       5.730  -6.603  27.008  0.00  0.00    -0.303 OA
ATOM     21  H   UNL     1       4.795  -6.646  27.271  0.00  0.00    +0.222 HD
ENDBRANCH  16  20
ENDBRANCH  15  16
ENDBRANCH   2  15
BRANCH   5  22
ATOM     22  O   UNL     1       8.902  -2.166  23.406  0.00  0.00    -0.278 OA
BRANCH  22  23
ATOM     23  P   UNL     1       9.271  -0.816  22.389  0.00  0.00    +0.473 P 
ATOM     24  O   UNL     1       9.601   0.392  21.479  0.00  0.00    -0.228 OA
BRANCH  23  25
ATOM     25  O   UNL     1      10.489  -1.758  21.830  0.00  0.00    -0.303 OA
ATOM     26  H   UNL     1      10.669  -2.474  22.467  0.00  0.00    +0.222 HD
ENDBRANCH  23  25
BRANCH  23  27
ATOM     27  O   UNL     1      10.137  -0.263  23.664  0.00  0.00    -0.303 OA
ATOM     28  H   UNL     1       9.841   0.658  23.793  0.00  0.00    +0.222 HD
ENDBRANCH  23  27
ENDBRANCH  22  23
ENDBRANCH   5  22
TORSDOF 12
ENDMDL
MODEL 5
REMARK VINA RESULT:      -5.3      2.285      3.499
REMARK  Name = 
REMARK  12 active torsions:
REMARK  status: ('A' for Active; 'I' for Inactive)
REMARK    1  A    between atoms: O_1  and  C_2
REMARK    2  A    between atoms: C_4  and  O_6
REMARK    3  A    between atoms: C_7  and  O_9
REMARK    4  A    between atoms: O_9  and  P_10
REMARK    5  A    between atoms: P_10  and  O_11
REMARK    6  A    between atoms: P_10  and  O_12
REMARK    7  A    between atoms: C_14  and  O_16
REMARK    8  A    between atoms: C_17  and  O_19
REMARK    9  A    between atoms: C_20  and  O_22
REMARK   10  A    between atoms: O_22  and  P_23
REMARK   11  A    between atoms: P_23  and  O_24
REMARK   12  A    between atoms: P_23  and  O_25
REMARK                            x       y       z     vdW  Elec       q    Type
REMARK                         _______ _______ _______ _____ _____    ______ ____
ROOT
ATOM      1  C   UNL     1       6.459  -2.657  23.834  0.00  0.00    +0.177 C 
ATOM      2  C   UNL     1       6.861  -3.118  25.263  0.00  0.00    +0.192 C 
ATOM      3  C   UNL     1       8.294  -2.825  25.769  0.00  0.00    +0.177 C 
ATOM      4  C   UNL     1       9.375  -2.859  24.664  0.00  0.00    +0.177 C 
ATOM      5  C   UNL     1       8.854  -2.167  23.398  0.00  0.00    +0.192 C 
ATOM      6  C   UNL     1       7.616  -2.858  22.836  0.00  0.00    +0.177 C 
ENDROOT
BRANCH   1   7
ATOM      7  O   UNL     1       5.910  -1.340  23.901  0.00  0.00    -0.386 OA
ATOM      8  H   UNL     1       5.115  -1.322  23.328  0.00  0.00    +0.210 HD
ENDBRANCH   1   7
BRANCH   3   9
ATOM      9  O   UNL     1       8.344  -1.577  26.481  0.00  0.00    -0.386 OA
ATOM     10  H   UNL     1       9.233  -1.541  26.885  0.00  0.00    +0.210 HD
ENDBRANCH   3   9
BRANCH   4  11
ATOM     11  O   UNL     1       9.769  -4.191  24.335  0.00  0.00    -0.386 OA
ATOM     12  H   UNL     1       9.675  -4.301  23.369  0.00  0.00    +0.210 HD
ENDBRANCH   4  11
BRANCH   6  13
ATOM     13  O   UNL     1       7.794  -4.250  22.568  0.00  0.00    -0.386 OA
ATOM     14  H   UNL     1       6.905  -4.680  22.571  0.00  0.00    +0.210 HD
ENDBRANCH   6  13
BRANCH   2  15
ATOM     15  O   UNL     1       6.836  -4.519  25.292  0.00  0.00    -0.278 OA
BRANCH  15  16
ATOM     16  P   UNL     1       6.978  -5.222  26.866  0.00  0.00    +0.473 P 
ATOM     17  O   UNL     1       7.103  -5.853  28.275  0.00  0.00    -0.228 OA
BRANCH  16  18
ATOM     18  O   UNL     1       8.331  -5.932  26.284  0.00  0.00    -0.303 OA
ATOM     19  H   UNL     1       8.121  -6.776  25.853  0.00  0.00    +0.222 HD
ENDBRANCH  16  18
BRANCH  16  20
ATOM     20  O   UNL     1       5.917  -6.344  26.349  0.00  0.00    -0.303 OA
ATOM     21  H   UNL     1       5.473  -6.062  25.530  0.00  0.00    +0.222 HD
ENDBRANCH  16  20
ENDBRANCH  15  16
ENDBRANCH   2  15
BRANCH   5  22
ATOM     22  O   UNL     1       8.406  -0.859  23.712  0.00  0.00    -0.278 OA
BRANCH  22  23
ATOM     23  P   UNL     1       9.075   0.356  22.678  0.00  0.00    +0.473 P 
ATOM     24  O   UNL     1       9.672   1.444  21.753  0.00  0.00    -0.228 OA
BRANCH  23  25
ATOM     25  O   UNL     1       9.162   1.259  24.042  0.00  0.00    -0.303 OA
ATOM     26  H   UNL     1       8.361   1.809  24.124  0.00  0.00    +0.222 HD
ENDBRANCH  23  25
BRANCH  23  27
ATOM     27  O   UNL     1       7.518   0.765  22.377  0.00  0.00    -0.303 OA
ATOM     28  H   UNL     1       7.561   1.656  21.980  0.00  0.00    +0.222 HD
ENDBRANCH  23  27
ENDBRANCH  22  23
ENDBRANCH   5  22
TORSDOF 12
ENDMDL
MODEL 6
REMARK VINA RESULT:      -5.3      1.881      2.986
REMARK  Name = 
REMARK  12 active torsions:
REMARK  status: ('A' for Active; 'I' for Inactive)
REMARK    1  A    between atoms: O_1  and  C_2
REMARK    2  A    between atoms: C_4  and  O_6
REMARK    3  A    between atoms: C_7  and  O_9
REMARK    4  A    between atoms: O_9  and  P_10
REMARK    5  A    between atoms: P_10  and  O_11
REMARK    6  A    between atoms: P_10  and  O_12
REMARK    7  A    between atoms: C_14  and  O_16
REMARK    8  A    between atoms: C_17  and  O_19
REMARK    9  A    between atoms: C_20  and  O_22
REMARK   10  A    between atoms: O_22  and  P_23
REMARK   11  A    between atoms: P_23  and  O_24
REMARK   12  A    between atoms: P_23  and  O_25
REMARK                            x       y       z     vdW  Elec       q    Type
REMARK                         _______ _______ _______ _____ _____    ______ ____
ROOT
ATOM      1  C   UNL     1       7.226  -0.660  23.485  0.00  0.00    +0.177 C 
ATOM      2  C   UNL     1       7.856  -1.362  24.720  0.00  0.00    +0.192 C 
ATOM      3  C   UNL     1       9.342  -1.091  25.060  0.00  0.00    +0.177 C 
ATOM      4  C   UNL     1      10.240  -0.850  23.824  0.00  0.00    +0.177 C 
ATOM      5  C   UNL     1       9.511   0.041  22.810  0.00  0.00    +0.192 C 
ATOM      6  C   UNL     1       8.221  -0.600  22.309  0.00  0.00    +0.177 C 
ENDROOT
BRANCH   1   7
ATOM      7  O   UNL     1       6.658   0.586  23.890  0.00  0.00    -0.386 OA
ATOM      8  H   UNL     1       7.052   0.823  24.756  0.00  0.00    +0.210 HD
ENDBRANCH   1   7
BRANCH   3   9
ATOM      9  O   UNL     1       9.467  -0.001  25.989  0.00  0.00    -0.386 OA
ATOM     10  H   UNL     1       8.855  -0.211  26.723  0.00  0.00    +0.210 HD
ENDBRANCH   3   9
BRANCH   4  11
ATOM     11  O   UNL     1      10.615  -2.070  23.184  0.00  0.00    -0.386 OA
ATOM     12  H   UNL     1      11.573  -2.200  23.325  0.00  0.00    +0.210 HD
ENDBRANCH   4  11
BRANCH   6  13
ATOM     13  O   UNL     1       8.393  -1.902  21.748  0.00  0.00    -0.386 OA
ATOM     14  H   UNL     1       7.684  -2.044  21.075  0.00  0.00    +0.210 HD
ENDBRANCH   6  13
BRANCH   2  15
ATOM     15  O   UNL     1       7.875  -2.742  24.474  0.00  0.00    -0.278 OA
BRANCH  15  16
ATOM     16  P   UNL     1       8.496  -3.709  25.767  0.00  0.00    +0.473 P 
ATOM     17  O   UNL     1       9.051  -4.575  26.925  0.00  0.00    -0.228 OA
BRANCH  16  18
ATOM     18  O   UNL     1       9.405  -4.431  24.616  0.00  0.00    -0.303 OA
ATOM     19  H   UNL     1       9.269  -4.010  23.752  0.00  0.00    +0.222 HD
ENDBRANCH  16  18
BRANCH  16  20
ATOM     20  O   UNL     1       7.164  -4.627  25.585  0.00  0.00    -0.303 OA
ATOM     21  H   UNL     1       7.363  -5.448  25.101  0.00  0.00    +0.222 HD
ENDBRANCH  16  20
ENDBRANCH  15  16
ENDBRANCH   2  15
BRANCH   5  22
ATOM     22  O   UNL     1       9.082   1.236  23.439  0.00  0.00    -0.278 OA
BRANCH  22  23
ATOM     23  P   UNL     1      10.257   2.503  23.366  0.00  0.00    +0.473 P 
ATOM     24  O   UNL     1      11.309   3.638  23.300  0.00  0.00    -0.228 OA
BRANCH  23  25
ATOM     25  O   UNL     1       8.961   3.505  23.359  0.00  0.00    -0.303 OA
ATOM     26  H   UNL     1       8.162   3.009  23.616  0.00  0.00    +0.222 HD
ENDBRANCH  23  25
BRANCH  23  27
ATOM     27  O   UNL     1      10.218   2.264  21.747  0.00  0.00    -0.303 OA
ATOM     28  H   UNL     1      11.038   2.673  21.409  0.00  0.00    +0.222 HD
ENDBRANCH  23  27
ENDBRANCH  22  23
ENDBRANCH   5  22
TORSDOF 12
ENDMDL
MODEL 7
REMARK VINA RESULT:      -5.3      1.760      5.789
REMARK  Name = 
REMARK  12 active torsions:
REMARK  status: ('A' for Active; 'I' for Inactive)
REMARK    1  A    between atoms: O_1  and  C_2
REMARK    2  A    between atoms: C_4  and  O_6
REMARK    3  A    between atoms: C_7  and  O_9
REMARK    4  A    between atoms: O_9  and  P_10
REMARK    5  A    between atoms: P_10  and  O_11
REMARK    6  A    between atoms: P_10  and  O_12
REMARK    7  A    between atoms: C_14  and  O_16
REMARK    8  A    between atoms: C_17  and  O_19
REMARK    9  A    between atoms: C_20  and  O_22
REMARK   10  A    between atoms: O_22  and  P_23
REMARK   11  A    between atoms: P_23  and  O_24
REMARK   12  A    between atoms: P_23  and  O_25
REMARK                            x       y       z     vdW  Elec       q    Type
REMARK                         _______ _______ _______ _____ _____    ______ ____
ROOT
ATOM      1  C   UNL     1       7.347  -1.513  23.153  0.00  0.00    +0.177 C 
ATOM      2  C   UNL     1       8.542  -0.716  22.562  0.00  0.00    +0.192 C 
ATOM      3  C   UNL     1       9.937  -0.858  23.219  0.00  0.00    +0.177 C 
ATOM      4  C   UNL     1       9.896  -1.078  24.749  0.00  0.00    +0.177 C 
ATOM      5  C   UNL     1       8.775  -2.062  25.109  0.00  0.00    +0.192 C 
ATOM      6  C   UNL     1       7.403  -1.543  24.693  0.00  0.00    +0.177 C 
ENDROOT
BRANCH   1   7
ATOM      7  O   UNL     1       7.259  -2.782  22.504  0.00  0.00    -0.386 OA
ATOM      8  H   UNL     1       7.931  -3.369  22.909  0.00  0.00    +0.210 HD
ENDBRANCH   1   7
BRANCH   3   9
ATOM      9  O   UNL     1      10.701  -1.897  22.584  0.00  0.00    -0.386 OA
ATOM     10  H   UNL     1      10.201  -2.135  21.778  0.00  0.00    +0.210 HD
ENDBRANCH   3   9
BRANCH   4  11
ATOM     11  O   UNL     1       9.690   0.141  25.463  0.00  0.00    -0.386 OA
ATOM     12  H   UNL     1       9.519   0.846  24.809  0.00  0.00    +0.210 HD
ENDBRANCH   4  11
BRANCH   6  13
ATOM     13  O   UNL     1       7.080  -0.255  25.219  0.00  0.00    -0.386 OA
ATOM     14  H   UNL     1       6.278   0.078  24.749  0.00  0.00    +0.210 HD
ENDBRANCH   6  13
BRANCH   2  15
ATOM     15  O   UNL     1       8.288   0.650  22.743  0.00  0.00    -0.278 OA
BRANCH  15  16
ATOM     16  P   UNL     1       9.608   1.700  22.361  0.00  0.00    +0.473 P 
ATOM     17  O   UNL     1      10.790   2.640  22.017  0.00  0.00    -0.228 OA
BRANCH  16  18
ATOM     18  O   UNL     1       9.222   2.476  23.747  0.00  0.00    -0.303 OA
ATOM     19  H   UNL     1       9.995   2.936  24.114  0.00  0.00    +0.222 HD
ENDBRANCH  16  18
BRANCH  16  20
ATOM     20  O   UNL     1       8.569   2.487  21.387  0.00  0.00    -0.303 OA
ATOM     21  H   UNL     1       8.764   3.440  21.357  0.00  0.00    +0.222 HD
ENDBRANCH  16  20
ENDBRANCH  15  16
ENDBRANCH   2  15
BRANCH   5  22
ATOM     22  O   UNL     1       8.930  -3.261  24.369  0.00  0.00    -0.278 OA
BRANCH  22  23
ATOM     23  P   UNL     1       8.583  -4.681  25.294  0.00  0.00    +0.473 P 
ATOM     24  O   UNL     1       8.273  -5.952  26.121  0.00  0.00    -0.228 OA
BRANCH  23  25
ATOM     25  O   UNL     1      10.102  -5.139  24.885  0.00  0.00    -0.303 OA
ATOM     26  H   UNL     1      10.259  -6.055  25.180  0.00  0.00    +0.222 HD
ENDBRANCH  23  25
BRANCH  23  27
ATOM     27  O   UNL     1       7.920  -5.256  23.912  0.00  0.00    -0.303 OA
ATOM     28  H   UNL     1       8.554  -5.022  23.208  0.00  0.00    +0.222 HD
ENDBRANCH  23  27
ENDBRANCH  22  23
ENDBRANCH   5  22
TORSDOF 12
ENDMDL
MODEL 8
REMARK VINA RESULT:      -5.3      2.333      3.696
REMARK  Name = 
REMARK  12 active torsions:
REMARK  status: ('A' for Active; 'I' for Inactive)
REMARK    1  A    between atoms: O_1  and  C_2
REMARK    2  A    between atoms: C_4  and  O_6
REMARK    3  A    between atoms: C_7  and  O_9
REMARK    4  A    between atoms: O_9  and  P_10
REMARK    5  A    between atoms: P_10  and  O_11
REMARK    6  A    between atoms: P_10  and  O_12
REMARK    7  A    between atoms: C_14  and  O_16
REMARK    8  A    between atoms: C_17  and  O_19
REMARK    9  A    between atoms: C_20  and  O_22
REMARK   10  A    between atoms: O_22  and  P_23
REMARK   11  A    between atoms: P_23  and  O_24
REMARK   12  A    between atoms: P_23  and  O_25
REMARK                            x       y       z     vdW  Elec       q    Type
REMARK                         _______ _______ _______ _____ _____    ______ ____
ROOT
ATOM      1  C   UNL     1       8.495  -3.197  24.948  0.00  0.00    +0.177 C 
ATOM      2  C   UNL     1       7.386  -4.070  24.298  0.00  0.00    +0.192 C 
ATOM      3  C   UNL     1       6.507  -3.456  23.181  0.00  0.00    +0.177 C 
ATOM      4  C   UNL     1       6.235  -1.943  23.351  0.00  0.00    +0.177 C 
ATOM      5  C   UNL     1       7.514  -1.226  23.800  0.00  0.00    +0.192 C 
ATOM      6  C   UNL     1       8.020  -1.744  25.143  0.00  0.00    +0.177 C 
ENDROOT
BRANCH   1   7
ATOM      7  O   UNL     1       9.714  -3.367  24.225  0.00  0.00    -0.386 OA
ATOM      8  H   UNL     1      10.073  -2.475  24.037  0.00  0.00    +0.210 HD
ENDBRANCH   1   7
BRANCH   3   9
ATOM      9  O   UNL     1       7.063  -3.722  21.883  0.00  0.00    -0.386 OA
ATOM     10  H   UNL     1       7.114  -4.696  21.814  0.00  0.00    +0.210 HD
ENDBRANCH   3   9
BRANCH   4  11
ATOM     11  O   UNL     1       5.200  -1.684  24.301  0.00  0.00    -0.386 OA
ATOM     12  H   UNL     1       5.049  -2.505  24.809  0.00  0.00    +0.210 HD
ENDBRANCH   4  11
BRANCH   6  13
ATOM     13  O   UNL     1       7.055  -1.682  26.195  0.00  0.00    -0.386 OA
ATOM     14  H   UNL     1       7.096  -0.782  26.598  0.00  0.00    +0.210 HD
ENDBRANCH   6  13
BRANCH   2  15
ATOM     15  O   UNL     1       6.428  -4.360  25.278  0.00  0.00    -0.278 OA
BRANCH  15  16
ATOM     16  P   UNL     1       7.022  -5.226  26.652  0.00  0.00    +0.473 P 
ATOM     17  O   UNL     1       7.554  -6.001  27.884  0.00  0.00    -0.228 OA
BRANCH  16  18
ATOM     18  O   UNL     1       5.839  -6.304  26.321  0.00  0.00    -0.303 OA
ATOM     19  H   UNL     1       5.388  -6.585  27.134  0.00  0.00    +0.222 HD
ENDBRANCH  16  18
BRANCH  16  20
ATOM     20  O   UNL     1       6.129  -4.208  27.555  0.00  0.00    -0.303 OA
ATOM     21  H   UNL     1       6.683  -3.528  27.976  0.00  0.00    +0.222 HD
ENDBRANCH  16  20
ENDBRANCH  15  16
ENDBRANCH   2  15
BRANCH   5  22
ATOM     22  O   UNL     1       8.570  -1.513  22.900  0.00  0.00    -0.278 OA
BRANCH  22  23
ATOM     23  P   UNL     1       9.353  -0.095  22.294  0.00  0.00    +0.473 P 
ATOM     24  O   UNL     1      10.054   1.174  21.751  0.00  0.00    -0.228 OA
BRANCH  23  25
ATOM     25  O   UNL     1       9.734  -1.034  21.006  0.00  0.00    -0.303 OA
ATOM     26  H   UNL     1      10.479  -1.619  21.236  0.00  0.00    +0.222 HD
ENDBRANCH  23  25
BRANCH  23  27
ATOM     27  O   UNL     1      10.640  -0.592  23.175  0.00  0.00    -0.303 OA
ATOM     28  H   UNL     1      11.270  -0.956  22.523  0.00  0.00    +0.222 HD
ENDBRANCH  23  27
ENDBRANCH  22  23
ENDBRANCH   5  22
TORSDOF 12
ENDMDL
MODEL 9
REMARK VINA RESULT:      -5.3      2.407      6.447
REMARK  Name = 
REMARK  12 active torsions:
REMARK  status: ('A' for Active; 'I' for Inactive)
REMARK    1  A    between atoms: O_1  and  C_2
REMARK    2  A    between atoms: C_4  and  O_6
REMARK    3  A    between atoms: C_7  and  O_9
REMARK    4  A    between atoms: O_9  and  P_10
REMARK    5  A    between atoms: P_10  and  O_11
REMARK    6  A    between atoms: P_10  and  O_12
REMARK    7  A    between atoms: C_14  and  O_16
REMARK    8  A    between atoms: C_17  and  O_19
REMARK    9  A    between atoms: C_20  and  O_22
REMARK   10  A    between atoms: O_22  and  P_23
REMARK   11  A    between atoms: P_23  and  O_24
REMARK   12  A    between atoms: P_23  and  O_25
REMARK                            x       y       z     vdW  Elec       q    Type
REMARK                         _______ _______ _______ _____ _____    ______ ____
ROOT
ATOM      1  C   UNL     1       6.576  -2.551  23.740  0.00  0.00    +0.177 C 
ATOM      2  C   UNL     1       7.353  -3.060  22.494  0.00  0.00    +0.192 C 
ATOM      3  C   UNL     1       7.534  -4.585  22.295  0.00  0.00    +0.177 C 
ATOM      4  C   UNL     1       7.670  -5.384  23.611  0.00  0.00    +0.177 C 
ATOM      5  C   UNL     1       6.668  -4.860  24.649  0.00  0.00    +0.192 C 
ATOM      6  C   UNL     1       6.908  -3.393  24.988  0.00  0.00    +0.177 C 
ENDROOT
BRANCH   1   7
ATOM      7  O   UNL     1       5.190  -2.432  23.415  0.00  0.00    -0.386 OA
ATOM      8  H   UNL     1       4.723  -2.129  24.221  0.00  0.00    +0.210 HD
ENDBRANCH   1   7
BRANCH   3   9
ATOM      9  O   UNL     1       6.476  -5.127  21.486  0.00  0.00    -0.386 OA
ATOM     10  H   UNL     1       6.691  -6.075  21.374  0.00  0.00    +0.210 HD
ENDBRANCH   3   9
BRANCH   4  11
ATOM     11  O   UNL     1       8.987  -5.304  24.157  0.00  0.00    -0.386 OA
ATOM     12  H   UNL     1       9.434  -6.155  23.985  0.00  0.00    +0.210 HD
ENDBRANCH   4  11
BRANCH   6  13
ATOM     13  O   UNL     1       8.235  -3.104  25.432  0.00  0.00    -0.386 OA
ATOM     14  H   UNL     1       8.318  -2.126  25.539  0.00  0.00    +0.210 HD
ENDBRANCH   6  13
BRANCH   2  15
ATOM     15  O   UNL     1       8.683  -2.634  22.606  0.00  0.00    -0.278 OA
BRANCH  15  16
ATOM     16  P   UNL     1       8.953  -0.966  22.238  0.00  0.00    +0.473 P 
ATOM     17  O   UNL     1       9.196   0.528  21.909  0.00  0.00    -0.228 OA
BRANCH  16  18
ATOM     18  O   UNL     1      10.287  -1.491  21.451  0.00  0.00    -0.303 OA
ATOM     19  H   UNL     1      10.190  -1.380  20.492  0.00  0.00    +0.222 HD
ENDBRANCH  16  18
BRANCH  16  20
ATOM     20  O   UNL     1       9.619  -0.851  23.719  0.00  0.00    -0.303 OA
ATOM     21  H   UNL     1       9.053  -1.262  24.395  0.00  0.00    +0.222 HD
ENDBRANCH  16  20
ENDBRANCH  15  16
ENDBRANCH   2  15
BRANCH   5  22
ATOM     22  O   UNL     1       5.358  -4.880  24.108  0.00  0.00    -0.278 OA
BRANCH  22  23
ATOM     23  P   UNL     1       4.548  -6.390  24.342  0.00  0.00    +0.473 P 
ATOM     24  O   UNL     1       3.821  -7.741  24.551  0.00  0.00    -0.228 OA
BRANCH  23  25
ATOM     25  O   UNL     1       4.238  -6.304  22.735  0.00  0.00    -0.303 OA
ATOM     26  H   UNL     1       3.822  -7.134  22.437  0.00  0.00    +0.222 HD
ENDBRANCH  23  25
BRANCH  23  27
ATOM     27  O   UNL     1       3.251  -5.478  24.751  0.00  0.00    -0.303 OA
ATOM     28  H   UNL     1       3.250  -4.736  24.116  0.00  0.00    +0.222 HD
ENDBRANCH  23  27
ENDBRANCH  22  23
ENDBRANCH   5  22
TORSDOF 12
ENDMDL
