MODEL 1
REMARK VINA RESULT:      -5.5      0.000      0.000
REMARK  Name = 
REMARK  21 active torsions:
REMARK  status: ('A' for Active; 'I' for Inactive)
REMARK    1  A    between atoms: C_1  and  C_2
REMARK    2  A    between atoms: C_2  and  C_3
REMARK    3  A    between atoms: C_2  and  C_4
REMARK    4  A    between atoms: C_2  and  C_5
REMARK    5  A    between atoms: C_5  and  C_6
REMARK    6  A    between atoms: C_6  and  C_7
REMARK    7  A    between atoms: C_6  and  C_8
REMARK    8  A    between atoms: C_6  and  C_9
REMARK    9  A    between atoms: C_12  and  O_13
REMARK   10  A    between atoms: O_13  and  C_14
REMARK   11  A    between atoms: C_14  and  C_15
REMARK   12  A    between atoms: C_15  and  O_16
REMARK   13  A    between atoms: O_16  and  C_17
REMARK   14  A    between atoms: C_17  and  C_18
REMARK   15  A    between atoms: C_18  and  O_19
REMARK   16  A    between atoms: O_19  and  C_20
REMARK   17  A    between atoms: C_20  and  C_21
REMARK   18  A    between atoms: C_21  and  O_22
REMARK   19  A    between atoms: O_22  and  C_23
REMARK   20  A    between atoms: C_23  and  C_24
REMARK   21  A    between atoms: C_24  and  O_25
REMARK                            x       y       z     vdW  Elec       q    Type
REMARK                         _______ _______ _______ _____ _____    ______ ____
ROOT
ATOM      1  C   UNL     1       8.808  -2.968  24.834  0.00  0.00    -0.041 A 
ATOM      2  C   UNL     1       8.492  -2.059  25.865  0.00  0.00    +0.008 A 
ATOM      3  C   UNL     1       9.000  -0.753  25.876  0.00  0.00    +0.046 A 
ATOM      4  C   UNL     1       9.825  -0.320  24.845  0.00  0.00    +0.121 A 
ATOM      5  C   UNL     1      10.119  -1.188  23.799  0.00  0.00    +0.046 A 
ATOM      6  C   UNL     1       9.618  -2.491  23.794  0.00  0.00    +0.008 A 
ENDROOT
BRANCH   1   7
ATOM      7  C   UNL     1       8.297  -4.438  24.900  0.00  0.00    -0.009 C 
ATOM      8  C   UNL     1       9.495  -5.331  25.279  0.00  0.00    +0.016 C 
ATOM      9  C   UNL     1       7.245  -4.604  26.016  0.00  0.00    +0.016 C 
BRANCH   7  10
ATOM     10  C   UNL     1       7.705  -4.783  23.478  0.00  0.00    +0.017 C 
BRANCH  10  12
ATOM     11  C   UNL     1       5.856  -2.969  23.317  0.00  0.00    +0.010 C 
ATOM     12  C   UNL     1       6.256  -4.417  22.995  0.00  0.00    -0.037 C 
ATOM     13  C   UNL     1       6.244  -4.539  21.447  0.00  0.00    +0.010 C 
ATOM     14  C   UNL     1       5.186  -5.381  23.522  0.00  0.00    +0.010 C 
ENDBRANCH  10  12
ENDBRANCH   7  10
ENDBRANCH   1   7
BRANCH   4  15
ATOM     15  O   UNL     1      10.454   0.887  24.776  0.00  0.00    -0.490 OA
BRANCH  15  16
ATOM     16  C   UNL     1      10.317   1.616  23.559  0.00  0.00    +0.257 C 
BRANCH  16  17
ATOM     17  C   UNL     1       9.007   2.409  23.634  0.00  0.00    +0.201 C 
BRANCH  17  18
ATOM     18  O   UNL     1       8.807   3.096  24.875  0.00  0.00    -0.374 OA
BRANCH  18  19
ATOM     19  C   UNL     1       7.490   3.607  25.037  0.00  0.00    +0.188 C 
BRANCH  19  20
ATOM     20  C   UNL     1       7.541   4.971  25.711  0.00  0.00    +0.188 C 
BRANCH  20  21
ATOM     21  O   UNL     1       8.912   5.311  25.910  0.00  0.00    -0.375 OA
BRANCH  21  22
ATOM     22  C   UNL     1       9.156   6.688  25.655  0.00  0.00    +0.188 C 
BRANCH  22  23
ATOM     23  C   UNL     1       9.991   6.793  24.379  0.00  0.00    +0.188 C 
BRANCH  23  24
ATOM     24  O   UNL     1      10.738   5.593  24.194  0.00  0.00    -0.375 OA
BRANCH  24  25
ATOM     25  C   UNL     1      12.143   5.869  24.133  0.00  0.00    +0.187 C 
BRANCH  25  26
ATOM     26  C   UNL     1      12.750   4.994  23.042  0.00  0.00    +0.184 C 
BRANCH  26  27
ATOM     27  O   UNL     1      14.173   5.094  23.076  0.00  0.00    -0.393 OA
ATOM     28  H   UNL     1      14.437   5.266  22.151  0.00  0.00    +0.209 HD
ENDBRANCH  26  27
ENDBRANCH  25  26
ENDBRANCH  24  25
ENDBRANCH  23  24
ENDBRANCH  22  23
ENDBRANCH  21  22
ENDBRANCH  20  21
ENDBRANCH  19  20
ENDBRANCH  18  19
ENDBRANCH  17  18
ENDBRANCH  16  17
ENDBRANCH  15  16
ENDBRANCH   4  15
TORSDOF 16
ENDMDL
MODEL 2
REMARK VINA RESULT:      -5.5      4.713      8.653
REMARK  Name = 
REMARK  21 active torsions:
REMARK  status: ('A' for Active; 'I' for Inactive)
REMARK    1  A    between atoms: C_1  and  C_2
REMARK    2  A    between atoms: C_2  and  C_3
REMARK    3  A    between atoms: C_2  and  C_4
REMARK    4  A    between atoms: C_2  and  C_5
REMARK    5  A    between atoms: C_5  and  C_6
REMARK    6  A    between atoms: C_6  and  C_7
REMARK    7  A    between atoms: C_6  and  C_8
REMARK    8  A    between atoms: C_6  and  C_9
REMARK    9  A    between atoms: C_12  and  O_13
REMARK   10  A    between atoms: O_13  and  C_14
REMARK   11  A    between atoms: C_14  and  C_15
REMARK   12  A    between atoms: C_15  and  O_16
REMARK   13  A    between atoms: O_16  and  C_17
REMARK   14  A    between atoms: C_17  and  C_18
REMARK   15  A    between atoms: C_18  and  O_19
REMARK   16  A    between atoms: O_19  and  C_20
REMARK   17  A    between atoms: C_20  and  C_21
REMARK   18  A    between atoms: C_21  and  O_22
REMARK   19  A    between atoms: O_22  and  C_23
REMARK   20  A    between atoms: C_23  and  C_24
REMARK   21  A    between atoms: C_24  and  O_25
REMARK                            x       y       z     vdW  Elec       q    Type
REMARK                         _______ _______ _______ _____ _____    ______ ____
ROOT
ATOM      1  C   UNL     1       7.926  -1.285  23.775  0.00  0.00    -0.041 A 
ATOM      2  C   UNL     1       6.646  -1.368  24.363  0.00  0.00    +0.008 A 
ATOM      3  C   UNL     1       5.668  -2.247  23.876  0.00  0.00    +0.046 A 
ATOM      4  C   UNL     1       5.955  -3.077  22.798  0.00  0.00    +0.121 A 
ATOM      5  C   UNL     1       7.222  -3.037  22.228  0.00  0.00    +0.046 A 
ATOM      6  C   UNL     1       8.192  -2.156  22.708  0.00  0.00    +0.008 A 
ENDROOT
BRANCH   1   7
ATOM      7  C   UNL     1       8.957  -0.235  24.285  0.00  0.00    -0.009 C 
ATOM      8  C   UNL     1       9.155  -0.474  25.796  0.00  0.00    +0.016 C 
ATOM      9  C   UNL     1      10.331  -0.445  23.616  0.00  0.00    +0.016 C 
BRANCH   7  10
ATOM     10  C   UNL     1       8.358   1.190  23.967  0.00  0.00    +0.017 C 
BRANCH  10  12
ATOM     11  C   UNL     1      10.298   2.507  22.852  0.00  0.00    +0.010 C 
ATOM     12  C   UNL     1       8.815   2.111  22.779  0.00  0.00    -0.037 C 
ATOM     13  C   UNL     1       8.648   1.289  21.472  0.00  0.00    +0.010 C 
ATOM     14  C   UNL     1       7.949   3.367  22.625  0.00  0.00    +0.010 C 
ENDBRANCH  10  12
ENDBRANCH   7  10
ENDBRANCH   1   7
BRANCH   4  15
ATOM     15  O   UNL     1       5.075  -3.910  22.174  0.00  0.00    -0.490 OA
BRANCH  15  16
ATOM     16  C   UNL     1       5.393  -5.300  22.176  0.00  0.00    +0.257 C 
BRANCH  16  17
ATOM     17  C   UNL     1       4.435  -5.997  23.148  0.00  0.00    +0.201 C 
BRANCH  17  18
ATOM     18  O   UNL     1       4.867  -5.976  24.514  0.00  0.00    -0.374 OA
BRANCH  18  19
ATOM     19  C   UNL     1       4.273  -6.992  25.314  0.00  0.00    +0.188 C 
BRANCH  19  20
ATOM     20  C   UNL     1       4.287  -6.574  26.777  0.00  0.00    +0.188 C 
BRANCH  20  21
ATOM     21  O   UNL     1       5.523  -7.003  27.345  0.00  0.00    -0.375 OA
BRANCH  21  22
ATOM     22  C   UNL     1       6.066  -6.027  28.225  0.00  0.00    +0.188 C 
BRANCH  22  23
ATOM     23  C   UNL     1       6.862  -5.025  27.389  0.00  0.00    +0.188 C 
BRANCH  23  24
ATOM     24  O   UNL     1       7.834  -5.717  26.608  0.00  0.00    -0.375 OA
BRANCH  24  25
ATOM     25  C   UNL     1       8.012  -5.085  25.334  0.00  0.00    +0.187 C 
BRANCH  25  26
ATOM     26  C   UNL     1       9.434  -4.541  25.271  0.00  0.00    +0.184 C 
BRANCH  26  27
ATOM     27  O   UNL     1      10.369  -5.614  25.379  0.00  0.00    -0.393 OA
ATOM     28  H   UNL     1      11.167  -5.303  24.910  0.00  0.00    +0.209 HD
ENDBRANCH  26  27
ENDBRANCH  25  26
ENDBRANCH  24  25
ENDBRANCH  23  24
ENDBRANCH  22  23
ENDBRANCH  21  22
ENDBRANCH  20  21
ENDBRANCH  19  20
ENDBRANCH  18  19
ENDBRANCH  17  18
ENDBRANCH  16  17
ENDBRANCH  15  16
ENDBRANCH   4  15
TORSDOF 16
ENDMDL
MODEL 3
REMARK VINA RESULT:      -5.5      1.326      2.557
REMARK  Name = 
REMARK  21 active torsions:
REMARK  status: ('A' for Active; 'I' for Inactive)
REMARK    1  A    between atoms: C_1  and  C_2
REMARK    2  A    between atoms: C_2  and  C_3
REMARK    3  A    between atoms: C_2  and  C_4
REMARK    4  A    between atoms: C_2  and  C_5
REMARK    5  A    between atoms: C_5  and  C_6
REMARK    6  A    between atoms: C_6  and  C_7
REMARK    7  A    between atoms: C_6  and  C_8
REMARK    8  A    between atoms: C_6  and  C_9
REMARK    9  A    between atoms: C_12  and  O_13
REMARK   10  A    between atoms: O_13  and  C_14
REMARK   11  A    between atoms: C_14  and  C_15
REMARK   12  A    between atoms: C_15  and  O_16
REMARK   13  A    between atoms: O_16  and  C_17
REMARK   14  A    between atoms: C_17  and  C_18
REMARK   15  A    between atoms: C_18  and  O_19
REMARK   16  A    between atoms: O_19  and  C_20
REMARK   17  A    between atoms: C_20  and  C_21
REMARK   18  A    between atoms: C_21  and  O_22
REMARK   19  A    between atoms: O_22  and  C_23
REMARK   20  A    between atoms: C_23  and  C_24
REMARK   21  A    between atoms: C_24  and  O_25
REMARK                            x       y       z     vdW  Elec       q    Type
REMARK                         _______ _______ _______ _____ _____    ______ ____
ROOT
ATOM      1  C   UNL     1       7.993  -2.596  23.566  0.00  0.00    -0.041 A 
ATOM      2  C   UNL     1       8.715  -2.295  22.392  0.00  0.00    +0.008 A 
ATOM      3  C   UNL     1       9.731  -1.330  22.379  0.00  0.00    +0.046 A 
ATOM      4  C   UNL     1      10.061  -0.653  23.547  0.00  0.00    +0.121 A 
ATOM      5  C   UNL     1       9.388  -0.961  24.725  0.00  0.00    +0.046 A 
ATOM      6  C   UNL     1       8.370  -1.917  24.734  0.00  0.00    +0.008 A 
ENDROOT
BRANCH   1   7
ATOM      7  C   UNL     1       6.812  -3.610  23.524  0.00  0.00    -0.009 C 
ATOM      8  C   UNL     1       5.777  -3.077  22.512  0.00  0.00    +0.016 C 
ATOM      9  C   UNL     1       7.285  -4.981  22.998  0.00  0.00    +0.016 C 
BRANCH   7  10
ATOM     10  C   UNL     1       6.236  -3.708  24.990  0.00  0.00    +0.017 C 
BRANCH  10  12
ATOM     11  C   UNL     1       8.012  -5.325  25.974  0.00  0.00    +0.010 C 
ATOM     12  C   UNL     1       6.545  -4.871  26.000  0.00  0.00    -0.037 C 
ATOM     13  C   UNL     1       6.285  -4.319  27.428  0.00  0.00    +0.010 C 
ATOM     14  C   UNL     1       5.623  -6.083  25.820  0.00  0.00    +0.010 C 
ENDBRANCH  10  12
ENDBRANCH   7  10
ENDBRANCH   1   7
BRANCH   4  15
ATOM     15  O   UNL     1      10.961   0.364  23.656  0.00  0.00    -0.490 OA
BRANCH  15  16
ATOM     16  C   UNL     1      10.444   1.651  23.986  0.00  0.00    +0.257 C 
BRANCH  16  17
ATOM     17  C   UNL     1       9.594   2.129  22.803  0.00  0.00    +0.201 C 
BRANCH  17  18
ATOM     18  O   UNL     1       8.246   2.472  23.149  0.00  0.00    -0.374 OA
BRANCH  18  19
ATOM     19  C   UNL     1       7.680   3.471  22.309  0.00  0.00    +0.188 C 
BRANCH  19  20
ATOM     20  C   UNL     1       7.513   4.768  23.087  0.00  0.00    +0.188 C 
BRANCH  20  21
ATOM     21  O   UNL     1       8.123   4.597  24.364  0.00  0.00    -0.375 OA
BRANCH  21  22
ATOM     22  C   UNL     1       8.810   5.770  24.783  0.00  0.00    +0.188 C 
BRANCH  22  23
ATOM     23  C   UNL     1       9.861   6.106  23.726  0.00  0.00    +0.188 C 
BRANCH  23  24
ATOM     24  O   UNL     1      10.956   5.199  23.833  0.00  0.00    -0.375 OA
BRANCH  24  25
ATOM     25  C   UNL     1      12.204   5.904  23.860  0.00  0.00    +0.187 C 
BRANCH  25  26
ATOM     26  C   UNL     1      13.046   5.421  22.684  0.00  0.00    +0.184 C 
BRANCH  26  27
ATOM     27  O   UNL     1      14.338   5.026  23.143  0.00  0.00    -0.393 OA
ATOM     28  H   UNL     1      14.961   5.635  22.702  0.00  0.00    +0.209 HD
ENDBRANCH  26  27
ENDBRANCH  25  26
ENDBRANCH  24  25
ENDBRANCH  23  24
ENDBRANCH  22  23
ENDBRANCH  21  22
ENDBRANCH  20  21
ENDBRANCH  19  20
ENDBRANCH  18  19
ENDBRANCH  17  18
ENDBRANCH  16  17
ENDBRANCH  15  16
ENDBRANCH   4  15
TORSDOF 16
ENDMDL
MODEL 4
REMARK VINA RESULT:      -5.5      4.353      8.622
REMARK  Name = 
REMARK  21 active torsions:
REMARK  status: ('A' for Active; 'I' for Inactive)
REMARK    1  A    between atoms: C_1  and  C_2
REMARK    2  A    between atoms: C_2  and  C_3
REMARK    3  A    between atoms: C_2  and  C_4
REMARK    4  A    between atoms: C_2  and  C_5
REMARK    5  A    between atoms: C_5  and  C_6
REMARK    6  A    between atoms: C_6  and  C_7
REMARK    7  A    between atoms: C_6  and  C_8
REMARK    8  A    between atoms: C_6  and  C_9
REMARK    9  A    between atoms: C_12  and  O_13
REMARK   10  A    between atoms: O_13  and  C_14
REMARK   11  A    between atoms: C_14  and  C_15
REMARK   12  A    between atoms: C_15  and  O_16
REMARK   13  A    between atoms: O_16  and  C_17
REMARK   14  A    between atoms: C_17  and  C_18
REMARK   15  A    between atoms: C_18  and  O_19
REMARK   16  A    between atoms: O_19  and  C_20
REMARK   17  A    between atoms: C_20  and  C_21
REMARK   18  A    between atoms: C_21  and  O_22
REMARK   19  A    between atoms: O_22  and  C_23
REMARK   20  A    between atoms: C_23  and  C_24
REMARK   21  A    between atoms: C_24  and  O_25
REMARK                            x       y       z     vdW  Elec       q    Type
REMARK                         _______ _______ _______ _____ _____    ______ ____
ROOT
ATOM      1  C   UNL     1       8.907  -0.044  23.403  0.00  0.00    -0.041 A 
ATOM      2  C   UNL     1       9.268  -0.961  22.393  0.00  0.00    +0.008 A 
ATOM      3  C   UNL     1       8.615  -2.193  22.250  0.00  0.00    +0.046 A 
ATOM      4  C   UNL     1       7.573  -2.530  23.106  0.00  0.00    +0.121 A 
ATOM      5  C   UNL     1       7.176  -1.625  24.084  0.00  0.00    +0.046 A 
ATOM      6  C   UNL     1       7.832  -0.402  24.230  0.00  0.00    +0.008 A 
ENDROOT
BRANCH   1   7
ATOM      7  C   UNL     1       9.711   1.277  23.587  0.00  0.00    -0.009 C 
ATOM      8  C   UNL     1      10.979   0.940  24.398  0.00  0.00    +0.016 C 
ATOM      9  C   UNL     1      10.185   1.826  22.226  0.00  0.00    +0.016 C 
BRANCH   7  10
ATOM     10  C   UNL     1       8.763   2.293  24.335  0.00  0.00    +0.017 C 
BRANCH  10  12
ATOM     11  C   UNL     1       7.213   2.738  22.301  0.00  0.00    +0.010 C 
ATOM     12  C   UNL     1       7.769   3.281  23.626  0.00  0.00    -0.037 C 
ATOM     13  C   UNL     1       6.548   3.459  24.569  0.00  0.00    +0.010 C 
ATOM     14  C   UNL     1       8.364   4.677  23.406  0.00  0.00    +0.010 C 
ENDBRANCH  10  12
ENDBRANCH   7  10
ENDBRANCH   1   7
BRANCH   4  15
ATOM     15  O   UNL     1       6.915  -3.723  23.133  0.00  0.00    -0.490 OA
BRANCH  15  16
ATOM     16  C   UNL     1       6.581  -4.304  21.874  0.00  0.00    +0.257 C 
BRANCH  16  17
ATOM     17  C   UNL     1       5.596  -5.449  22.135  0.00  0.00    +0.201 C 
BRANCH  17  18
ATOM     18  O   UNL     1       4.305  -5.022  22.587  0.00  0.00    -0.374 OA
BRANCH  18  19
ATOM     19  C   UNL     1       3.755  -5.853  23.602  0.00  0.00    +0.188 C 
BRANCH  19  20
ATOM     20  C   UNL     1       4.864  -6.379  24.500  0.00  0.00    +0.188 C 
BRANCH  20  21
ATOM     21  O   UNL     1       5.102  -5.410  25.519  0.00  0.00    -0.375 OA
BRANCH  21  22
ATOM     22  C   UNL     1       5.840  -5.954  26.605  0.00  0.00    +0.188 C 
BRANCH  22  23
ATOM     23  C   UNL     1       6.596  -4.813  27.285  0.00  0.00    +0.188 C 
BRANCH  23  24
ATOM     24  O   UNL     1       7.996  -5.083  27.261  0.00  0.00    -0.375 OA
BRANCH  24  25
ATOM     25  C   UNL     1       8.668  -4.224  26.331  0.00  0.00    +0.187 C 
BRANCH  25  26
ATOM     26  C   UNL     1       9.634  -5.074  25.514  0.00  0.00    +0.184 C 
BRANCH  26  27
ATOM     27  O   UNL     1       9.023  -5.453  24.282  0.00  0.00    -0.393 OA
ATOM     28  H   UNL     1       8.258  -4.853  24.183  0.00  0.00    +0.209 HD
ENDBRANCH  26  27
ENDBRANCH  25  26
ENDBRANCH  24  25
ENDBRANCH  23  24
ENDBRANCH  22  23
ENDBRANCH  21  22
ENDBRANCH  20  21
ENDBRANCH  19  20
ENDBRANCH  18  19
ENDBRANCH  17  18
ENDBRANCH  16  17
ENDBRANCH  15  16
ENDBRANCH   4  15
TORSDOF 16
ENDMDL
MODEL 5
REMARK VINA RESULT:      -5.4      4.964      8.345
REMARK  Name = 
REMARK  21 active torsions:
REMARK  status: ('A' for Active; 'I' for Inactive)
REMARK    1  A    between atoms: C_1  and  C_2
REMARK    2  A    between atoms: C_2  and  C_3
REMARK    3  A    between atoms: C_2  and  C_4
REMARK    4  A    between atoms: C_2  and  C_5
REMARK    5  A    between atoms: C_5  and  C_6
REMARK    6  A    between atoms: C_6  and  C_7
REMARK    7  A    between atoms: C_6  and  C_8
REMARK    8  A    between atoms: C_6  and  C_9
REMARK    9  A    between atoms: C_12  and  O_13
REMARK   10  A    between atoms: O_13  and  C_14
REMARK   11  A    between atoms: C_14  and  C_15
REMARK   12  A    between atoms: C_15  and  O_16
REMARK   13  A    between atoms: O_16  and  C_17
REMARK   14  A    between atoms: C_17  and  C_18
REMARK   15  A    between atoms: C_18  and  O_19
REMARK   16  A    between atoms: O_19  and  C_20
REMARK   17  A    between atoms: C_20  and  C_21
REMARK   18  A    between atoms: C_21  and  O_22
REMARK   19  A    between atoms: O_22  and  C_23
REMARK   20  A    between atoms: C_23  and  C_24
REMARK   21  A    between atoms: C_24  and  O_25
REMARK                            x       y       z     vdW  Elec       q    Type
REMARK                         _______ _______ _______ _____ _____    ______ ____
ROOT
ATOM      1  C   UNL     1       8.882  -2.237  24.730  0.00  0.00    -0.041 A 
ATOM      2  C   UNL     1       9.224  -3.521  24.257  0.00  0.00    +0.008 A 
ATOM      3  C   UNL     1       8.846  -4.683  24.944  0.00  0.00    +0.046 A 
ATOM      4  C   UNL     1       8.100  -4.587  26.113  0.00  0.00    +0.121 A 
ATOM      5  C   UNL     1       7.720  -3.333  26.576  0.00  0.00    +0.046 A 
ATOM      6  C   UNL     1       8.105  -2.176  25.895  0.00  0.00    +0.008 A 
ENDROOT
BRANCH   1   7
ATOM      7  C   UNL     1       9.394  -0.966  23.990  0.00  0.00    -0.009 C 
ATOM      8  C   UNL     1      10.237  -0.152  24.992  0.00  0.00    +0.016 C 
ATOM      9  C   UNL     1      10.332  -1.349  22.826  0.00  0.00    +0.016 C 
BRANCH   7  10
ATOM     10  C   UNL     1       8.121  -0.182  23.486  0.00  0.00    +0.017 C 
BRANCH  10  12
ATOM     11  C   UNL     1       9.140   1.636  21.938  0.00  0.00    +0.010 C 
ATOM     12  C   UNL     1       8.113   1.324  23.038  0.00  0.00    -0.037 C 
ATOM     13  C   UNL     1       6.716   1.612  22.424  0.00  0.00    +0.010 C 
ATOM     14  C   UNL     1       8.292   2.300  24.207  0.00  0.00    +0.010 C 
ENDBRANCH  10  12
ENDBRANCH   7  10
ENDBRANCH   1   7
BRANCH   4  15
ATOM     15  O   UNL     1       7.742  -5.625  26.920  0.00  0.00    -0.490 OA
BRANCH  15  16
ATOM     16  C   UNL     1       6.548  -5.464  27.684  0.00  0.00    +0.257 C 
BRANCH  16  17
ATOM     17  C   UNL     1       5.425  -6.213  26.959  0.00  0.00    +0.201 C 
BRANCH  17  18
ATOM     18  O   UNL     1       4.296  -5.398  26.624  0.00  0.00    -0.374 OA
BRANCH  18  19
ATOM     19  C   UNL     1       3.837  -5.581  25.289  0.00  0.00    +0.188 C 
BRANCH  19  20
ATOM     20  C   UNL     1       3.326  -4.261  24.731  0.00  0.00    +0.188 C 
BRANCH  20  21
ATOM     21  O   UNL     1       4.006  -4.012  23.502  0.00  0.00    -0.375 OA
BRANCH  21  22
ATOM     22  C   UNL     1       5.160  -3.204  23.691  0.00  0.00    +0.188 C 
BRANCH  22  23
ATOM     23  C   UNL     1       5.779  -2.932  22.321  0.00  0.00    +0.188 C 
BRANCH  23  24
ATOM     24  O   UNL     1       5.712  -4.112  21.522  0.00  0.00    -0.375 OA
BRANCH  24  25
ATOM     25  C   UNL     1       6.934  -4.857  21.606  0.00  0.00    +0.187 C 
BRANCH  25  26
ATOM     26  C   UNL     1       6.589  -6.286  22.008  0.00  0.00    +0.184 C 
BRANCH  26  27
ATOM     27  O   UNL     1       5.173  -6.437  22.095  0.00  0.00    -0.393 OA
ATOM     28  H   UNL     1       4.819  -5.958  21.321  0.00  0.00    +0.209 HD
ENDBRANCH  26  27
ENDBRANCH  25  26
ENDBRANCH  24  25
ENDBRANCH  23  24
ENDBRANCH  22  23
ENDBRANCH  21  22
ENDBRANCH  20  21
ENDBRANCH  19  20
ENDBRANCH  18  19
ENDBRANCH  17  18
ENDBRANCH  16  17
ENDBRANCH  15  16
ENDBRANCH   4  15
TORSDOF 16
ENDMDL
MODEL 6
REMARK VINA RESULT:      -5.4      3.130      8.693
REMARK  Name = 
REMARK  21 active torsions:
REMARK  status: ('A' for Active; 'I' for Inactive)
REMARK    1  A    between atoms: C_1  and  C_2
REMARK    2  A    between atoms: C_2  and  C_3
REMARK    3  A    between atoms: C_2  and  C_4
REMARK    4  A    between atoms: C_2  and  C_5
REMARK    5  A    between atoms: C_5  and  C_6
REMARK    6  A    between atoms: C_6  and  C_7
REMARK    7  A    between atoms: C_6  and  C_8
REMARK    8  A    between atoms: C_6  and  C_9
REMARK    9  A    between atoms: C_12  and  O_13
REMARK   10  A    between atoms: O_13  and  C_14
REMARK   11  A    between atoms: C_14  and  C_15
REMARK   12  A    between atoms: C_15  and  O_16
REMARK   13  A    between atoms: O_16  and  C_17
REMARK   14  A    between atoms: C_17  and  C_18
REMARK   15  A    between atoms: C_18  and  O_19
REMARK   16  A    between atoms: O_19  and  C_20
REMARK   17  A    between atoms: C_20  and  C_21
REMARK   18  A    between atoms: C_21  and  O_22
REMARK   19  A    between atoms: O_22  and  C_23
REMARK   20  A    between atoms: C_23  and  C_24
REMARK   21  A    between atoms: C_24  and  O_25
REMARK                            x       y       z     vdW  Elec       q    Type
REMARK                         _______ _______ _______ _____ _____    ______ ____
ROOT
ATOM      1  C   UNL     1       9.038   3.398  23.125  0.00  0.00    -0.041 A 
ATOM      2  C   UNL     1      10.196   2.634  23.383  0.00  0.00    +0.008 A 
ATOM      3  C   UNL     1      10.392   1.376  22.798  0.00  0.00    +0.046 A 
ATOM      4  C   UNL     1       9.441   0.859  21.927  0.00  0.00    +0.121 A 
ATOM      5  C   UNL     1       8.310   1.612  21.629  0.00  0.00    +0.046 A 
ATOM      6  C   UNL     1       8.113   2.862  22.219  0.00  0.00    +0.008 A 
ENDROOT
BRANCH   1   7
ATOM      7  C   UNL     1       8.812   4.753  23.860  0.00  0.00    -0.009 C 
ATOM      8  C   UNL     1      10.115   5.569  23.742  0.00  0.00    +0.016 C 
ATOM      9  C   UNL     1       7.706   5.575  23.168  0.00  0.00    +0.016 C 
BRANCH   7  10
ATOM     10  C   UNL     1       8.442   4.408  25.355  0.00  0.00    +0.017 C 
BRANCH  10  12
ATOM     11  C   UNL     1       7.548   2.008  25.774  0.00  0.00    +0.010 C 
ATOM     12  C   UNL     1       7.231   3.511  25.796  0.00  0.00    -0.037 C 
ATOM     13  C   UNL     1       6.910   3.867  27.274  0.00  0.00    +0.010 C 
ATOM     14  C   UNL     1       5.955   3.785  24.990  0.00  0.00    +0.010 C 
ENDBRANCH  10  12
ENDBRANCH   7  10
ENDBRANCH   1   7
BRANCH   4  15
ATOM     15  O   UNL     1       9.464  -0.380  21.360  0.00  0.00    -0.490 OA
BRANCH  15  16
ATOM     16  C   UNL     1       9.890  -1.460  22.189  0.00  0.00    +0.257 C 
BRANCH  16  17
ATOM     17  C   UNL     1       8.688  -1.904  23.031  0.00  0.00    +0.201 C 
BRANCH  17  18
ATOM     18  O   UNL     1       7.456  -1.976  22.303  0.00  0.00    -0.374 OA
BRANCH  18  19
ATOM     19  C   UNL     1       6.654  -3.098  22.652  0.00  0.00    +0.188 C 
BRANCH  19  20
ATOM     20  C   UNL     1       7.490  -4.368  22.605  0.00  0.00    +0.188 C 
BRANCH  20  21
ATOM     21  O   UNL     1       7.075  -5.207  23.681  0.00  0.00    -0.375 OA
BRANCH  21  22
ATOM     22  C   UNL     1       6.107  -4.571  24.504  0.00  0.00    +0.188 C 
BRANCH  22  23
ATOM     23  C   UNL     1       6.175  -5.206  25.893  0.00  0.00    +0.188 C 
BRANCH  23  24
ATOM     24  O   UNL     1       7.456  -5.802  26.086  0.00  0.00    -0.375 OA
BRANCH  24  25
ATOM     25  C   UNL     1       8.350  -4.894  26.742  0.00  0.00    +0.187 C 
BRANCH  25  26
ATOM     26  C   UNL     1       9.629  -4.811  25.917  0.00  0.00    +0.184 C 
BRANCH  26  27
ATOM     27  O   UNL     1       9.735  -5.956  25.072  0.00  0.00    -0.393 OA
ATOM     28  H   UNL     1       9.002  -6.541  25.343  0.00  0.00    +0.209 HD
ENDBRANCH  26  27
ENDBRANCH  25  26
ENDBRANCH  24  25
ENDBRANCH  23  24
ENDBRANCH  22  23
ENDBRANCH  21  22
ENDBRANCH  20  21
ENDBRANCH  19  20
ENDBRANCH  18  19
ENDBRANCH  17  18
ENDBRANCH  16  17
ENDBRANCH  15  16
ENDBRANCH   4  15
TORSDOF 16
ENDMDL
MODEL 7
REMARK VINA RESULT:      -5.2      3.520      9.581
REMARK  Name = 
REMARK  21 active torsions:
REMARK  status: ('A' for Active; 'I' for Inactive)
REMARK    1  A    between atoms: C_1  and  C_2
REMARK    2  A    between atoms: C_2  and  C_3
REMARK    3  A    between atoms: C_2  and  C_4
REMARK    4  A    between atoms: C_2  and  C_5
REMARK    5  A    between atoms: C_5  and  C_6
REMARK    6  A    between atoms: C_6  and  C_7
REMARK    7  A    between atoms: C_6  and  C_8
REMARK    8  A    between atoms: C_6  and  C_9
REMARK    9  A    between atoms: C_12  and  O_13
REMARK   10  A    between atoms: O_13  and  C_14
REMARK   11  A    between atoms: C_14  and  C_15
REMARK   12  A    between atoms: C_15  and  O_16
REMARK   13  A    between atoms: O_16  and  C_17
REMARK   14  A    between atoms: C_17  and  C_18
REMARK   15  A    between atoms: C_18  and  O_19
REMARK   16  A    between atoms: O_19  and  C_20
REMARK   17  A    between atoms: C_20  and  C_21
REMARK   18  A    between atoms: C_21  and  O_22
REMARK   19  A    between atoms: O_22  and  C_23
REMARK   20  A    between atoms: C_23  and  C_24
REMARK   21  A    between atoms: C_24  and  O_25
REMARK                            x       y       z     vdW  Elec       q    Type
REMARK                         _______ _______ _______ _____ _____    ______ ____
ROOT
ATOM      1  C   UNL     1       9.252   3.453  23.347  0.00  0.00    -0.041 A 
ATOM      2  C   UNL     1       8.301   2.952  22.433  0.00  0.00    +0.008 A 
ATOM      3  C   UNL     1       8.407   1.663  21.894  0.00  0.00    +0.046 A 
ATOM      4  C   UNL     1       9.460   0.837  22.269  0.00  0.00    +0.121 A 
ATOM      5  C   UNL     1      10.387   1.297  23.197  0.00  0.00    +0.046 A 
ATOM      6  C   UNL     1      10.285   2.585  23.728  0.00  0.00    +0.008 A 
ENDROOT
BRANCH   1   7
ATOM      7  C   UNL     1       9.151   4.921  23.858  0.00  0.00    -0.009 C 
ATOM      8  C   UNL     1      10.548   5.559  23.717  0.00  0.00    +0.016 C 
ATOM      9  C   UNL     1       8.193   5.746  22.975  0.00  0.00    +0.016 C 
BRANCH   7  10
ATOM     10  C   UNL     1       8.661   4.854  25.357  0.00  0.00    +0.017 C 
BRANCH  10  12
ATOM     11  C   UNL     1       7.434   2.660  26.006  0.00  0.00    +0.010 C 
ATOM     12  C   UNL     1       7.323   4.183  25.834  0.00  0.00    -0.037 C 
ATOM     13  C   UNL     1       6.997   4.758  27.239  0.00  0.00    +0.010 C 
ATOM     14  C   UNL     1       6.128   4.518  24.932  0.00  0.00    +0.010 C 
ENDBRANCH  10  12
ENDBRANCH   7  10
ENDBRANCH   1   7
BRANCH   4  15
ATOM     15  O   UNL     1       9.729  -0.398  21.760  0.00  0.00    -0.490 OA
BRANCH  15  16
ATOM     16  C   UNL     1      10.393  -1.319  22.622  0.00  0.00    +0.257 C 
BRANCH  16  17
ATOM     17  C   UNL     1       9.319  -2.143  23.342  0.00  0.00    +0.201 C 
BRANCH  17  18
ATOM     18  O   UNL     1       9.801  -3.366  23.910  0.00  0.00    -0.374 OA
BRANCH  18  19
ATOM     19  C   UNL     1       8.770  -4.191  24.441  0.00  0.00    +0.188 C 
BRANCH  19  20
ATOM     20  C   UNL     1       9.368  -5.228  25.381  0.00  0.00    +0.188 C 
BRANCH  20  21
ATOM     21  O   UNL     1       8.305  -5.794  26.144  0.00  0.00    -0.375 OA
BRANCH  21  22
ATOM     22  C   UNL     1       7.639  -4.814  26.930  0.00  0.00    +0.188 C 
BRANCH  22  23
ATOM     23  C   UNL     1       6.176  -5.233  27.070  0.00  0.00    +0.188 C 
BRANCH  23  24
ATOM     24  O   UNL     1       5.942  -6.418  26.313  0.00  0.00    -0.375 OA
BRANCH  24  25
ATOM     25  C   UNL     1       4.561  -6.524  25.941  0.00  0.00    +0.187 C 
BRANCH  25  26
ATOM     26  C   UNL     1       4.496  -6.872  24.459  0.00  0.00    +0.184 C 
BRANCH  26  27
ATOM     27  O   UNL     1       3.642  -7.998  24.262  0.00  0.00    -0.393 OA
ATOM     28  H   UNL     1       3.847  -8.603  25.001  0.00  0.00    +0.209 HD
ENDBRANCH  26  27
ENDBRANCH  25  26
ENDBRANCH  24  25
ENDBRANCH  23  24
ENDBRANCH  22  23
ENDBRANCH  21  22
ENDBRANCH  20  21
ENDBRANCH  19  20
ENDBRANCH  18  19
ENDBRANCH  17  18
ENDBRANCH  16  17
ENDBRANCH  15  16
ENDBRANCH   4  15
TORSDOF 16
ENDMDL
MODEL 8
REMARK VINA RESULT:      -5.2      4.241      8.123
REMARK  Name = 
REMARK  21 active torsions:
REMARK  status: ('A' for Active; 'I' for Inactive)
REMARK    1  A    between atoms: C_1  and  C_2
REMARK    2  A    between atoms: C_2  and  C_3
REMARK    3  A    between atoms: C_2  and  C_4
REMARK    4  A    between atoms: C_2  and  C_5
REMARK    5  A    between atoms: C_5  and  C_6
REMARK    6  A    between atoms: C_6  and  C_7
REMARK    7  A    between atoms: C_6  and  C_8
REMARK    8  A    between atoms: C_6  and  C_9
REMARK    9  A    between atoms: C_12  and  O_13
REMARK   10  A    between atoms: O_13  and  C_14
REMARK   11  A    between atoms: C_14  and  C_15
REMARK   12  A    between atoms: C_15  and  O_16
REMARK   13  A    between atoms: O_16  and  C_17
REMARK   14  A    between atoms: C_17  and  C_18
REMARK   15  A    between atoms: C_18  and  O_19
REMARK   16  A    between atoms: O_19  and  C_20
REMARK   17  A    between atoms: C_20  and  C_21
REMARK   18  A    between atoms: C_21  and  O_22
REMARK   19  A    between atoms: O_22  and  C_23
REMARK   20  A    between atoms: C_23  and  C_24
REMARK   21  A    between atoms: C_24  and  O_25
REMARK                            x       y       z     vdW  Elec       q    Type
REMARK                         _______ _______ _______ _____ _____    ______ ____
ROOT
ATOM      1  C   UNL     1       9.315  -0.263  23.486  0.00  0.00    -0.041 A 
ATOM      2  C   UNL     1       9.539  -1.003  24.666  0.00  0.00    +0.008 A 
ATOM      3  C   UNL     1       9.203  -2.361  24.758  0.00  0.00    +0.046 A 
ATOM      4  C   UNL     1       8.650  -3.015  23.664  0.00  0.00    +0.121 A 
ATOM      5  C   UNL     1       8.456  -2.314  22.478  0.00  0.00    +0.046 A 
ATOM      6  C   UNL     1       8.783  -0.960  22.391  0.00  0.00    +0.008 A 
ENDROOT
BRANCH   1   7
ATOM      7  C   UNL     1       9.619   1.264  23.447  0.00  0.00    -0.009 C 
ATOM      8  C   UNL     1      11.002   1.480  24.095  0.00  0.00    +0.016 C 
ATOM      9  C   UNL     1       9.723   1.767  21.993  0.00  0.00    +0.016 C 
BRANCH   7  10
ATOM     10  C   UNL     1       8.457   1.984  24.238  0.00  0.00    +0.017 C 
BRANCH  10  12
ATOM     11  C   UNL     1       6.846   2.044  22.203  0.00  0.00    +0.010 C 
ATOM     12  C   UNL     1       6.976   2.117  23.732  0.00  0.00    -0.037 C 
ATOM     13  C   UNL     1       6.189   0.901  24.294  0.00  0.00    +0.010 C 
ATOM     14  C   UNL     1       6.274   3.377  24.254  0.00  0.00    +0.010 C 
ENDBRANCH  10  12
ENDBRANCH   7  10
ENDBRANCH   1   7
BRANCH   4  15
ATOM     15  O   UNL     1       8.200  -4.301  23.644  0.00  0.00    -0.490 OA
BRANCH  15  16
ATOM     16  C   UNL     1       8.610  -5.143  24.719  0.00  0.00    +0.257 C 
BRANCH  16  17
ATOM     17  C   UNL     1       7.368  -5.476  25.553  0.00  0.00    +0.201 C 
BRANCH  17  18
ATOM     18  O   UNL     1       7.420  -4.993  26.901  0.00  0.00    -0.374 OA
BRANCH  18  19
ATOM     19  C   UNL     1       6.666  -3.805  27.110  0.00  0.00    +0.188 C 
BRANCH  19  20
ATOM     20  C   UNL     1       5.442  -3.802  26.206  0.00  0.00    +0.188 C 
BRANCH  20  21
ATOM     21  O   UNL     1       5.410  -2.555  25.514  0.00  0.00    -0.375 OA
BRANCH  21  22
ATOM     22  C   UNL     1       5.085  -2.722  24.140  0.00  0.00    +0.188 C 
BRANCH  22  23
ATOM     23  C   UNL     1       4.236  -3.985  24.003  0.00  0.00    +0.188 C 
BRANCH  23  24
ATOM     24  O   UNL     1       4.327  -4.482  22.669  0.00  0.00    -0.375 OA
BRANCH  24  25
ATOM     25  C   UNL     1       4.980  -5.758  22.641  0.00  0.00    +0.187 C 
BRANCH  25  26
ATOM     26  C   UNL     1       5.994  -5.746  21.503  0.00  0.00    +0.184 C 
BRANCH  26  27
ATOM     27  O   UNL     1       5.857  -4.545  20.744  0.00  0.00    -0.393 OA
ATOM     28  H   UNL     1       5.775  -4.839  19.817  0.00  0.00    +0.209 HD
ENDBRANCH  26  27
ENDBRANCH  25  26
ENDBRANCH  24  25
ENDBRANCH  23  24
ENDBRANCH  22  23
ENDBRANCH  21  22
ENDBRANCH  20  21
ENDBRANCH  19  20
ENDBRANCH  18  19
ENDBRANCH  17  18
ENDBRANCH  16  17
ENDBRANCH  15  16
ENDBRANCH   4  15
TORSDOF 16
ENDMDL
MODEL 9
REMARK VINA RESULT:      -5.2      1.582      2.973
REMARK  Name = 
REMARK  21 active torsions:
REMARK  status: ('A' for Active; 'I' for Inactive)
REMARK    1  A    between atoms: C_1  and  C_2
REMARK    2  A    between atoms: C_2  and  C_3
REMARK    3  A    between atoms: C_2  and  C_4
REMARK    4  A    between atoms: C_2  and  C_5
REMARK    5  A    between atoms: C_5  and  C_6
REMARK    6  A    between atoms: C_6  and  C_7
REMARK    7  A    between atoms: C_6  and  C_8
REMARK    8  A    between atoms: C_6  and  C_9
REMARK    9  A    between atoms: C_12  and  O_13
REMARK   10  A    between atoms: O_13  and  C_14
REMARK   11  A    between atoms: C_14  and  C_15
REMARK   12  A    between atoms: C_15  and  O_16
REMARK   13  A    between atoms: O_16  and  C_17
REMARK   14  A    between atoms: C_17  and  C_18
REMARK   15  A    between atoms: C_18  and  O_19
REMARK   16  A    between atoms: O_19  and  C_20
REMARK   17  A    between atoms: C_20  and  C_21
REMARK   18  A    between atoms: C_21  and  O_22
REMARK   19  A    between atoms: O_22  and  C_23
REMARK   20  A    between atoms: C_23  and  C_24
REMARK   21  A    between atoms: C_24  and  O_25
REMARK                            x       y       z     vdW  Elec       q    Type
REMARK                         _______ _______ _______ _____ _____    ______ ____
ROOT
ATOM      1  C   UNL     1       8.920  -2.815  24.485  0.00  0.00    -0.041 A 
ATOM      2  C   UNL     1       8.724  -1.642  25.244  0.00  0.00    +0.008 A 
ATOM      3  C   UNL     1       9.227  -0.403  24.825  0.00  0.00    +0.046 A 
ATOM      4  C   UNL     1       9.925  -0.305  23.628  0.00  0.00    +0.121 A 
ATOM      5  C   UNL     1      10.097  -1.442  22.845  0.00  0.00    +0.046 A 
ATOM      6  C   UNL     1       9.602  -2.677  23.267  0.00  0.00    +0.008 A 
ENDROOT
BRANCH   1   7
ATOM      7  C   UNL     1       8.423  -4.190  25.023  0.00  0.00    -0.009 C 
ATOM      8  C   UNL     1       9.577  -4.818  25.831  0.00  0.00    +0.016 C 
ATOM      9  C   UNL     1       7.244  -4.004  26.000  0.00  0.00    +0.016 C 
BRANCH   7  10
ATOM     10  C   UNL     1       8.017  -5.056  23.767  0.00  0.00    +0.017 C 
BRANCH  10  12
ATOM     11  C   UNL     1       5.571  -5.787  24.237  0.00  0.00    +0.010 C 
ATOM     12  C   UNL     1       6.554  -5.201  23.213  0.00  0.00    -0.037 C 
ATOM     13  C   UNL     1       6.043  -3.771  22.887  0.00  0.00    +0.010 C 
ATOM     14  C   UNL     1       6.484  -6.003  21.907  0.00  0.00    +0.010 C 
ENDBRANCH  10  12
ENDBRANCH   7  10
ENDBRANCH   1   7
BRANCH   4  15
ATOM     15  O   UNL     1      10.539   0.813  23.148  0.00  0.00    -0.490 OA
BRANCH  15  16
ATOM     16  C   UNL     1      10.706   1.897  24.059  0.00  0.00    +0.257 C 
BRANCH  16  17
ATOM     17  C   UNL     1      10.858   3.181  23.236  0.00  0.00    +0.201 C 
BRANCH  17  18
ATOM     18  O   UNL     1      11.991   3.980  23.598  0.00  0.00    -0.374 OA
BRANCH  18  19
ATOM     19  C   UNL     1      11.898   5.331  23.162  0.00  0.00    +0.188 C 
BRANCH  19  20
ATOM     20  C   UNL     1      10.949   6.103  24.066  0.00  0.00    +0.188 C 
BRANCH  20  21
ATOM     21  O   UNL     1       9.760   6.374  23.327  0.00  0.00    -0.375 OA
BRANCH  21  22
ATOM     22  C   UNL     1       8.591   6.137  24.101  0.00  0.00    +0.188 C 
BRANCH  22  23
ATOM     23  C   UNL     1       7.529   5.535  23.183  0.00  0.00    +0.188 C 
BRANCH  23  24
ATOM     24  O   UNL     1       7.629   4.112  23.202  0.00  0.00    -0.375 OA
BRANCH  24  25
ATOM     25  C   UNL     1       7.209   3.552  21.951  0.00  0.00    +0.187 C 
BRANCH  25  26
ATOM     26  C   UNL     1       7.429   2.046  22.010  0.00  0.00    +0.184 C 
BRANCH  26  27
ATOM     27  O   UNL     1       8.470   1.672  21.109  0.00  0.00    -0.393 OA
ATOM     28  H   UNL     1       8.076   1.754  20.219  0.00  0.00    +0.209 HD
ENDBRANCH  26  27
ENDBRANCH  25  26
ENDBRANCH  24  25
ENDBRANCH  23  24
ENDBRANCH  22  23
ENDBRANCH  21  22
ENDBRANCH  20  21
ENDBRANCH  19  20
ENDBRANCH  18  19
ENDBRANCH  17  18
ENDBRANCH  16  17
ENDBRANCH  15  16
ENDBRANCH   4  15
TORSDOF 16
ENDMDL
