MODEL 1
REMARK VINA RESULT:      -4.6      0.000      0.000
REMARK  Name = 
REMARK  0 active torsions:
REMARK  status: ('A' for Active; 'I' for Inactive)
REMARK                            x       y       z     vdW  Elec       q    Type
REMARK                         _______ _______ _______ _____ _____    ______ ____
ROOT
ATOM      1  O   UNL     1       9.815  -0.729  25.302  0.00  0.00    -0.265 OA
ATOM      2  C   UNL     1       9.724  -0.488  24.103  0.00  0.00    +0.279 A 
ATOM      3  C   UNL     1       9.987   0.787  23.468  0.00  0.00    +0.172 A 
ATOM      4  C   UNL     1       9.830   0.869  22.103  0.00  0.00    +0.165 A 
ATOM      5  N   UNL     1      10.140   2.157  21.784  0.00  0.00    -0.329 N 
ATOM      6  H   UNL     1      10.127   2.556  20.857  0.00  0.00    +0.168 HD
ATOM      7  C   UNL     1      10.468   2.793  22.954  0.00  0.00    +0.199 A 
ATOM      8  N   UNL     1       9.452  -0.094  21.231  0.00  0.00    -0.218 NA
ATOM      9  C   UNL     1       9.221  -1.227  21.826  0.00  0.00    +0.201 A 
ATOM     10  N   UNL     1      10.386   1.990  23.995  0.00  0.00    -0.229 NA
ATOM     11  N   UNL     1       9.337  -1.456  23.186  0.00  0.00    -0.312 N 
ATOM     12  H   UNL     1       9.140  -2.365  23.576  0.00  0.00    +0.170 HD
ENDROOT
TORSDOF 0
ENDMDL
MODEL 2
REMARK VINA RESULT:      -4.5      1.792      3.529
REMARK  Name = 
REMARK  0 active torsions:
REMARK  status: ('A' for Active; 'I' for Inactive)
REMARK                            x       y       z     vdW  Elec       q    Type
REMARK                         _______ _______ _______ _____ _____    ______ ____
ROOT
ATOM      1  O   UNL     1       9.202   0.094  20.954  0.00  0.00    -0.265 OA
ATOM      2  C   UNL     1       9.597   0.751  21.912  0.00  0.00    +0.279 A 
ATOM      3  C   UNL     1       9.617   0.316  23.293  0.00  0.00    +0.172 A 
ATOM      4  C   UNL     1      10.098   1.196  24.236  0.00  0.00    +0.165 A 
ATOM      5  N   UNL     1      10.002   0.535  25.423  0.00  0.00    -0.329 N 
ATOM      6  H   UNL     1      10.272   0.897  26.326  0.00  0.00    +0.168 HD
ATOM      7  C   UNL     1       9.473  -0.702  25.154  0.00  0.00    +0.199 A 
ATOM      8  N   UNL     1      10.573   2.450  24.064  0.00  0.00    -0.218 NA
ATOM      9  C   UNL     1      10.544   2.816  22.817  0.00  0.00    +0.201 A 
ATOM     10  N   UNL     1       9.228  -0.867  23.870  0.00  0.00    -0.229 NA
ATOM     11  N   UNL     1      10.089   2.041  21.764  0.00  0.00    -0.312 N 
ATOM     12  H   UNL     1      10.098   2.394  20.820  0.00  0.00    +0.170 HD
ENDROOT
TORSDOF 0
ENDMDL
MODEL 3
REMARK VINA RESULT:      -4.5      6.228      6.972
REMARK  Name = 
REMARK  0 active torsions:
REMARK  status: ('A' for Active; 'I' for Inactive)
REMARK                            x       y       z     vdW  Elec       q    Type
REMARK                         _______ _______ _______ _____ _____    ______ ____
ROOT
ATOM      1  O   UNL     1       7.148  -5.427  27.940  0.00  0.00    -0.265 OA
ATOM      2  C   UNL     1       7.676  -5.290  26.841  0.00  0.00    +0.279 A 
ATOM      3  C   UNL     1       6.992  -5.253  25.566  0.00  0.00    +0.172 A 
ATOM      4  C   UNL     1       7.756  -5.091  24.431  0.00  0.00    +0.165 A 
ATOM      5  N   UNL     1       6.868  -5.091  23.399  0.00  0.00    -0.329 N 
ATOM      6  H   UNL     1       7.098  -4.991  22.421  0.00  0.00    +0.168 HD
ATOM      7  C   UNL     1       5.618  -5.250  23.942  0.00  0.00    +0.199 A 
ATOM      8  N   UNL     1       9.098  -4.958  24.323  0.00  0.00    -0.218 NA
ATOM      9  C   UNL     1       9.687  -4.996  25.481  0.00  0.00    +0.201 A 
ATOM     10  N   UNL     1       5.659  -5.351  25.256  0.00  0.00    -0.229 NA
ATOM     11  N   UNL     1       9.050  -5.153  26.700  0.00  0.00    -0.312 N 
ATOM     12  H   UNL     1       9.577  -5.172  27.560  0.00  0.00    +0.170 HD
ENDROOT
TORSDOF 0
ENDMDL
MODEL 4
REMARK VINA RESULT:      -4.3      4.817      5.644
REMARK  Name = 
REMARK  0 active torsions:
REMARK  status: ('A' for Active; 'I' for Inactive)
REMARK                            x       y       z     vdW  Elec       q    Type
REMARK                         _______ _______ _______ _____ _____    ______ ____
ROOT
ATOM      1  O   UNL     1       8.650  -5.449  24.009  0.00  0.00    -0.265 OA
ATOM      2  C   UNL     1       7.796  -5.141  23.184  0.00  0.00    +0.279 A 
ATOM      3  C   UNL     1       7.081  -3.883  23.125  0.00  0.00    +0.172 A 
ATOM      4  C   UNL     1       6.152  -3.718  22.122  0.00  0.00    +0.165 A 
ATOM      5  N   UNL     1       5.646  -2.467  22.306  0.00  0.00    -0.329 N 
ATOM      6  H   UNL     1       4.937  -2.026  21.738  0.00  0.00    +0.168 HD
ATOM      7  C   UNL     1       6.281  -1.932  23.398  0.00  0.00    +0.199 A 
ATOM      8  N   UNL     1       5.792  -4.584  21.147  0.00  0.00    -0.218 NA
ATOM      9  C   UNL     1       6.446  -5.704  21.223  0.00  0.00    +0.201 A 
ATOM     10  N   UNL     1       7.159  -2.766  23.919  0.00  0.00    -0.229 NA
ATOM     11  N   UNL     1       7.405  -6.010  22.173  0.00  0.00    -0.312 N 
ATOM     12  H   UNL     1       7.873  -6.904  22.168  0.00  0.00    +0.170 HD
ENDROOT
TORSDOF 0
ENDMDL
MODEL 5
REMARK VINA RESULT:      -4.3      0.798      2.876
REMARK  Name = 
REMARK  0 active torsions:
REMARK  status: ('A' for Active; 'I' for Inactive)
REMARK                            x       y       z     vdW  Elec       q    Type
REMARK                         _______ _______ _______ _____ _____    ______ ____
ROOT
ATOM      1  O   UNL     1       9.275  -0.447  25.948  0.00  0.00    -0.265 OA
ATOM      2  C   UNL     1       9.548   0.121  24.896  0.00  0.00    +0.279 A 
ATOM      3  C   UNL     1       9.498  -0.465  23.573  0.00  0.00    +0.172 A 
ATOM      4  C   UNL     1       9.843   0.332  22.504  0.00  0.00    +0.165 A 
ATOM      5  N   UNL     1       9.708  -0.464  21.406  0.00  0.00    -0.329 N 
ATOM      6  H   UNL     1       9.883  -0.189  20.451  0.00  0.00    +0.168 HD
ATOM      7  C   UNL     1       9.291  -1.694  21.850  0.00  0.00    +0.199 A 
ATOM      8  N   UNL     1      10.236   1.626  22.500  0.00  0.00    -0.218 NA
ATOM      9  C   UNL     1      10.273   2.128  23.699  0.00  0.00    +0.201 A 
ATOM     10  N   UNL     1       9.154  -1.728  23.160  0.00  0.00    -0.229 NA
ATOM     11  N   UNL     1       9.955   1.449  24.863  0.00  0.00    -0.312 N 
ATOM     12  H   UNL     1      10.007   1.906  25.760  0.00  0.00    +0.170 HD
ENDROOT
TORSDOF 0
ENDMDL
MODEL 6
REMARK VINA RESULT:      -4.2      1.490      1.556
REMARK  Name = 
REMARK  0 active torsions:
REMARK  status: ('A' for Active; 'I' for Inactive)
REMARK                            x       y       z     vdW  Elec       q    Type
REMARK                         _______ _______ _______ _____ _____    ______ ____
ROOT
ATOM      1  O   UNL     1      11.084   0.578  24.889  0.00  0.00    -0.265 OA
ATOM      2  C   UNL     1      10.452   0.732  23.849  0.00  0.00    +0.279 A 
ATOM      3  C   UNL     1       9.694   1.909  23.478  0.00  0.00    +0.172 A 
ATOM      4  C   UNL     1       9.045   1.898  22.264  0.00  0.00    +0.165 A 
ATOM      5  N   UNL     1       8.426   3.108  22.179  0.00  0.00    -0.329 N 
ATOM      6  H   UNL     1       7.859   3.430  21.408  0.00  0.00    +0.168 HD
ATOM      7  C   UNL     1       8.722   3.794  23.330  0.00  0.00    +0.199 A 
ATOM      8  N   UNL     1       9.005   0.920  21.330  0.00  0.00    -0.218 NA
ATOM      9  C   UNL     1       9.692  -0.124  21.688  0.00  0.00    +0.201 A 
ATOM     10  N   UNL     1       9.491   3.093  24.140  0.00  0.00    -0.229 NA
ATOM     11  N   UNL     1      10.393  -0.255  22.874  0.00  0.00    -0.312 N 
ATOM     12  H   UNL     1      10.905  -1.099  23.082  0.00  0.00    +0.170 HD
ENDROOT
TORSDOF 0
ENDMDL
MODEL 7
REMARK VINA RESULT:      -4.2      5.894      6.864
REMARK  Name = 
REMARK  0 active torsions:
REMARK  status: ('A' for Active; 'I' for Inactive)
REMARK                            x       y       z     vdW  Elec       q    Type
REMARK                         _______ _______ _______ _____ _____    ______ ____
ROOT
ATOM      1  O   UNL     1       7.446  -3.974  22.316  0.00  0.00    -0.265 OA
ATOM      2  C   UNL     1       7.137  -4.481  23.389  0.00  0.00    +0.279 A 
ATOM      3  C   UNL     1       8.047  -4.826  24.461  0.00  0.00    +0.172 A 
ATOM      4  C   UNL     1       7.514  -5.391  25.599  0.00  0.00    +0.165 A 
ATOM      5  N   UNL     1       8.578  -5.606  26.422  0.00  0.00    -0.329 N 
ATOM      6  H   UNL     1       8.538  -6.012  27.346  0.00  0.00    +0.168 HD
ATOM      7  C   UNL     1       9.696  -5.168  25.759  0.00  0.00    +0.199 A 
ATOM      8  N   UNL     1       6.224  -5.684  25.877  0.00  0.00    -0.218 NA
ATOM      9  C   UNL     1       5.429  -5.366  24.899  0.00  0.00    +0.201 A 
ATOM     10  N   UNL     1       9.408  -4.688  24.566  0.00  0.00    -0.229 NA
ATOM     11  N   UNL     1       5.821  -4.793  23.701  0.00  0.00    -0.312 N 
ATOM     12  H   UNL     1       5.144  -4.574  22.987  0.00  0.00    +0.170 HD
ENDROOT
TORSDOF 0
ENDMDL
MODEL 8
REMARK VINA RESULT:      -4.2      1.908      3.053
REMARK  Name = 
REMARK  0 active torsions:
REMARK  status: ('A' for Active; 'I' for Inactive)
REMARK                            x       y       z     vdW  Elec       q    Type
REMARK                         _______ _______ _______ _____ _____    ______ ____
ROOT
ATOM      1  O   UNL     1      11.116   3.227  23.204  0.00  0.00    -0.265 OA
ATOM      2  C   UNL     1      10.311   2.346  22.921  0.00  0.00    +0.279 A 
ATOM      3  C   UNL     1      10.016   1.173  23.718  0.00  0.00    +0.172 A 
ATOM      4  C   UNL     1       9.077   0.289  23.235  0.00  0.00    +0.165 A 
ATOM      5  N   UNL     1       9.003  -0.699  24.171  0.00  0.00    -0.329 N 
ATOM      6  H   UNL     1       8.404  -1.511  24.127  0.00  0.00    +0.168 HD
ATOM      7  C   UNL     1       9.887  -0.376  25.168  0.00  0.00    +0.199 A 
ATOM      8  N   UNL     1       8.363   0.350  22.088  0.00  0.00    -0.218 NA
ATOM      9  C   UNL     1       8.647   1.411  21.392  0.00  0.00    +0.201 A 
ATOM     10  N   UNL     1      10.518   0.755  24.924  0.00  0.00    -0.229 NA
ATOM     11  N   UNL     1       9.565   2.383  21.751  0.00  0.00    -0.312 N 
ATOM     12  H   UNL     1       9.732   3.180  21.157  0.00  0.00    +0.170 HD
ENDROOT
TORSDOF 0
ENDMDL
MODEL 9
REMARK VINA RESULT:      -4.2      4.865      6.424
REMARK  Name = 
REMARK  0 active torsions:
REMARK  status: ('A' for Active; 'I' for Inactive)
REMARK                            x       y       z     vdW  Elec       q    Type
REMARK                         _______ _______ _______ _____ _____    ______ ____
ROOT
ATOM      1  O   UNL     1       6.168  -1.859  22.935  0.00  0.00    -0.265 OA
ATOM      2  C   UNL     1       6.790  -2.899  23.126  0.00  0.00    +0.279 A 
ATOM      3  C   UNL     1       6.662  -4.121  22.360  0.00  0.00    +0.172 A 
ATOM      4  C   UNL     1       7.447  -5.193  22.725  0.00  0.00    +0.165 A 
ATOM      5  N   UNL     1       7.126  -6.185  21.850  0.00  0.00    -0.329 N 
ATOM      6  H   UNL     1       7.522  -7.114  21.837  0.00  0.00    +0.168 HD
ATOM      7  C   UNL     1       6.173  -5.682  21.002  0.00  0.00    +0.199 A 
ATOM      8  N   UNL     1       8.352  -5.281  23.727  0.00  0.00    -0.218 NA
ATOM      9  C   UNL     1       8.446  -4.172  24.399  0.00  0.00    +0.201 A 
ATOM     10  N   UNL     1       5.869  -4.431  21.285  0.00  0.00    -0.229 NA
ATOM     11  N   UNL     1       7.724  -3.019  24.147  0.00  0.00    -0.312 N 
ATOM     12  H   UNL     1       7.852  -2.194  24.714  0.00  0.00    +0.170 HD
ENDROOT
TORSDOF 0
ENDMDL
