MODEL 1
REMARK VINA RESULT:      -7.5      0.000      0.000
REMARK  Name = 
REMARK  17 active torsions:
REMARK  status: ('A' for Active; 'I' for Inactive)
REMARK    1  A    between atoms: O_1  and  C_2
REMARK    2  A    between atoms: C_4  and  C_6
REMARK    3  A    between atoms: C_6  and  O_7
REMARK    4  A    between atoms: O_7  and  P_8
REMARK    5  A    between atoms: P_8  and  O_9
REMARK    6  A    between atoms: P_8  and  O_11
REMARK    7  A    between atoms: O_11  and  P_12
REMARK    8  A    between atoms: P_12  and  O_13
REMARK    9  A    between atoms: P_12  and  O_15
REMARK   10  A    between atoms: O_15  and  C_16
REMARK   11  A    between atoms: C_19  and  C_30
REMARK   12  A    between atoms: C_21  and  O_23
REMARK   13  A    between atoms: C_24  and  O_26
REMARK   14  A    between atoms: C_27  and  O_29
REMARK   15  A    between atoms: C_30  and  O_31
REMARK   16  A    between atoms: C_34  and  N_39
REMARK   17  A    between atoms: C_36  and  O_38
REMARK                            x       y       z     vdW  Elec       q    Type
REMARK                         _______ _______ _______ _____ _____    ______ ____
ROOT
ATOM      1  P   UNL     1       9.198  -1.633  22.915  0.00  0.00    +0.483 P 
ATOM      2  O   UNL     1       8.134  -0.535  22.839  0.00  0.00    -0.227 OA
ENDROOT
BRANCH   1   3
ATOM      3  O   UNL     1      10.096  -1.454  21.548  0.00  0.00    -0.302 OA
ATOM      4  H   UNL     1      10.730  -0.711  21.542  0.00  0.00    +0.222 HD
ENDBRANCH   1   3
BRANCH   1   5
ATOM      5  O   UNL     1      10.252  -0.583  23.798  0.00  0.00    -0.186 OA
BRANCH   5   6
ATOM      6  P   UNL     1       9.462   0.931  24.071  0.00  0.00    +0.486 P 
ATOM      7  O   UNL     1      10.831   1.619  24.138  0.00  0.00    -0.227 OA
BRANCH   6   8
ATOM      8  O   UNL     1       9.113   0.505  25.608  0.00  0.00    -0.302 OA
ATOM      9  H   UNL     1       9.320   1.218  26.248  0.00  0.00    +0.222 HD
ENDBRANCH   6   8
BRANCH   6  10
ATOM     10  O   UNL     1       8.671   2.446  24.345  0.00  0.00    -0.254 OA
BRANCH  10  11
ATOM     11  C   UNL     1       9.094   3.382  23.362  0.00  0.00    +0.294 C 
ATOM     12  C   UNL     1       9.040   4.869  23.811  0.00  0.00    +0.202 C 
ATOM     13  C   UNL     1       7.591   5.391  23.801  0.00  0.00    +0.179 C 
ATOM     14  C   UNL     1       6.926   5.099  22.458  0.00  0.00    +0.185 C 
ATOM     15  C   UNL     1       7.036   3.602  22.111  0.00  0.00    +0.260 C 
ATOM     16  O   UNL     1       8.378   3.117  22.158  0.00  0.00    -0.331 OA
BRANCH  15  17
ATOM     17  C   UNL     1       5.949   2.762  22.814  0.00  0.00    +0.337 C 
ATOM     18  O   UNL     1       4.946   3.249  23.320  0.00  0.00    -0.248 OA
BRANCH  17  19
ATOM     19  O   UNL     1       6.134   1.427  22.728  0.00  0.00    -0.479 OA
ATOM     20  H   UNL     1       5.346   0.974  22.354  0.00  0.00    +0.295 HD
ENDBRANCH  17  19
ENDBRANCH  15  17
BRANCH  14  21
ATOM     21  O   UNL     1       7.574   5.910  21.461  0.00  0.00    -0.386 OA
ATOM     22  H   UNL     1       7.023   5.890  20.660  0.00  0.00    +0.210 HD
ENDBRANCH  14  21
BRANCH  13  23
ATOM     23  O   UNL     1       6.767   4.832  24.821  0.00  0.00    -0.386 OA
ATOM     24  H   UNL     1       7.078   5.087  25.721  0.00  0.00    +0.210 HD
ENDBRANCH  13  23
BRANCH  12  25
ATOM     25  O   UNL     1       9.949   5.633  23.006  0.00  0.00    -0.384 OA
ATOM     26  H   UNL     1      10.725   5.853  23.557  0.00  0.00    +0.210 HD
ENDBRANCH  12  25
ENDBRANCH  10  11
ENDBRANCH   6  10
ENDBRANCH   5   6
ENDBRANCH   1   5
BRANCH   1  27
ATOM     27  O   UNL     1       8.143  -2.683  22.031  0.00  0.00    -0.284 OA
BRANCH  27  28
ATOM     28  C   UNL     1       8.070  -4.006  22.537  0.00  0.00    +0.206 C 
BRANCH  28  33
ATOM     29  C   UNL     1       5.586  -3.616  22.956  0.00  0.00    +0.178 C 
ATOM     30  C   UNL     1       4.550  -4.415  23.737  0.00  0.00    +0.195 C 
ATOM     31  C   UNL     1       5.302  -5.703  24.159  0.00  0.00    +0.255 C 
ATOM     32  O   UNL     1       6.674  -5.560  23.723  0.00  0.00    -0.346 OA
ATOM     33  C   UNL     1       6.898  -4.165  23.496  0.00  0.00    +0.178 C 
BRANCH  31  34
ATOM     34  N   UNL     1       5.247  -5.984  25.604  0.00  0.00    -0.271 N 
ATOM     35  C   UNL     1       4.439  -7.040  26.015  0.00  0.00    +0.331 A 
ATOM     36  O   UNL     1       3.746  -7.693  25.238  0.00  0.00    -0.246 OA
ATOM     37  N   UNL     1       4.444  -7.306  27.361  0.00  0.00    -0.275 N 
ATOM     38  H   UNL     1       3.886  -8.087  27.673  0.00  0.00    +0.173 HD
ATOM     39  C   UNL     1       5.262  -6.724  28.287  0.00  0.00    +0.254 A 
ATOM     40  O   UNL     1       5.320  -7.089  29.453  0.00  0.00    -0.268 OA
ATOM     41  C   UNL     1       6.103  -5.625  27.795  0.00  0.00    +0.088 A 
ATOM     42  C   UNL     1       6.070  -5.322  26.501  0.00  0.00    +0.098 A 
ENDBRANCH  31  34
BRANCH  29  43
ATOM     43  O   UNL     1       5.461  -2.219  23.200  0.00  0.00    -0.386 OA
ATOM     44  H   UNL     1       6.115  -1.758  22.639  0.00  0.00    +0.210 HD
ENDBRANCH  29  43
BRANCH  30  45
ATOM     45  O   UNL     1       3.431  -4.725  22.896  0.00  0.00    -0.385 OA
ATOM     46  H   UNL     1       2.637  -4.673  23.468  0.00  0.00    +0.210 HD
ENDBRANCH  30  45
ENDBRANCH  28  33
ENDBRANCH  27  28
ENDBRANCH   1  27
TORSDOF 17
ENDMDL
MODEL 2
REMARK VINA RESULT:      -7.5      3.385      8.146
REMARK  Name = 
REMARK  17 active torsions:
REMARK  status: ('A' for Active; 'I' for Inactive)
REMARK    1  A    between atoms: O_1  and  C_2
REMARK    2  A    between atoms: C_4  and  C_6
REMARK    3  A    between atoms: C_6  and  O_7
REMARK    4  A    between atoms: O_7  and  P_8
REMARK    5  A    between atoms: P_8  and  O_9
REMARK    6  A    between atoms: P_8  and  O_11
REMARK    7  A    between atoms: O_11  and  P_12
REMARK    8  A    between atoms: P_12  and  O_13
REMARK    9  A    between atoms: P_12  and  O_15
REMARK   10  A    between atoms: O_15  and  C_16
REMARK   11  A    between atoms: C_19  and  C_30
REMARK   12  A    between atoms: C_21  and  O_23
REMARK   13  A    between atoms: C_24  and  O_26
REMARK   14  A    between atoms: C_27  and  O_29
REMARK   15  A    between atoms: C_30  and  O_31
REMARK   16  A    between atoms: C_34  and  N_39
REMARK   17  A    between atoms: C_36  and  O_38
REMARK                            x       y       z     vdW  Elec       q    Type
REMARK                         _______ _______ _______ _____ _____    ______ ____
ROOT
ATOM      1  P   UNL     1       6.161  -0.090  26.911  0.00  0.00    +0.483 P 
ATOM      2  O   UNL     1       6.188   1.150  26.012  0.00  0.00    -0.227 OA
ENDROOT
BRANCH   1   3
ATOM      3  O   UNL     1       5.823   0.480  28.416  0.00  0.00    -0.302 OA
ATOM      4  H   UNL     1       6.533   0.987  28.856  0.00  0.00    +0.222 HD
ENDBRANCH   1   3
BRANCH   1   5
ATOM      5  O   UNL     1       4.481  -0.326  26.573  0.00  0.00    -0.186 OA
BRANCH   5   6
ATOM      6  P   UNL     1       4.117  -2.017  26.617  0.00  0.00    +0.486 P 
ATOM      7  O   UNL     1       5.403  -2.261  27.418  0.00  0.00    -0.227 OA
BRANCH   6   8
ATOM      8  O   UNL     1       4.543  -2.178  25.049  0.00  0.00    -0.302 OA
ATOM      9  H   UNL     1       5.008  -1.386  24.706  0.00  0.00    +0.222 HD
ENDBRANCH   6   8
BRANCH   6  10
ATOM     10  O   UNL     1       3.754  -3.708  26.659  0.00  0.00    -0.254 OA
BRANCH  10  11
ATOM     11  C   UNL     1       3.915  -4.257  25.357  0.00  0.00    +0.294 C 
ATOM     12  C   UNL     1       2.775  -5.212  24.905  0.00  0.00    +0.202 C 
ATOM     13  C   UNL     1       2.910  -6.586  25.589  0.00  0.00    +0.179 C 
ATOM     14  C   UNL     1       4.322  -7.138  25.408  0.00  0.00    +0.185 C 
ATOM     15  C   UNL     1       5.371  -6.115  25.886  0.00  0.00    +0.260 C 
ATOM     16  O   UNL     1       5.216  -4.833  25.276  0.00  0.00    -0.331 OA
BRANCH  15  17
ATOM     17  C   UNL     1       5.567  -6.157  27.415  0.00  0.00    +0.337 C 
ATOM     18  O   UNL     1       5.358  -7.154  28.093  0.00  0.00    -0.248 OA
BRANCH  17  19
ATOM     19  O   UNL     1       6.102  -5.032  27.940  0.00  0.00    -0.479 OA
ATOM     20  H   UNL     1       6.982  -5.202  28.343  0.00  0.00    +0.295 HD
ENDBRANCH  17  19
ENDBRANCH  15  17
BRANCH  14  21
ATOM     21  O   UNL     1       4.499  -7.446  24.013  0.00  0.00    -0.386 OA
ATOM     22  H   UNL     1       4.217  -6.671  23.500  0.00  0.00    +0.210 HD
ENDBRANCH  14  21
BRANCH  13  23
ATOM     23  O   UNL     1       2.630  -6.568  26.986  0.00  0.00    -0.386 OA
ATOM     24  H   UNL     1       2.283  -7.435  27.300  0.00  0.00    +0.210 HD
ENDBRANCH  13  23
BRANCH  12  25
ATOM     25  O   UNL     1       2.751  -5.265  23.472  0.00  0.00    -0.384 OA
ATOM     26  H   UNL     1       2.607  -6.194  23.208  0.00  0.00    +0.210 HD
ENDBRANCH  12  25
ENDBRANCH  10  11
ENDBRANCH   6  10
ENDBRANCH   5   6
ENDBRANCH   1   5
BRANCH   1  27
ATOM     27  O   UNL     1       7.842   0.148  27.247  0.00  0.00    -0.284 OA
BRANCH  27  28
ATOM     28  C   UNL     1       8.681  -0.925  26.849  0.00  0.00    +0.206 C 
BRANCH  28  33
ATOM     29  C   UNL     1       9.238  -0.461  24.406  0.00  0.00    +0.178 C 
ATOM     30  C   UNL     1       9.326  -1.377  23.191  0.00  0.00    +0.195 C 
ATOM     31  C   UNL     1       9.137  -2.800  23.776  0.00  0.00    +0.255 C 
ATOM     32  O   UNL     1       8.865  -2.651  25.188  0.00  0.00    -0.346 OA
ATOM     33  C   UNL     1       8.441  -1.299  25.393  0.00  0.00    +0.178 C 
BRANCH  31  34
ATOM     34  N   UNL     1       8.068  -3.578  23.124  0.00  0.00    -0.271 N 
ATOM     35  C   UNL     1       8.017  -4.942  23.402  0.00  0.00    +0.331 A 
ATOM     36  O   UNL     1       8.843  -5.511  24.111  0.00  0.00    -0.246 OA
ATOM     37  N   UNL     1       6.984  -5.630  22.818  0.00  0.00    -0.275 N 
ATOM     38  H   UNL     1       6.914  -6.614  23.032  0.00  0.00    +0.173 HD
ATOM     39  C   UNL     1       5.949  -5.077  22.118  0.00  0.00    +0.254 A 
ATOM     40  O   UNL     1       4.984  -5.719  21.730  0.00  0.00    -0.268 OA
ATOM     41  C   UNL     1       6.050  -3.633  21.866  0.00  0.00    +0.088 A 
ATOM     42  C   UNL     1       7.074  -2.961  22.383  0.00  0.00    +0.098 A 
ENDBRANCH  31  34
BRANCH  29  43
ATOM     43  O   UNL     1       8.572   0.759  24.093  0.00  0.00    -0.386 OA
ATOM     44  H   UNL     1       9.112   1.234  23.434  0.00  0.00    +0.210 HD
ENDBRANCH  29  43
BRANCH  30  45
ATOM     45  O   UNL     1      10.609  -1.244  22.566  0.00  0.00    -0.385 OA
ATOM     46  H   UNL     1      10.452  -1.323  21.602  0.00  0.00    +0.210 HD
ENDBRANCH  30  45
ENDBRANCH  28  33
ENDBRANCH  27  28
ENDBRANCH   1  27
TORSDOF 17
ENDMDL
MODEL 3
REMARK VINA RESULT:      -7.4      1.664      2.204
REMARK  Name = 
REMARK  17 active torsions:
REMARK  status: ('A' for Active; 'I' for Inactive)
REMARK    1  A    between atoms: O_1  and  C_2
REMARK    2  A    between atoms: C_4  and  C_6
REMARK    3  A    between atoms: C_6  and  O_7
REMARK    4  A    between atoms: O_7  and  P_8
REMARK    5  A    between atoms: P_8  and  O_9
REMARK    6  A    between atoms: P_8  and  O_11
REMARK    7  A    between atoms: O_11  and  P_12
REMARK    8  A    between atoms: P_12  and  O_13
REMARK    9  A    between atoms: P_12  and  O_15
REMARK   10  A    between atoms: O_15  and  C_16
REMARK   11  A    between atoms: C_19  and  C_30
REMARK   12  A    between atoms: C_21  and  O_23
REMARK   13  A    between atoms: C_24  and  O_26
REMARK   14  A    between atoms: C_27  and  O_29
REMARK   15  A    between atoms: C_30  and  O_31
REMARK   16  A    between atoms: C_34  and  N_39
REMARK   17  A    between atoms: C_36  and  O_38
REMARK                            x       y       z     vdW  Elec       q    Type
REMARK                         _______ _______ _______ _____ _____    ______ ____
ROOT
ATOM      1  P   UNL     1       9.518  -0.862  23.819  0.00  0.00    +0.483 P 
ATOM      2  O   UNL     1      10.892  -0.456  23.281  0.00  0.00    -0.227 OA
ENDROOT
BRANCH   1   3
ATOM      3  O   UNL     1       9.800  -2.180  24.764  0.00  0.00    -0.302 OA
ATOM      4  H   UNL     1       9.084  -2.843  24.803  0.00  0.00    +0.222 HD
ENDBRANCH   1   3
BRANCH   1   5
ATOM      5  O   UNL     1       9.705   0.202  25.170  0.00  0.00    -0.186 OA
BRANCH   5   6
ATOM      6  P   UNL     1       8.797   1.648  24.896  0.00  0.00    +0.486 P 
ATOM      7  O   UNL     1       7.778   0.838  24.083  0.00  0.00    -0.227 OA
BRANCH   6   8
ATOM      8  O   UNL     1       9.901   2.171  23.813  0.00  0.00    -0.302 OA
ATOM      9  H   UNL     1       9.560   2.906  23.260  0.00  0.00    +0.222 HD
ENDBRANCH   6   8
BRANCH   6  10
ATOM     10  O   UNL     1       7.888   3.094  24.620  0.00  0.00    -0.254 OA
BRANCH  10  11
ATOM     11  C   UNL     1       8.515   3.856  23.596  0.00  0.00    +0.294 C 
ATOM     12  C   UNL     1       8.582   5.385  23.867  0.00  0.00    +0.202 C 
ATOM     13  C   UNL     1       7.210   6.044  23.629  0.00  0.00    +0.179 C 
ATOM     14  C   UNL     1       6.662   5.657  22.258  0.00  0.00    +0.185 C 
ATOM     15  C   UNL     1       6.638   4.125  22.094  0.00  0.00    +0.260 C 
ATOM     16  O   UNL     1       7.904   3.518  22.353  0.00  0.00    -0.331 OA
BRANCH  15  17
ATOM     17  C   UNL     1       5.395   3.491  22.753  0.00  0.00    +0.337 C 
ATOM     18  O   UNL     1       4.367   4.112  22.987  0.00  0.00    -0.248 OA
BRANCH  17  19
ATOM     19  O   UNL     1       5.487   2.157  22.949  0.00  0.00    -0.479 OA
ATOM     20  H   UNL     1       5.942   1.710  22.201  0.00  0.00    +0.295 HD
ENDBRANCH  17  19
ENDBRANCH  15  17
BRANCH  14  21
ATOM     21  O   UNL     1       7.498   6.270  21.260  0.00  0.00    -0.386 OA
ATOM     22  H   UNL     1       6.917   6.674  20.593  0.00  0.00    +0.210 HD
ENDBRANCH  14  21
BRANCH  13  23
ATOM     23  O   UNL     1       6.226   5.699  24.600  0.00  0.00    -0.386 OA
ATOM     24  H   UNL     1       5.319   5.949  24.305  0.00  0.00    +0.210 HD
ENDBRANCH  13  23
BRANCH  12  25
ATOM     25  O   UNL     1       9.651   5.949  23.096  0.00  0.00    -0.384 OA
ATOM     26  H   UNL     1       9.529   5.674  22.167  0.00  0.00    +0.210 HD
ENDBRANCH  12  25
ENDBRANCH  10  11
ENDBRANCH   6  10
ENDBRANCH   5   6
ENDBRANCH   1   5
BRANCH   1  27
ATOM     27  O   UNL     1       9.331  -1.927  22.467  0.00  0.00    -0.284 OA
BRANCH  27  28
ATOM     28  C   UNL     1       7.998  -2.057  22.000  0.00  0.00    +0.206 C 
BRANCH  28  33
ATOM     29  C   UNL     1       6.411  -4.045  21.840  0.00  0.00    +0.178 C 
ATOM     30  C   UNL     1       6.321  -5.341  22.637  0.00  0.00    +0.195 C 
ATOM     31  C   UNL     1       7.566  -5.305  23.560  0.00  0.00    +0.255 C 
ATOM     32  O   UNL     1       8.221  -4.034  23.347  0.00  0.00    -0.346 OA
ATOM     33  C   UNL     1       7.260  -3.163  22.742  0.00  0.00    +0.178 C 
BRANCH  31  34
ATOM     34  N   UNL     1       7.258  -5.493  24.989  0.00  0.00    -0.271 N 
ATOM     35  C   UNL     1       8.328  -5.456  25.879  0.00  0.00    +0.331 A 
ATOM     36  O   UNL     1       9.495  -5.328  25.516  0.00  0.00    -0.246 OA
ATOM     37  N   UNL     1       8.005  -5.587  27.205  0.00  0.00    -0.275 N 
ATOM     38  H   UNL     1       8.764  -5.534  27.867  0.00  0.00    +0.173 HD
ATOM     39  C   UNL     1       6.740  -5.613  27.722  0.00  0.00    +0.254 A 
ATOM     40  O   UNL     1       6.506  -5.599  28.922  0.00  0.00    -0.268 OA
ATOM     41  C   UNL     1       5.650  -5.637  26.737  0.00  0.00    +0.088 A 
ATOM     42  C   UNL     1       5.952  -5.562  25.444  0.00  0.00    +0.098 A 
ENDBRANCH  31  34
BRANCH  29  43
ATOM     43  O   UNL     1       5.123  -3.480  21.614  0.00  0.00    -0.386 OA
ATOM     44  H   UNL     1       5.091  -3.173  20.688  0.00  0.00    +0.210 HD
ENDBRANCH  29  43
BRANCH  30  45
ATOM     45  O   UNL     1       6.369  -6.468  21.752  0.00  0.00    -0.385 OA
ATOM     46  H   UNL     1       6.204  -7.258  22.308  0.00  0.00    +0.210 HD
ENDBRANCH  30  45
ENDBRANCH  28  33
ENDBRANCH  27  28
ENDBRANCH   1  27
TORSDOF 17
ENDMDL
MODEL 4
REMARK VINA RESULT:      -7.4      2.983      5.264
REMARK  Name = 
REMARK  17 active torsions:
REMARK  status: ('A' for Active; 'I' for Inactive)
REMARK    1  A    between atoms: O_1  and  C_2
REMARK    2  A    between atoms: C_4  and  C_6
REMARK    3  A    between atoms: C_6  and  O_7
REMARK    4  A    between atoms: O_7  and  P_8
REMARK    5  A    between atoms: P_8  and  O_9
REMARK    6  A    between atoms: P_8  and  O_11
REMARK    7  A    between atoms: O_11  and  P_12
REMARK    8  A    between atoms: P_12  and  O_13
REMARK    9  A    between atoms: P_12  and  O_15
REMARK   10  A    between atoms: O_15  and  C_16
REMARK   11  A    between atoms: C_19  and  C_30
REMARK   12  A    between atoms: C_21  and  O_23
REMARK   13  A    between atoms: C_24  and  O_26
REMARK   14  A    between atoms: C_27  and  O_29
REMARK   15  A    between atoms: C_30  and  O_31
REMARK   16  A    between atoms: C_34  and  N_39
REMARK   17  A    between atoms: C_36  and  O_38
REMARK                            x       y       z     vdW  Elec       q    Type
REMARK                         _______ _______ _______ _____ _____    ______ ____
ROOT
ATOM      1  P   UNL     1       4.631  -0.500  27.058  0.00  0.00    +0.483 P 
ATOM      2  O   UNL     1       4.338  -0.496  28.561  0.00  0.00    -0.227 OA
ENDROOT
BRANCH   1   3
ATOM      3  O   UNL     1       3.365   0.296  26.372  0.00  0.00    -0.302 OA
ATOM      4  H   UNL     1       2.474  -0.021  26.615  0.00  0.00    +0.222 HD
ENDBRANCH   1   3
BRANCH   1   5
ATOM      5  O   UNL     1       5.533   0.968  27.206  0.00  0.00    -0.186 OA
BRANCH   5   6
ATOM      6  P   UNL     1       6.746   1.027  25.974  0.00  0.00    +0.486 P 
ATOM      7  O   UNL     1       6.216  -0.297  25.407  0.00  0.00    -0.227 OA
BRANCH   6   8
ATOM      8  O   UNL     1       7.900   0.610  27.049  0.00  0.00    -0.302 OA
ATOM      9  H   UNL     1       7.639   0.812  27.973  0.00  0.00    +0.222 HD
ENDBRANCH   6   8
BRANCH   6  10
ATOM     10  O   UNL     1       7.959   1.085  24.742  0.00  0.00    -0.254 OA
BRANCH  10  11
ATOM     11  C   UNL     1       8.134  -0.215  24.191  0.00  0.00    +0.294 C 
ATOM     12  C   UNL     1       9.501  -0.881  24.510  0.00  0.00    +0.202 C 
ATOM     13  C   UNL     1      10.620  -0.275  23.642  0.00  0.00    +0.179 C 
ATOM     14  C   UNL     1      10.223  -0.294  22.168  0.00  0.00    +0.185 C 
ATOM     15  C   UNL     1       8.857   0.390  21.964  0.00  0.00    +0.260 C 
ATOM     16  O   UNL     1       7.834  -0.152  22.799  0.00  0.00    -0.331 OA
BRANCH  15  17
ATOM     17  C   UNL     1       8.982   1.926  21.895  0.00  0.00    +0.337 C 
ATOM     18  O   UNL     1       8.063   2.688  22.168  0.00  0.00    -0.248 OA
BRANCH  17  19
ATOM     19  O   UNL     1      10.226   2.373  21.618  0.00  0.00    -0.479 OA
ATOM     20  H   UNL     1      10.557   2.022  20.762  0.00  0.00    +0.295 HD
ENDBRANCH  17  19
ENDBRANCH  15  17
BRANCH  14  21
ATOM     21  O   UNL     1      10.183  -1.667  21.740  0.00  0.00    -0.386 OA
ATOM     22  H   UNL     1      10.881  -2.147  22.216  0.00  0.00    +0.210 HD
ENDBRANCH  14  21
BRANCH  13  23
ATOM     23  O   UNL     1      10.954   1.068  23.982  0.00  0.00    -0.386 OA
ATOM     24  H   UNL     1      11.676   1.420  23.410  0.00  0.00    +0.210 HD
ENDBRANCH  13  23
BRANCH  12  25
ATOM     25  O   UNL     1       9.366  -2.304  24.393  0.00  0.00    -0.384 OA
ATOM     26  H   UNL     1       8.974  -2.497  23.519  0.00  0.00    +0.210 HD
ENDBRANCH  12  25
ENDBRANCH  10  11
ENDBRANCH   6  10
ENDBRANCH   5   6
ENDBRANCH   1   5
BRANCH   1  27
ATOM     27  O   UNL     1       3.729  -1.970  26.912  0.00  0.00    -0.284 OA
BRANCH  27  28
ATOM     28  C   UNL     1       4.397  -3.123  27.398  0.00  0.00    +0.206 C 
BRANCH  28  33
ATOM     29  C   UNL     1       6.836  -3.744  26.997  0.00  0.00    +0.178 C 
ATOM     30  C   UNL     1       7.485  -4.779  26.086  0.00  0.00    +0.195 C 
ATOM     31  C   UNL     1       6.287  -5.562  25.488  0.00  0.00    +0.255 C 
ATOM     32  O   UNL     1       5.079  -4.927  25.966  0.00  0.00    -0.346 OA
ATOM     33  C   UNL     1       5.441  -3.614  26.404  0.00  0.00    +0.178 C 
BRANCH  31  34
ATOM     34  N   UNL     1       6.289  -5.628  24.016  0.00  0.00    -0.271 N 
ATOM     35  C   UNL     1       5.307  -6.411  23.415  0.00  0.00    +0.331 A 
ATOM     36  O   UNL     1       4.495  -7.074  24.057  0.00  0.00    -0.246 OA
ATOM     37  N   UNL     1       5.305  -6.415  22.043  0.00  0.00    -0.275 N 
ATOM     38  H   UNL     1       4.582  -6.954  21.591  0.00  0.00    +0.173 HD
ATOM     39  C   UNL     1       6.079  -5.627  21.240  0.00  0.00    +0.254 A 
ATOM     40  O   UNL     1       5.947  -5.573  20.026  0.00  0.00    -0.268 OA
ATOM     41  C   UNL     1       7.089  -4.812  21.929  0.00  0.00    +0.088 A 
ATOM     42  C   UNL     1       7.135  -4.837  23.258  0.00  0.00    +0.098 A 
ENDBRANCH  31  34
BRANCH  29  43
ATOM     43  O   UNL     1       7.539  -2.506  26.964  0.00  0.00    -0.386 OA
ATOM     44  H   UNL     1       8.130  -2.519  26.187  0.00  0.00    +0.210 HD
ENDBRANCH  29  43
BRANCH  30  45
ATOM     45  O   UNL     1       8.335  -5.644  26.850  0.00  0.00    -0.385 OA
ATOM     46  H   UNL     1       9.254  -5.376  26.642  0.00  0.00    +0.210 HD
ENDBRANCH  30  45
ENDBRANCH  28  33
ENDBRANCH  27  28
ENDBRANCH   1  27
TORSDOF 17
ENDMDL
MODEL 5
REMARK VINA RESULT:      -7.3      2.803      4.806
REMARK  Name = 
REMARK  17 active torsions:
REMARK  status: ('A' for Active; 'I' for Inactive)
REMARK    1  A    between atoms: O_1  and  C_2
REMARK    2  A    between atoms: C_4  and  C_6
REMARK    3  A    between atoms: C_6  and  O_7
REMARK    4  A    between atoms: O_7  and  P_8
REMARK    5  A    between atoms: P_8  and  O_9
REMARK    6  A    between atoms: P_8  and  O_11
REMARK    7  A    between atoms: O_11  and  P_12
REMARK    8  A    between atoms: P_12  and  O_13
REMARK    9  A    between atoms: P_12  and  O_15
REMARK   10  A    between atoms: O_15  and  C_16
REMARK   11  A    between atoms: C_19  and  C_30
REMARK   12  A    between atoms: C_21  and  O_23
REMARK   13  A    between atoms: C_24  and  O_26
REMARK   14  A    between atoms: C_27  and  O_29
REMARK   15  A    between atoms: C_30  and  O_31
REMARK   16  A    between atoms: C_34  and  N_39
REMARK   17  A    between atoms: C_36  and  O_38
REMARK                            x       y       z     vdW  Elec       q    Type
REMARK                         _______ _______ _______ _____ _____    ______ ____
ROOT
ATOM      1  P   UNL     1       5.377  -0.164  27.181  0.00  0.00    +0.483 P 
ATOM      2  O   UNL     1       5.095   1.243  27.714  0.00  0.00    -0.227 OA
ENDROOT
BRANCH   1   3
ATOM      3  O   UNL     1       5.933   0.062  25.649  0.00  0.00    -0.302 OA
ATOM      4  H   UNL     1       5.633  -0.586  24.981  0.00  0.00    +0.222 HD
ENDBRANCH   1   3
BRANCH   1   5
ATOM      5  O   UNL     1       6.984  -0.110  27.819  0.00  0.00    -0.186 OA
BRANCH   5   6
ATOM      6  P   UNL     1       8.120  -0.409  26.549  0.00  0.00    +0.486 P 
ATOM      7  O   UNL     1       7.638  -1.864  26.479  0.00  0.00    -0.227 OA
BRANCH   6   8
ATOM      8  O   UNL     1       9.356  -0.410  27.615  0.00  0.00    -0.302 OA
ATOM      9  H   UNL     1      10.176  -0.789  27.234  0.00  0.00    +0.222 HD
ENDBRANCH   6   8
BRANCH   6  10
ATOM     10  O   UNL     1       9.256  -0.709  25.279  0.00  0.00    -0.254 OA
BRANCH  10  11
ATOM     11  C   UNL     1       9.782   0.529  24.816  0.00  0.00    +0.294 C 
ATOM     12  C   UNL     1       8.716   1.549  24.329  0.00  0.00    +0.202 C 
ATOM     13  C   UNL     1       8.182   1.162  22.938  0.00  0.00    +0.179 C 
ATOM     14  C   UNL     1       9.338   0.927  21.968  0.00  0.00    +0.185 C 
ATOM     15  C   UNL     1      10.332  -0.099  22.546  0.00  0.00    +0.260 C 
ATOM     16  O   UNL     1      10.794   0.248  23.851  0.00  0.00    -0.331 OA
BRANCH  15  17
ATOM     17  C   UNL     1       9.866  -1.551  22.317  0.00  0.00    +0.337 C 
ATOM     18  O   UNL     1       9.029  -1.865  21.481  0.00  0.00    -0.248 OA
BRANCH  17  19
ATOM     19  O   UNL     1      10.540  -2.474  23.038  0.00  0.00    -0.479 OA
ATOM     20  H   UNL     1      11.175  -2.978  22.482  0.00  0.00    +0.295 HD
ENDBRANCH  17  19
ENDBRANCH  15  17
BRANCH  14  21
ATOM     21  O   UNL     1       9.980   2.193  21.732  0.00  0.00    -0.386 OA
ATOM     22  H   UNL     1       9.567   2.849  22.320  0.00  0.00    +0.210 HD
ENDBRANCH  14  21
BRANCH  13  23
ATOM     23  O   UNL     1       7.371  -0.010  22.934  0.00  0.00    -0.386 OA
ATOM     24  H   UNL     1       7.896  -0.817  22.725  0.00  0.00    +0.210 HD
ENDBRANCH  13  23
BRANCH  12  25
ATOM     25  O   UNL     1       9.267   2.871  24.404  0.00  0.00    -0.384 OA
ATOM     26  H   UNL     1       8.975   3.271  25.246  0.00  0.00    +0.210 HD
ENDBRANCH  12  25
ENDBRANCH  10  11
ENDBRANCH   6  10
ENDBRANCH   5   6
ENDBRANCH   1   5
BRANCH   1  27
ATOM     27  O   UNL     1       3.769  -0.218  26.542  0.00  0.00    -0.284 OA
BRANCH  27  28
ATOM     28  C   UNL     1       3.015  -1.352  26.940  0.00  0.00    +0.206 C 
BRANCH  28  33
ATOM     29  C   UNL     1       2.712  -3.812  26.347  0.00  0.00    +0.178 C 
ATOM     30  C   UNL     1       3.415  -4.708  25.335  0.00  0.00    +0.195 C 
ATOM     31  C   UNL     1       4.342  -3.742  24.553  0.00  0.00    +0.255 C 
ATOM     32  O   UNL     1       4.220  -2.439  25.169  0.00  0.00    -0.346 OA
ATOM     33  C   UNL     1       3.676  -2.643  26.477  0.00  0.00    +0.178 C 
BRANCH  31  34
ATOM     34  N   UNL     1       5.753  -4.165  24.515  0.00  0.00    -0.271 N 
ATOM     35  C   UNL     1       6.559  -3.595  23.533  0.00  0.00    +0.331 A 
ATOM     36  O   UNL     1       6.131  -2.814  22.686  0.00  0.00    -0.246 OA
ATOM     37  N   UNL     1       7.878  -3.973  23.552  0.00  0.00    -0.275 N 
ATOM     38  H   UNL     1       8.483  -3.548  22.865  0.00  0.00    +0.173 HD
ATOM     39  C   UNL     1       8.478  -4.734  24.514  0.00  0.00    +0.254 A 
ATOM     40  O   UNL     1       9.683  -4.934  24.556  0.00  0.00    -0.268 OA
ATOM     41  C   UNL     1       7.581  -5.298  25.532  0.00  0.00    +0.088 A 
ATOM     42  C   UNL     1       6.290  -4.981  25.496  0.00  0.00    +0.098 A 
ENDBRANCH  31  34
BRANCH  29  43
ATOM     43  O   UNL     1       2.523  -4.478  27.593  0.00  0.00    -0.386 OA
ATOM     44  H   UNL     1       2.486  -3.798  28.292  0.00  0.00    +0.210 HD
ENDBRANCH  29  43
BRANCH  30  45
ATOM     45  O   UNL     1       2.453  -5.317  24.464  0.00  0.00    -0.385 OA
ATOM     46  H   UNL     1       2.036  -4.585  23.964  0.00  0.00    +0.210 HD
ENDBRANCH  30  45
ENDBRANCH  28  33
ENDBRANCH  27  28
ENDBRANCH   1  27
TORSDOF 17
ENDMDL
MODEL 6
REMARK VINA RESULT:      -7.3      2.086      3.828
REMARK  Name = 
REMARK  17 active torsions:
REMARK  status: ('A' for Active; 'I' for Inactive)
REMARK    1  A    between atoms: O_1  and  C_2
REMARK    2  A    between atoms: C_4  and  C_6
REMARK    3  A    between atoms: C_6  and  O_7
REMARK    4  A    between atoms: O_7  and  P_8
REMARK    5  A    between atoms: P_8  and  O_9
REMARK    6  A    between atoms: P_8  and  O_11
REMARK    7  A    between atoms: O_11  and  P_12
REMARK    8  A    between atoms: P_12  and  O_13
REMARK    9  A    between atoms: P_12  and  O_15
REMARK   10  A    between atoms: O_15  and  C_16
REMARK   11  A    between atoms: C_19  and  C_30
REMARK   12  A    between atoms: C_21  and  O_23
REMARK   13  A    between atoms: C_24  and  O_26
REMARK   14  A    between atoms: C_27  and  O_29
REMARK   15  A    between atoms: C_30  and  O_31
REMARK   16  A    between atoms: C_34  and  N_39
REMARK   17  A    between atoms: C_36  and  O_38
REMARK                            x       y       z     vdW  Elec       q    Type
REMARK                         _______ _______ _______ _____ _____    ______ ____
ROOT
ATOM      1  P   UNL     1       9.804  -1.228  22.239  0.00  0.00    +0.483 P 
ATOM      2  O   UNL     1      10.549  -0.291  23.193  0.00  0.00    -0.227 OA
ENDROOT
BRANCH   1   3
ATOM      3  O   UNL     1       8.273  -1.318  22.835  0.00  0.00    -0.302 OA
ATOM      4  H   UNL     1       7.886  -0.481  23.158  0.00  0.00    +0.222 HD
ENDBRANCH   1   3
BRANCH   1   5
ATOM      5  O   UNL     1       9.378   0.106  21.223  0.00  0.00    -0.186 OA
BRANCH   5   6
ATOM      6  P   UNL     1       9.066   1.498  22.201  0.00  0.00    +0.486 P 
ATOM      7  O   UNL     1       7.844   1.819  21.330  0.00  0.00    -0.227 OA
BRANCH   6   8
ATOM      8  O   UNL     1      10.312   2.297  21.513  0.00  0.00    -0.302 OA
ATOM      9  H   UNL     1      11.181   1.920  21.768  0.00  0.00    +0.222 HD
ENDBRANCH   6   8
BRANCH   6  10
ATOM     10  O   UNL     1       8.754   2.892  23.177  0.00  0.00    -0.254 OA
BRANCH  10  11
ATOM     11  C   UNL     1       8.842   2.534  24.551  0.00  0.00    +0.294 C 
ATOM     12  C   UNL     1       7.979   1.309  24.963  0.00  0.00    +0.202 C 
ATOM     13  C   UNL     1       6.494   1.700  25.078  0.00  0.00    +0.179 C 
ATOM     14  C   UNL     1       6.332   2.931  25.967  0.00  0.00    +0.185 C 
ATOM     15  C   UNL     1       7.228   4.082  25.471  0.00  0.00    +0.260 C 
ATOM     16  O   UNL     1       8.597   3.702  25.331  0.00  0.00    -0.331 OA
BRANCH  15  17
ATOM     17  C   UNL     1       6.582   4.859  24.305  0.00  0.00    +0.337 C 
ATOM     18  O   UNL     1       5.372   4.925  24.129  0.00  0.00    -0.248 OA
BRANCH  17  19
ATOM     19  O   UNL     1       7.455   5.562  23.551  0.00  0.00    -0.479 OA
ATOM     20  H   UNL     1       7.918   4.990  22.900  0.00  0.00    +0.295 HD
ENDBRANCH  17  19
ENDBRANCH  15  17
BRANCH  14  21
ATOM     21  O   UNL     1       6.676   2.551  27.312  0.00  0.00    -0.386 OA
ATOM     22  H   UNL     1       7.181   1.722  27.266  0.00  0.00    +0.210 HD
ENDBRANCH  14  21
BRANCH  13  23
ATOM     23  O   UNL     1       5.872   1.986  23.828  0.00  0.00    -0.386 OA
ATOM     24  H   UNL     1       5.498   1.175  23.413  0.00  0.00    +0.210 HD
ENDBRANCH  13  23
BRANCH  12  25
ATOM     25  O   UNL     1       8.531   0.728  26.153  0.00  0.00    -0.384 OA
ATOM     26  H   UNL     1       8.443  -0.242  26.082  0.00  0.00    +0.210 HD
ENDBRANCH  12  25
ENDBRANCH  10  11
ENDBRANCH   6  10
ENDBRANCH   5   6
ENDBRANCH   1   5
BRANCH   1  27
ATOM     27  O   UNL     1      10.230  -2.563  23.256  0.00  0.00    -0.284 OA
BRANCH  27  28
ATOM     28  C   UNL     1       9.589  -2.567  24.521  0.00  0.00    +0.206 C 
BRANCH  28  33
ATOM     29  C   UNL     1       9.248  -4.769  25.758  0.00  0.00    +0.178 C 
ATOM     30  C   UNL     1       7.987  -5.518  26.171  0.00  0.00    +0.195 C 
ATOM     31  C   UNL     1       6.833  -4.551  25.800  0.00  0.00    +0.255 C 
ATOM     32  O   UNL     1       7.427  -3.409  25.141  0.00  0.00    -0.346 OA
ATOM     33  C   UNL     1       8.728  -3.809  24.699  0.00  0.00    +0.178 C 
BRANCH  31  34
ATOM     34  N   UNL     1       5.796  -5.157  24.947  0.00  0.00    -0.271 N 
ATOM     35  C   UNL     1       5.116  -6.259  25.460  0.00  0.00    +0.331 A 
ATOM     36  O   UNL     1       5.385  -6.762  26.549  0.00  0.00    -0.246 OA
ATOM     37  N   UNL     1       4.125  -6.772  24.663  0.00  0.00    -0.275 N 
ATOM     38  H   UNL     1       3.603  -7.553  25.031  0.00  0.00    +0.173 HD
ATOM     39  C   UNL     1       3.669  -6.221  23.500  0.00  0.00    +0.254 A 
ATOM     40  O   UNL     1       2.694  -6.645  22.894  0.00  0.00    -0.268 OA
ATOM     41  C   UNL     1       4.414  -5.053  23.012  0.00  0.00    +0.088 A 
ATOM     42  C   UNL     1       5.412  -4.575  23.751  0.00  0.00    +0.098 A 
ENDBRANCH  31  34
BRANCH  29  43
ATOM     43  O   UNL     1      10.231  -5.653  25.228  0.00  0.00    -0.386 OA
ATOM     44  H   UNL     1      10.342  -6.389  25.860  0.00  0.00    +0.210 HD
ENDBRANCH  29  43
BRANCH  30  45
ATOM     45  O   UNL     1       8.008  -5.776  27.581  0.00  0.00    -0.385 OA
ATOM     46  H   UNL     1       8.491  -5.028  27.989  0.00  0.00    +0.210 HD
ENDBRANCH  30  45
ENDBRANCH  28  33
ENDBRANCH  27  28
ENDBRANCH   1  27
TORSDOF 17
ENDMDL
MODEL 7
REMARK VINA RESULT:      -7.3      1.867      3.121
REMARK  Name = 
REMARK  17 active torsions:
REMARK  status: ('A' for Active; 'I' for Inactive)
REMARK    1  A    between atoms: O_1  and  C_2
REMARK    2  A    between atoms: C_4  and  C_6
REMARK    3  A    between atoms: C_6  and  O_7
REMARK    4  A    between atoms: O_7  and  P_8
REMARK    5  A    between atoms: P_8  and  O_9
REMARK    6  A    between atoms: P_8  and  O_11
REMARK    7  A    between atoms: O_11  and  P_12
REMARK    8  A    between atoms: P_12  and  O_13
REMARK    9  A    between atoms: P_12  and  O_15
REMARK   10  A    between atoms: O_15  and  C_16
REMARK   11  A    between atoms: C_19  and  C_30
REMARK   12  A    between atoms: C_21  and  O_23
REMARK   13  A    between atoms: C_24  and  O_26
REMARK   14  A    between atoms: C_27  and  O_29
REMARK   15  A    between atoms: C_30  and  O_31
REMARK   16  A    between atoms: C_34  and  N_39
REMARK   17  A    between atoms: C_36  and  O_38
REMARK                            x       y       z     vdW  Elec       q    Type
REMARK                         _______ _______ _______ _____ _____    ______ ____
ROOT
ATOM      1  P   UNL     1       9.627  -1.049  22.492  0.00  0.00    +0.483 P 
ATOM      2  O   UNL     1       8.443  -1.862  21.963  0.00  0.00    -0.227 OA
ENDROOT
BRANCH   1   3
ATOM      3  O   UNL     1      10.917  -1.534  21.592  0.00  0.00    -0.302 OA
ATOM      4  H   UNL     1      11.748  -1.039  21.728  0.00  0.00    +0.222 HD
ENDBRANCH   1   3
BRANCH   1   5
ATOM      5  O   UNL     1       9.276   0.230  21.381  0.00  0.00    -0.186 OA
BRANCH   5   6
ATOM      6  P   UNL     1       8.547   1.548  22.231  0.00  0.00    +0.486 P 
ATOM      7  O   UNL     1       9.293   1.124  23.503  0.00  0.00    -0.227 OA
BRANCH   6   8
ATOM      8  O   UNL     1       7.117   0.763  22.281  0.00  0.00    -0.302 OA
ATOM      9  H   UNL     1       7.153  -0.105  21.828  0.00  0.00    +0.222 HD
ENDBRANCH   6   8
BRANCH   6  10
ATOM     10  O   UNL     1       7.818   2.867  23.081  0.00  0.00    -0.254 OA
BRANCH  10  11
ATOM     11  C   UNL     1       7.301   3.804  22.144  0.00  0.00    +0.294 C 
ATOM     12  C   UNL     1       7.495   5.294  22.537  0.00  0.00    +0.202 C 
ATOM     13  C   UNL     1       6.489   5.709  23.627  0.00  0.00    +0.179 C 
ATOM     14  C   UNL     1       5.068   5.331  23.215  0.00  0.00    +0.185 C 
ATOM     15  C   UNL     1       4.988   3.836  22.848  0.00  0.00    +0.260 C 
ATOM     16  O   UNL     1       5.948   3.452  21.864  0.00  0.00    -0.331 OA
BRANCH  15  17
ATOM     17  C   UNL     1       4.848   2.940  24.096  0.00  0.00    +0.337 C 
ATOM     18  O   UNL     1       4.445   3.349  25.177  0.00  0.00    -0.248 OA
BRANCH  17  19
ATOM     19  O   UNL     1       5.096   1.631  23.873  0.00  0.00    -0.479 OA
ATOM     20  H   UNL     1       4.339   1.186  23.433  0.00  0.00    +0.295 HD
ENDBRANCH  17  19
ENDBRANCH  15  17
BRANCH  14  21
ATOM     21  O   UNL     1       4.699   6.158  22.097  0.00  0.00    -0.386 OA
ATOM     22  H   UNL     1       4.258   5.591  21.441  0.00  0.00    +0.210 HD
ENDBRANCH  14  21
BRANCH  13  23
ATOM     23  O   UNL     1       6.740   5.120  24.900  0.00  0.00    -0.386 OA
ATOM     24  H   UNL     1       7.505   5.544  25.355  0.00  0.00    +0.210 HD
ENDBRANCH  13  23
BRANCH  12  25
ATOM     25  O   UNL     1       7.447   6.100  21.351  0.00  0.00    -0.384 OA
ATOM     26  H   UNL     1       6.953   5.603  20.671  0.00  0.00    +0.210 HD
ENDBRANCH  12  25
ENDBRANCH  10  11
ENDBRANCH   6  10
ENDBRANCH   5   6
ENDBRANCH   1   5
BRANCH   1  27
ATOM     27  O   UNL     1       9.978  -2.329  23.604  0.00  0.00    -0.284 OA
BRANCH  27  28
ATOM     28  C   UNL     1       9.143  -2.359  24.750  0.00  0.00    +0.206 C 
BRANCH  28  33
ATOM     29  C   UNL     1       9.047  -4.683  25.789  0.00  0.00    +0.178 C 
ATOM     30  C   UNL     1       7.874  -5.570  26.191  0.00  0.00    +0.195 C 
ATOM     31  C   UNL     1       6.628  -4.674  25.966  0.00  0.00    +0.255 C 
ATOM     32  O   UNL     1       7.091  -3.432  25.390  0.00  0.00    -0.346 OA
ATOM     33  C   UNL     1       8.394  -3.680  24.851  0.00  0.00    +0.178 C 
BRANCH  31  34
ATOM     34  N   UNL     1       5.596  -5.287  25.111  0.00  0.00    -0.271 N 
ATOM     35  C   UNL     1       4.953  -6.419  25.605  0.00  0.00    +0.331 A 
ATOM     36  O   UNL     1       5.248  -6.941  26.677  0.00  0.00    -0.246 OA
ATOM     37  N   UNL     1       3.965  -6.938  24.807  0.00  0.00    -0.275 N 
ATOM     38  H   UNL     1       3.469  -7.742  25.161  0.00  0.00    +0.173 HD
ATOM     39  C   UNL     1       3.480  -6.371  23.663  0.00  0.00    +0.254 A 
ATOM     40  O   UNL     1       2.510  -6.805  23.058  0.00  0.00    -0.268 OA
ATOM     41  C   UNL     1       4.189  -5.171  23.196  0.00  0.00    +0.088 A 
ATOM     42  C   UNL     1       5.182  -4.685  23.934  0.00  0.00    +0.098 A 
ENDBRANCH  31  34
BRANCH  29  43
ATOM     43  O   UNL     1      10.066  -5.431  25.133  0.00  0.00    -0.386 OA
ATOM     44  H   UNL     1      10.924  -5.017  25.346  0.00  0.00    +0.210 HD
ENDBRANCH  29  43
BRANCH  30  45
ATOM     45  O   UNL     1       7.992  -5.951  27.568  0.00  0.00    -0.385 OA
ATOM     46  H   UNL     1       7.689  -6.881  27.620  0.00  0.00    +0.210 HD
ENDBRANCH  30  45
ENDBRANCH  28  33
ENDBRANCH  27  28
ENDBRANCH   1  27
TORSDOF 17
ENDMDL
MODEL 8
REMARK VINA RESULT:      -7.3      2.721      5.133
REMARK  Name = 
REMARK  17 active torsions:
REMARK  status: ('A' for Active; 'I' for Inactive)
REMARK    1  A    between atoms: O_1  and  C_2
REMARK    2  A    between atoms: C_4  and  C_6
REMARK    3  A    between atoms: C_6  and  O_7
REMARK    4  A    between atoms: O_7  and  P_8
REMARK    5  A    between atoms: P_8  and  O_9
REMARK    6  A    between atoms: P_8  and  O_11
REMARK    7  A    between atoms: O_11  and  P_12
REMARK    8  A    between atoms: P_12  and  O_13
REMARK    9  A    between atoms: P_12  and  O_15
REMARK   10  A    between atoms: O_15  and  C_16
REMARK   11  A    between atoms: C_19  and  C_30
REMARK   12  A    between atoms: C_21  and  O_23
REMARK   13  A    between atoms: C_24  and  O_26
REMARK   14  A    between atoms: C_27  and  O_29
REMARK   15  A    between atoms: C_30  and  O_31
REMARK   16  A    between atoms: C_34  and  N_39
REMARK   17  A    between atoms: C_36  and  O_38
REMARK                            x       y       z     vdW  Elec       q    Type
REMARK                         _______ _______ _______ _____ _____    ______ ____
ROOT
ATOM      1  P   UNL     1       4.059  -1.981  27.207  0.00  0.00    +0.483 P 
ATOM      2  O   UNL     1       3.104  -0.917  27.755  0.00  0.00    -0.227 OA
ENDROOT
BRANCH   1   3
ATOM      3  O   UNL     1       4.285  -1.581  25.628  0.00  0.00    -0.302 OA
ATOM      4  H   UNL     1       3.730  -0.855  25.282  0.00  0.00    +0.222 HD
ENDBRANCH   1   3
BRANCH   1   5
ATOM      5  O   UNL     1       5.426  -1.037  27.689  0.00  0.00    -0.186 OA
BRANCH   5   6
ATOM      6  P   UNL     1       6.439  -0.747  26.317  0.00  0.00    +0.486 P 
ATOM      7  O   UNL     1       7.056  -2.141  26.494  0.00  0.00    -0.227 OA
BRANCH   6   8
ATOM      8  O   UNL     1       7.381   0.261  27.189  0.00  0.00    -0.302 OA
ATOM      9  H   UNL     1       7.269   1.198  26.923  0.00  0.00    +0.222 HD
ENDBRANCH   6   8
BRANCH   6  10
ATOM     10  O   UNL     1       7.453  -0.457  24.945  0.00  0.00    -0.254 OA
BRANCH  10  11
ATOM     11  C   UNL     1       7.082   0.774  24.337  0.00  0.00    +0.294 C 
ATOM     12  C   UNL     1       6.965   0.728  22.788  0.00  0.00    +0.202 C 
ATOM     13  C   UNL     1       8.360   0.732  22.134  0.00  0.00    +0.179 C 
ATOM     14  C   UNL     1       9.204   1.880  22.683  0.00  0.00    +0.185 C 
ATOM     15  C   UNL     1       9.254   1.831  24.222  0.00  0.00    +0.260 C 
ATOM     16  O   UNL     1       7.958   1.790  24.820  0.00  0.00    -0.331 OA
BRANCH  15  17
ATOM     17  C   UNL     1      10.309   0.830  24.737  0.00  0.00    +0.337 C 
ATOM     18  O   UNL     1      11.367   0.612  24.161  0.00  0.00    -0.248 OA
BRANCH  17  19
ATOM     19  O   UNL     1      10.024   0.291  25.943  0.00  0.00    -0.479 OA
ATOM     20  H   UNL     1       9.888   0.982  26.627  0.00  0.00    +0.295 HD
ENDBRANCH  17  19
ENDBRANCH  15  17
BRANCH  14  21
ATOM     21  O   UNL     1       8.623   3.113  22.223  0.00  0.00    -0.386 OA
ATOM     22  H   UNL     1       9.143   3.421  21.462  0.00  0.00    +0.210 HD
ENDBRANCH  14  21
BRANCH  13  23
ATOM     23  O   UNL     1       9.094  -0.474  22.327  0.00  0.00    -0.386 OA
ATOM     24  H   UNL     1       9.982  -0.433  21.901  0.00  0.00    +0.210 HD
ENDBRANCH  13  23
BRANCH  12  25
ATOM     25  O   UNL     1       6.105   1.789  22.353  0.00  0.00    -0.384 OA
ATOM     26  H   UNL     1       5.809   1.583  21.446  0.00  0.00    +0.210 HD
ENDBRANCH  12  25
ENDBRANCH  10  11
ENDBRANCH   6  10
ENDBRANCH   5   6
ENDBRANCH   1   5
BRANCH   1  27
ATOM     27  O   UNL     1       2.690  -2.926  26.726  0.00  0.00    -0.284 OA
BRANCH  27  28
ATOM     28  C   UNL     1       2.813  -4.315  26.984  0.00  0.00    +0.206 C 
BRANCH  28  33
ATOM     29  C   UNL     1       3.957  -6.388  26.041  0.00  0.00    +0.178 C 
ATOM     30  C   UNL     1       4.925  -6.576  24.879  0.00  0.00    +0.195 C 
ATOM     31  C   UNL     1       4.995  -5.177  24.215  0.00  0.00    +0.255 C 
ATOM     32  O   UNL     1       4.202  -4.278  25.023  0.00  0.00    -0.346 OA
ATOM     33  C   UNL     1       4.048  -4.894  26.306  0.00  0.00    +0.178 C 
BRANCH  31  34
ATOM     34  N   UNL     1       6.365  -4.656  24.058  0.00  0.00    -0.271 N 
ATOM     35  C   UNL     1       6.508  -3.432  23.410  0.00  0.00    +0.331 A 
ATOM     36  O   UNL     1       5.560  -2.815  22.930  0.00  0.00    -0.246 OA
ATOM     37  N   UNL     1       7.790  -2.952  23.321  0.00  0.00    -0.275 N 
ATOM     38  H   UNL     1       7.909  -2.052  22.880  0.00  0.00    +0.173 HD
ATOM     39  C   UNL     1       8.891  -3.493  23.921  0.00  0.00    +0.254 A 
ATOM     40  O   UNL     1       9.988  -2.954  23.920  0.00  0.00    -0.268 OA
ATOM     41  C   UNL     1       8.678  -4.778  24.602  0.00  0.00    +0.088 A 
ATOM     42  C   UNL     1       7.448  -5.281  24.653  0.00  0.00    +0.098 A 
ENDBRANCH  31  34
BRANCH  29  43
ATOM     43  O   UNL     1       4.352  -7.149  27.178  0.00  0.00    -0.386 OA
ATOM     44  H   UNL     1       3.828  -6.840  27.941  0.00  0.00    +0.210 HD
ENDBRANCH  29  43
BRANCH  30  45
ATOM     45  O   UNL     1       4.413  -7.554  23.964  0.00  0.00    -0.385 OA
ATOM     46  H   UNL     1       5.172  -8.124  23.721  0.00  0.00    +0.210 HD
ENDBRANCH  30  45
ENDBRANCH  28  33
ENDBRANCH  27  28
ENDBRANCH   1  27
TORSDOF 17
ENDMDL
MODEL 9
REMARK VINA RESULT:      -7.3      1.877      3.661
REMARK  Name = 
REMARK  17 active torsions:
REMARK  status: ('A' for Active; 'I' for Inactive)
REMARK    1  A    between atoms: O_1  and  C_2
REMARK    2  A    between atoms: C_4  and  C_6
REMARK    3  A    between atoms: C_6  and  O_7
REMARK    4  A    between atoms: O_7  and  P_8
REMARK    5  A    between atoms: P_8  and  O_9
REMARK    6  A    between atoms: P_8  and  O_11
REMARK    7  A    between atoms: O_11  and  P_12
REMARK    8  A    between atoms: P_12  and  O_13
REMARK    9  A    between atoms: P_12  and  O_15
REMARK   10  A    between atoms: O_15  and  C_16
REMARK   11  A    between atoms: C_19  and  C_30
REMARK   12  A    between atoms: C_21  and  O_23
REMARK   13  A    between atoms: C_24  and  O_26
REMARK   14  A    between atoms: C_27  and  O_29
REMARK   15  A    between atoms: C_30  and  O_31
REMARK   16  A    between atoms: C_34  and  N_39
REMARK   17  A    between atoms: C_36  and  O_38
REMARK                            x       y       z     vdW  Elec       q    Type
REMARK                         _______ _______ _______ _____ _____    ______ ____
ROOT
ATOM      1  P   UNL     1       9.801  -0.838  22.928  0.00  0.00    +0.483 P 
ATOM      2  O   UNL     1      10.676  -1.876  22.219  0.00  0.00    -0.227 OA
ENDROOT
BRANCH   1   3
ATOM      3  O   UNL     1      10.860   0.185  23.663  0.00  0.00    -0.302 OA
ATOM      4  H   UNL     1      11.217  -0.109  24.523  0.00  0.00    +0.222 HD
ENDBRANCH   1   3
BRANCH   1   5
ATOM      5  O   UNL     1       9.772   0.144  21.504  0.00  0.00    -0.186 OA
BRANCH   5   6
ATOM      6  P   UNL     1       8.706   1.485  21.750  0.00  0.00    +0.486 P 
ATOM      7  O   UNL     1       9.896   2.325  22.233  0.00  0.00    -0.227 OA
BRANCH   6   8
ATOM      8  O   UNL     1       8.091   0.788  23.091  0.00  0.00    -0.302 OA
ATOM      9  H   UNL     1       8.442  -0.117  23.235  0.00  0.00    +0.222 HD
ENDBRANCH   6   8
BRANCH   6  10
ATOM     10  O   UNL     1       7.641   2.825  21.997  0.00  0.00    -0.254 OA
BRANCH  10  11
ATOM     11  C   UNL     1       6.803   2.561  23.115  0.00  0.00    +0.294 C 
ATOM     12  C   UNL     1       5.317   2.977  22.930  0.00  0.00    +0.202 C 
ATOM     13  C   UNL     1       5.154   4.502  23.067  0.00  0.00    +0.179 C 
ATOM     14  C   UNL     1       5.806   4.997  24.356  0.00  0.00    +0.185 C 
ATOM     15  C   UNL     1       7.272   4.531  24.437  0.00  0.00    +0.260 C 
ATOM     16  O   UNL     1       7.419   3.121  24.273  0.00  0.00    -0.331 OA
BRANCH  15  17
ATOM     17  C   UNL     1       8.216   5.445  23.628  0.00  0.00    +0.337 C 
ATOM     18  O   UNL     1       7.975   6.621  23.392  0.00  0.00    -0.248 OA
BRANCH  17  19
ATOM     19  O   UNL     1       9.395   4.874  23.295  0.00  0.00    -0.479 OA
ATOM     20  H   UNL     1       9.558   4.051  23.806  0.00  0.00    +0.295 HD
ENDBRANCH  17  19
ENDBRANCH  15  17
BRANCH  14  21
ATOM     21  O   UNL     1       5.039   4.485  25.461  0.00  0.00    -0.386 OA
ATOM     22  H   UNL     1       4.833   5.230  26.050  0.00  0.00    +0.210 HD
ENDBRANCH  14  21
BRANCH  13  23
ATOM     23  O   UNL     1       5.717   5.243  21.987  0.00  0.00    -0.386 OA
ATOM     24  H   UNL     1       5.056   5.847  21.576  0.00  0.00    +0.210 HD
ENDBRANCH  13  23
BRANCH  12  25
ATOM     25  O   UNL     1       4.504   2.212  23.831  0.00  0.00    -0.384 OA
ATOM     26  H   UNL     1       3.842   2.814  24.223  0.00  0.00    +0.210 HD
ENDBRANCH  12  25
ENDBRANCH  10  11
ENDBRANCH   6  10
ENDBRANCH   5   6
ENDBRANCH   1   5
BRANCH   1  27
ATOM     27  O   UNL     1       9.831  -1.821  24.352  0.00  0.00    -0.284 OA
BRANCH  27  28
ATOM     28  C   UNL     1       8.594  -1.896  25.042  0.00  0.00    +0.206 C 
BRANCH  28  33
ATOM     29  C   UNL     1       8.881  -4.319  25.780  0.00  0.00    +0.178 C 
ATOM     30  C   UNL     1       7.868  -5.402  26.131  0.00  0.00    +0.195 C 
ATOM     31  C   UNL     1       6.502  -4.669  26.094  0.00  0.00    +0.255 C 
ATOM     32  O   UNL     1       6.754  -3.314  25.655  0.00  0.00    -0.346 OA
ATOM     33  C   UNL     1       8.035  -3.312  25.016  0.00  0.00    +0.178 C 
BRANCH  31  34
ATOM     34  N   UNL     1       5.499  -5.314  25.228  0.00  0.00    -0.271 N 
ATOM     35  C   UNL     1       4.910  -6.483  25.701  0.00  0.00    +0.331 A 
ATOM     36  O   UNL     1       5.229  -7.009  26.764  0.00  0.00    -0.246 OA
ATOM     37  N   UNL     1       3.948  -7.034  24.893  0.00  0.00    -0.275 N 
ATOM     38  H   UNL     1       3.489  -7.866  25.234  0.00  0.00    +0.173 HD
ATOM     39  C   UNL     1       3.436  -6.470  23.759  0.00  0.00    +0.254 A 
ATOM     40  O   UNL     1       2.487  -6.939  23.147  0.00  0.00    -0.268 OA
ATOM     41  C   UNL     1       4.088  -5.231  23.314  0.00  0.00    +0.088 A 
ATOM     42  C   UNL     1       5.058  -4.712  24.061  0.00  0.00    +0.098 A 
ENDBRANCH  31  34
BRANCH  29  43
ATOM     43  O   UNL     1       9.939  -4.833  24.977  0.00  0.00    -0.386 OA
ATOM     44  H   UNL     1      10.181  -5.711  25.330  0.00  0.00    +0.210 HD
ENDBRANCH  29  43
BRANCH  30  45
ATOM     45  O   UNL     1       8.137  -5.923  27.439  0.00  0.00    -0.385 OA
ATOM     46  H   UNL     1       8.170  -5.149  28.039  0.00  0.00    +0.210 HD
ENDBRANCH  30  45
ENDBRANCH  28  33
ENDBRANCH  27  28
ENDBRANCH   1  27
TORSDOF 17
ENDMDL
