MODEL 1
REMARK VINA RESULT:      -8.1      0.000      0.000
REMARK  Name = 
REMARK  6 active torsions:
REMARK  status: ('A' for Active; 'I' for Inactive)
REMARK    1  A    between atoms: C_2  and  C_3
REMARK    2  A    between atoms: C_2  and  N_5
REMARK    3  A    between atoms: C_2  and  C_22
REMARK    4  A    between atoms: C_3  and  N_4
REMARK    5  A    between atoms: C_6  and  C_8
REMARK    6  A    between atoms: C_11  and  C_13
REMARK                            x       y       z     vdW  Elec       q    Type
REMARK                         _______ _______ _______ _____ _____    ______ ____
ROOT
ATOM      1  N   UNL     1       8.674  -2.005  24.261  0.00  0.00    -0.303 N 
ATOM      2  H   UNL     1       8.057  -1.225  24.438  0.00  0.00    +0.150 HD
ATOM      3  C   UNL     1       9.804  -1.763  23.509  0.00  0.00    +0.251 C 
ATOM      4  O   UNL     1      10.565  -2.672  23.181  0.00  0.00    -0.270 OA
ENDROOT
BRANCH   3   5
ATOM      5  C   UNL     1       9.990  -0.381  23.082  0.00  0.00    +0.074 A 
ATOM      6  S   UNL     1      10.588   0.817  24.143  0.00  0.00    -0.084 S 
ATOM      7  C   UNL     1      10.306   2.097  23.025  0.00  0.00    +0.021 A 
ATOM      8  C   UNL     1       9.890   1.578  21.811  0.00  0.00    +0.017 A 
ATOM      9  C   UNL     1       9.713   0.160  21.843  0.00  0.00    +0.021 A 
BRANCH   7  10
ATOM     10  C   UNL     1      10.500   3.491  23.458  0.00  0.00    +0.001 A 
ATOM     11  C   UNL     1      11.725   4.160  23.279  0.00  0.00    +0.029 A 
ATOM     12  C   UNL     1      11.875   5.464  23.724  0.00  0.00    +0.114 A 
ATOM     13  N   UNL     1      10.930   6.185  24.354  0.00  0.00    -0.237 NA
ATOM     14  C   UNL     1       9.777   5.512  24.518  0.00  0.00    +0.139 A 
ATOM     15  N   UNL     1       8.685   6.041  25.148  0.00  0.00    -0.346 N 
ATOM     16  H   UNL     1       8.667   6.971  25.539  0.00  0.00    +0.167 HD
ATOM     17  C   UNL     1       7.667   5.127  25.153  0.00  0.00    +0.085 A 
ATOM     18  C   UNL     1       8.116   3.996  24.502  0.00  0.00    +0.029 A 
ATOM     19  C   UNL     1       9.473   4.212  24.112  0.00  0.00    +0.027 A 
ENDBRANCH   7  10
ENDBRANCH   3   5
BRANCH   1  20
ATOM     20  C   UNL     1       8.233  -3.338  24.653  0.00  0.00    +0.117 C 
BRANCH  20  21
ATOM     21  C   UNL     1       7.562  -4.035  23.478  0.00  0.00    -0.026 A 
ATOM     22  C   UNL     1       6.667  -3.318  22.667  0.00  0.00    +0.005 A 
ATOM     23  C   UNL     1       6.018  -3.936  21.596  0.00  0.00    +0.000 A 
ATOM     24  C   UNL     1       6.261  -5.277  21.312  0.00  0.00    +0.000 A 
ATOM     25  C   UNL     1       7.155  -6.002  22.099  0.00  0.00    +0.000 A 
ATOM     26  C   UNL     1       7.801  -5.388  23.174  0.00  0.00    +0.005 A 
ENDBRANCH  20  21
BRANCH  20  27
ATOM     27  C   UNL     1       9.405  -4.194  25.221  0.00  0.00    +0.104 C 
BRANCH  27  28
ATOM     28  N   UNL     1       9.131  -4.842  26.512  0.00  0.00    -0.328 NA
ATOM     29  H   UNL     1       9.902  -5.474  26.735  0.00  0.00    +0.118 HD
ATOM     30  H   UNL     1       9.183  -4.137  27.251  0.00  0.00    +0.118 HD
ENDBRANCH  27  28
ENDBRANCH  20  27
ENDBRANCH   1  20
TORSDOF 6
ENDMDL
MODEL 2
REMARK VINA RESULT:      -8.1      0.546      2.076
REMARK  Name = 
REMARK  6 active torsions:
REMARK  status: ('A' for Active; 'I' for Inactive)
REMARK    1  A    between atoms: C_2  and  C_3
REMARK    2  A    between atoms: C_2  and  N_5
REMARK    3  A    between atoms: C_2  and  C_22
REMARK    4  A    between atoms: C_3  and  N_4
REMARK    5  A    between atoms: C_6  and  C_8
REMARK    6  A    between atoms: C_11  and  C_13
REMARK                            x       y       z     vdW  Elec       q    Type
REMARK                         _______ _______ _______ _____ _____    ______ ____
ROOT
ATOM      1  N   UNL     1       8.623  -2.110  24.280  0.00  0.00    -0.303 N 
ATOM      2  H   UNL     1       8.008  -1.364  24.574  0.00  0.00    +0.150 HD
ATOM      3  C   UNL     1       9.675  -1.779  23.453  0.00  0.00    +0.251 C 
ATOM      4  O   UNL     1      10.421  -2.637  22.986  0.00  0.00    -0.270 OA
ENDROOT
BRANCH   3   5
ATOM      5  C   UNL     1       9.793  -0.362  23.125  0.00  0.00    +0.074 A 
ATOM      6  S   UNL     1       9.954   0.833  24.335  0.00  0.00    -0.084 S 
ATOM      7  C   UNL     1       9.810   2.134  23.216  0.00  0.00    +0.021 A 
ATOM      8  C   UNL     1       9.779   1.642  21.922  0.00  0.00    +0.017 A 
ATOM      9  C   UNL     1       9.773   0.213  21.870  0.00  0.00    +0.021 A 
BRANCH   7  10
ATOM     10  C   UNL     1       9.718   3.515  23.720  0.00  0.00    +0.001 A 
ATOM     11  C   UNL     1       8.514   4.042  24.223  0.00  0.00    +0.029 A 
ATOM     12  C   UNL     1       8.463   5.355  24.664  0.00  0.00    +0.114 A 
ATOM     13  N   UNL     1       9.490   6.224  24.647  0.00  0.00    -0.237 NA
ATOM     14  C   UNL     1      10.620   5.690  24.150  0.00  0.00    +0.139 A 
ATOM     15  N   UNL     1      11.785   6.394  24.020  0.00  0.00    -0.346 N 
ATOM     16  H   UNL     1      11.878   7.364  24.281  0.00  0.00    +0.167 HD
ATOM     17  C   UNL     1      12.757   5.587  23.496  0.00  0.00    +0.085 A 
ATOM     18  C   UNL     1      12.203   4.338  23.300  0.00  0.00    +0.029 A 
ATOM     19  C   UNL     1      10.829   4.391  23.686  0.00  0.00    +0.027 A 
ENDBRANCH   7  10
ENDBRANCH   3   5
BRANCH   1  20
ATOM     20  C   UNL     1       8.246  -3.482  24.600  0.00  0.00    +0.117 C 
BRANCH  20  21
ATOM     21  C   UNL     1       7.530  -4.119  23.418  0.00  0.00    -0.026 A 
ATOM     22  C   UNL     1       7.788  -5.461  23.095  0.00  0.00    +0.005 A 
ATOM     23  C   UNL     1       7.165  -6.068  22.002  0.00  0.00    +0.000 A 
ATOM     24  C   UNL     1       6.267  -5.346  21.221  0.00  0.00    +0.000 A 
ATOM     25  C   UNL     1       5.991  -4.015  21.533  0.00  0.00    +0.000 A 
ATOM     26  C   UNL     1       6.616  -3.405  22.622  0.00  0.00    +0.005 A 
ENDBRANCH  20  21
BRANCH  20  27
ATOM     27  C   UNL     1       9.475  -4.334  25.040  0.00  0.00    +0.104 C 
BRANCH  27  28
ATOM     28  N   UNL     1       9.353  -4.963  26.364  0.00  0.00    -0.328 NA
ATOM     29  H   UNL     1       8.741  -5.777  26.286  0.00  0.00    +0.118 HD
ATOM     30  H   UNL     1      10.255  -5.370  26.619  0.00  0.00    +0.118 HD
ENDBRANCH  27  28
ENDBRANCH  20  27
ENDBRANCH   1  20
TORSDOF 6
ENDMDL
MODEL 3
REMARK VINA RESULT:      -8.0      1.711      2.995
REMARK  Name = 
REMARK  6 active torsions:
REMARK  status: ('A' for Active; 'I' for Inactive)
REMARK    1  A    between atoms: C_2  and  C_3
REMARK    2  A    between atoms: C_2  and  N_5
REMARK    3  A    between atoms: C_2  and  C_22
REMARK    4  A    between atoms: C_3  and  N_4
REMARK    5  A    between atoms: C_6  and  C_8
REMARK    6  A    between atoms: C_11  and  C_13
REMARK                            x       y       z     vdW  Elec       q    Type
REMARK                         _______ _______ _______ _____ _____    ______ ____
ROOT
ATOM      1  N   UNL     1       8.214  -2.758  23.175  0.00  0.00    -0.303 N 
ATOM      2  H   UNL     1       7.496  -2.131  22.841  0.00  0.00    +0.150 HD
ATOM      3  C   UNL     1       9.477  -2.237  23.360  0.00  0.00    +0.251 C 
ATOM      4  O   UNL     1      10.425  -2.949  23.687  0.00  0.00    -0.270 OA
ENDROOT
BRANCH   3   5
ATOM      5  C   UNL     1       9.616  -0.813  23.079  0.00  0.00    +0.074 A 
ATOM      6  S   UNL     1       9.523   0.363  24.315  0.00  0.00    -0.084 S 
ATOM      7  C   UNL     1       9.551   1.682  23.207  0.00  0.00    +0.021 A 
ATOM      8  C   UNL     1       9.769   1.213  21.922  0.00  0.00    +0.017 A 
ATOM      9  C   UNL     1       9.810  -0.215  21.850  0.00  0.00    +0.021 A 
BRANCH   7  10
ATOM     10  C   UNL     1       9.332   3.050  23.705  0.00  0.00    +0.001 A 
ATOM     11  C   UNL     1       8.083   3.470  24.197  0.00  0.00    +0.029 A 
ATOM     12  C   UNL     1       7.911   4.774  24.632  0.00  0.00    +0.114 A 
ATOM     13  N   UNL     1       8.857   5.731  24.619  0.00  0.00    -0.237 NA
ATOM     14  C   UNL     1      10.034   5.298  24.133  0.00  0.00    +0.139 A 
ATOM     15  N   UNL     1      11.133   6.102  24.010  0.00  0.00    -0.346 N 
ATOM     16  H   UNL     1      11.138   7.078  24.268  0.00  0.00    +0.167 HD
ATOM     17  C   UNL     1      12.177   5.383  23.497  0.00  0.00    +0.085 A 
ATOM     18  C   UNL     1      11.738   4.089  23.301  0.00  0.00    +0.029 A 
ATOM     19  C   UNL     1      10.361   4.021  23.676  0.00  0.00    +0.027 A 
ENDBRANCH   7  10
ENDBRANCH   3   5
BRANCH   1  20
ATOM     20  C   UNL     1       7.906  -4.181  23.255  0.00  0.00    +0.117 C 
BRANCH  20  21
ATOM     21  C   UNL     1       7.393  -4.529  24.645  0.00  0.00    -0.026 A 
ATOM     22  C   UNL     1       6.022  -4.411  24.926  0.00  0.00    +0.005 A 
ATOM     23  C   UNL     1       5.524  -4.701  26.198  0.00  0.00    +0.000 A 
ATOM     24  C   UNL     1       6.386  -5.122  27.207  0.00  0.00    +0.000 A 
ATOM     25  C   UNL     1       7.749  -5.255  26.943  0.00  0.00    +0.000 A 
ATOM     26  C   UNL     1       8.250  -4.962  25.673  0.00  0.00    +0.005 A 
ENDBRANCH  20  21
BRANCH  20  27
ATOM     27  C   UNL     1       6.891  -4.618  22.155  0.00  0.00    +0.104 C 
BRANCH  27  28
ATOM     28  N   UNL     1       7.016  -6.015  21.715  0.00  0.00    -0.328 NA
ATOM     29  H   UNL     1       7.360  -6.577  22.496  0.00  0.00    +0.118 HD
ATOM     30  H   UNL     1       6.080  -6.393  21.549  0.00  0.00    +0.118 HD
ENDBRANCH  27  28
ENDBRANCH  20  27
ENDBRANCH   1  20
TORSDOF 6
ENDMDL
MODEL 4
REMARK VINA RESULT:      -7.8      2.958      8.862
REMARK  Name = 
REMARK  6 active torsions:
REMARK  status: ('A' for Active; 'I' for Inactive)
REMARK    1  A    between atoms: C_2  and  C_3
REMARK    2  A    between atoms: C_2  and  N_5
REMARK    3  A    between atoms: C_2  and  C_22
REMARK    4  A    between atoms: C_3  and  N_4
REMARK    5  A    between atoms: C_6  and  C_8
REMARK    6  A    between atoms: C_11  and  C_13
REMARK                            x       y       z     vdW  Elec       q    Type
REMARK                         _______ _______ _______ _____ _____    ______ ____
ROOT
ATOM      1  N   UNL     1       8.957  -0.367  23.261  0.00  0.00    -0.303 N 
ATOM      2  H   UNL     1       8.118  -0.263  23.815  0.00  0.00    +0.150 HD
ATOM      3  C   UNL     1       9.302  -1.642  22.864  0.00  0.00    +0.251 C 
ATOM      4  O   UNL     1      10.347  -1.866  22.258  0.00  0.00    -0.270 OA
ENDROOT
BRANCH   3   5
ATOM      5  C   UNL     1       8.380  -2.696  23.271  0.00  0.00    +0.074 A 
ATOM      6  S   UNL     1       7.894  -2.891  24.897  0.00  0.00    -0.084 S 
ATOM      7  C   UNL     1       7.065  -4.368  24.583  0.00  0.00    +0.021 A 
ATOM      8  C   UNL     1       7.054  -4.621  23.222  0.00  0.00    +0.017 A 
ATOM      9  C   UNL     1       7.803  -3.662  22.471  0.00  0.00    +0.021 A 
BRANCH   7  10
ATOM     10  C   UNL     1       6.526  -5.148  25.709  0.00  0.00    +0.001 A 
ATOM     11  C   UNL     1       7.124  -5.125  26.982  0.00  0.00    +0.029 A 
ATOM     12  C   UNL     1       6.601  -5.895  28.009  0.00  0.00    +0.114 A 
ATOM     13  N   UNL     1       5.538  -6.712  27.906  0.00  0.00    -0.237 NA
ATOM     14  C   UNL     1       4.998  -6.719  26.674  0.00  0.00    +0.139 A 
ATOM     15  N   UNL     1       3.922  -7.489  26.333  0.00  0.00    -0.346 N 
ATOM     16  H   UNL     1       3.459  -8.112  26.978  0.00  0.00    +0.167 HD
ATOM     17  C   UNL     1       3.597  -7.277  25.022  0.00  0.00    +0.085 A 
ATOM     18  C   UNL     1       4.479  -6.341  24.519  0.00  0.00    +0.029 A 
ATOM     19  C   UNL     1       5.400  -5.992  25.552  0.00  0.00    +0.027 A 
ENDBRANCH   7  10
ENDBRANCH   3   5
BRANCH   1  20
ATOM     20  C   UNL     1       9.819   0.796  23.087  0.00  0.00    +0.117 C 
BRANCH  20  21
ATOM     21  C   UNL     1       8.977   2.053  22.919  0.00  0.00    -0.026 A 
ATOM     22  C   UNL     1       7.863   2.030  22.065  0.00  0.00    +0.005 A 
ATOM     23  C   UNL     1       7.084   3.173  21.872  0.00  0.00    +0.000 A 
ATOM     24  C   UNL     1       7.402   4.354  22.537  0.00  0.00    +0.000 A 
ATOM     25  C   UNL     1       8.499   4.393  23.397  0.00  0.00    +0.000 A 
ATOM     26  C   UNL     1       9.281   3.252  23.588  0.00  0.00    +0.005 A 
ENDBRANCH  20  21
BRANCH  20  27
ATOM     27  C   UNL     1      10.831   0.949  24.263  0.00  0.00    +0.104 C 
BRANCH  27  28
ATOM     28  N   UNL     1      10.366   0.422  25.554  0.00  0.00    -0.328 NA
ATOM     29  H   UNL     1       9.582  -0.210  25.389  0.00  0.00    +0.118 HD
ATOM     30  H   UNL     1      11.088  -0.194  25.937  0.00  0.00    +0.118 HD
ENDBRANCH  27  28
ENDBRANCH  20  27
ENDBRANCH   1  20
TORSDOF 6
ENDMDL
MODEL 5
REMARK VINA RESULT:      -7.6      1.423      1.464
REMARK  Name = 
REMARK  6 active torsions:
REMARK  status: ('A' for Active; 'I' for Inactive)
REMARK    1  A    between atoms: C_2  and  C_3
REMARK    2  A    between atoms: C_2  and  N_5
REMARK    3  A    between atoms: C_2  and  C_22
REMARK    4  A    between atoms: C_3  and  N_4
REMARK    5  A    between atoms: C_6  and  C_8
REMARK    6  A    between atoms: C_11  and  C_13
REMARK                            x       y       z     vdW  Elec       q    Type
REMARK                         _______ _______ _______ _____ _____    ______ ____
ROOT
ATOM      1  N   UNL     1       8.575  -2.474  24.262  0.00  0.00    -0.303 N 
ATOM      2  H   UNL     1       9.495  -2.543  23.852  0.00  0.00    +0.150 HD
ATOM      3  C   UNL     1       7.986  -1.228  24.295  0.00  0.00    +0.251 C 
ATOM      4  O   UNL     1       6.903  -1.042  24.847  0.00  0.00    -0.270 OA
ENDROOT
BRANCH   3   5
ATOM      5  C   UNL     1       8.763  -0.150  23.693  0.00  0.00    +0.074 A 
ATOM      6  S   UNL     1       9.309   1.186  24.606  0.00  0.00    -0.084 S 
ATOM      7  C   UNL     1       9.890   2.029  23.221  0.00  0.00    +0.021 A 
ATOM      8  C   UNL     1       9.785   1.223  22.101  0.00  0.00    +0.017 A 
ATOM      9  C   UNL     1       9.143  -0.026  22.372  0.00  0.00    +0.021 A 
BRANCH   7  10
ATOM     10  C   UNL     1      10.373   3.413  23.367  0.00  0.00    +0.001 A 
ATOM     11  C   UNL     1      11.744   3.726  23.357  0.00  0.00    +0.029 A 
ATOM     12  C   UNL     1      12.158   5.038  23.524  0.00  0.00    +0.114 A 
ATOM     13  N   UNL     1      11.346   6.092  23.718  0.00  0.00    -0.237 NA
ATOM     14  C   UNL     1      10.044   5.756  23.734  0.00  0.00    +0.139 A 
ATOM     15  N   UNL     1       9.040   6.662  23.934  0.00  0.00    -0.346 N 
ATOM     16  H   UNL     1       9.203   7.645  24.091  0.00  0.00    +0.167 HD
ATOM     17  C   UNL     1       7.828   6.028  23.887  0.00  0.00    +0.085 A 
ATOM     18  C   UNL     1       8.066   4.691  23.639  0.00  0.00    +0.029 A 
ATOM     19  C   UNL     1       9.478   4.491  23.565  0.00  0.00    +0.027 A 
ENDBRANCH   7  10
ENDBRANCH   3   5
BRANCH   1  20
ATOM     20  C   UNL     1       8.031  -3.644  24.941  0.00  0.00    +0.117 C 
BRANCH  20  21
ATOM     21  C   UNL     1       7.233  -4.494  23.964  0.00  0.00    -0.026 A 
ATOM     22  C   UNL     1       7.568  -4.479  22.600  0.00  0.00    +0.005 A 
ATOM     23  C   UNL     1       6.841  -5.230  21.674  0.00  0.00    +0.000 A 
ATOM     24  C   UNL     1       5.772  -6.016  22.099  0.00  0.00    +0.000 A 
ATOM     25  C   UNL     1       5.432  -6.052  23.451  0.00  0.00    +0.000 A 
ATOM     26  C   UNL     1       6.155  -5.298  24.377  0.00  0.00    +0.005 A 
ENDBRANCH  20  21
BRANCH  20  27
ATOM     27  C   UNL     1       9.147  -4.482  25.636  0.00  0.00    +0.104 C 
BRANCH  27  28
ATOM     28  N   UNL     1       9.630  -5.635  24.861  0.00  0.00    -0.328 NA
ATOM     29  H   UNL     1      10.646  -5.688  24.948  0.00  0.00    +0.118 HD
ATOM     30  H   UNL     1       9.309  -6.494  25.315  0.00  0.00    +0.118 HD
ENDBRANCH  27  28
ENDBRANCH  20  27
ENDBRANCH   1  20
TORSDOF 6
ENDMDL
MODEL 6
REMARK VINA RESULT:      -7.4      2.008      2.297
REMARK  Name = 
REMARK  6 active torsions:
REMARK  status: ('A' for Active; 'I' for Inactive)
REMARK    1  A    between atoms: C_2  and  C_3
REMARK    2  A    between atoms: C_2  and  N_5
REMARK    3  A    between atoms: C_2  and  C_22
REMARK    4  A    between atoms: C_3  and  N_4
REMARK    5  A    between atoms: C_6  and  C_8
REMARK    6  A    between atoms: C_11  and  C_13
REMARK                            x       y       z     vdW  Elec       q    Type
REMARK                         _______ _______ _______ _____ _____    ______ ____
ROOT
ATOM      1  N   UNL     1       8.837  -2.389  24.721  0.00  0.00    -0.303 N 
ATOM      2  H   UNL     1       9.206  -2.236  23.793  0.00  0.00    +0.150 HD
ATOM      3  C   UNL     1       8.807  -1.310  25.578  0.00  0.00    +0.251 C 
ATOM      4  O   UNL     1       8.450  -1.428  26.749  0.00  0.00    -0.270 OA
ENDROOT
BRANCH   3   5
ATOM      5  C   UNL     1       9.287  -0.051  25.020  0.00  0.00    +0.074 A 
ATOM      6  S   UNL     1       8.388   1.395  25.154  0.00  0.00    -0.084 S 
ATOM      7  C   UNL     1       9.451   2.275  24.122  0.00  0.00    +0.021 A 
ATOM      8  C   UNL     1      10.548   1.494  23.801  0.00  0.00    +0.017 A 
ATOM      9  C   UNL     1      10.456   0.164  24.318  0.00  0.00    +0.021 A 
BRANCH   7  10
ATOM     10  C   UNL     1       9.091   3.642  23.709  0.00  0.00    +0.001 A 
ATOM     11  C   UNL     1       9.942   4.737  23.943  0.00  0.00    +0.029 A 
ATOM     12  C   UNL     1       9.555   6.011  23.563  0.00  0.00    +0.114 A 
ATOM     13  N   UNL     1       8.386   6.328  22.977  0.00  0.00    -0.237 NA
ATOM     14  C   UNL     1       7.592   5.260  22.778  0.00  0.00    +0.139 A 
ATOM     15  N   UNL     1       6.350   5.346  22.215  0.00  0.00    -0.346 N 
ATOM     16  H   UNL     1       5.936   6.216  21.914  0.00  0.00    +0.167 HD
ATOM     17  C   UNL     1       5.790   4.100  22.135  0.00  0.00    +0.085 A 
ATOM     18  C   UNL     1       6.701   3.199  22.649  0.00  0.00    +0.029 A 
ATOM     19  C   UNL     1       7.850   3.924  23.091  0.00  0.00    +0.027 A 
ENDBRANCH   7  10
ENDBRANCH   3   5
BRANCH   1  20
ATOM     20  C   UNL     1       8.545  -3.758  25.132  0.00  0.00    +0.117 C 
BRANCH  20  21
ATOM     21  C   UNL     1       7.475  -4.359  24.232  0.00  0.00    -0.026 A 
ATOM     22  C   UNL     1       6.236  -4.727  24.781  0.00  0.00    +0.005 A 
ATOM     23  C   UNL     1       5.242  -5.302  23.986  0.00  0.00    +0.000 A 
ATOM     24  C   UNL     1       5.468  -5.510  22.628  0.00  0.00    +0.000 A 
ATOM     25  C   UNL     1       6.688  -5.141  22.063  0.00  0.00    +0.000 A 
ATOM     26  C   UNL     1       7.685  -4.570  22.857  0.00  0.00    +0.005 A 
ENDBRANCH  20  21
BRANCH  20  27
ATOM     27  C   UNL     1       9.827  -4.644  25.151  0.00  0.00    +0.104 C 
BRANCH  27  28
ATOM     28  N   UNL     1       9.621  -6.022  25.621  0.00  0.00    -0.328 NA
ATOM     29  H   UNL     1      10.308  -6.229  26.348  0.00  0.00    +0.118 HD
ATOM     30  H   UNL     1       8.729  -6.070  26.120  0.00  0.00    +0.118 HD
ENDBRANCH  27  28
ENDBRANCH  20  27
ENDBRANCH   1  20
TORSDOF 6
ENDMDL
MODEL 7
REMARK VINA RESULT:      -7.4      2.506      8.768
REMARK  Name = 
REMARK  6 active torsions:
REMARK  status: ('A' for Active; 'I' for Inactive)
REMARK    1  A    between atoms: C_2  and  C_3
REMARK    2  A    between atoms: C_2  and  N_5
REMARK    3  A    between atoms: C_2  and  C_22
REMARK    4  A    between atoms: C_3  and  N_4
REMARK    5  A    between atoms: C_6  and  C_8
REMARK    6  A    between atoms: C_11  and  C_13
REMARK                            x       y       z     vdW  Elec       q    Type
REMARK                         _______ _______ _______ _____ _____    ______ ____
ROOT
ATOM      1  N   UNL     1       9.107   0.811  23.224  0.00  0.00    -0.303 N 
ATOM      2  H   UNL     1       8.947   0.605  24.200  0.00  0.00    +0.150 HD
ATOM      3  C   UNL     1       9.162  -0.254  22.350  0.00  0.00    +0.251 C 
ATOM      4  O   UNL     1       9.432  -0.098  21.161  0.00  0.00    -0.270 OA
ENDROOT
BRANCH   3   5
ATOM      5  C   UNL     1       8.946  -1.567  22.948  0.00  0.00    +0.074 A 
ATOM      6  S   UNL     1       7.493  -2.434  22.716  0.00  0.00    -0.084 S 
ATOM      7  C   UNL     1       7.923  -3.663  23.844  0.00  0.00    +0.021 A 
ATOM      8  C   UNL     1       9.223  -3.469  24.278  0.00  0.00    +0.017 A 
ATOM      9  C   UNL     1       9.810  -2.272  23.762  0.00  0.00    +0.021 A 
BRANCH   7  10
ATOM     10  C   UNL     1       6.930  -4.686  24.212  0.00  0.00    +0.001 A 
ATOM     11  C   UNL     1       6.063  -5.254  23.262  0.00  0.00    +0.029 A 
ATOM     12  C   UNL     1       5.125  -6.196  23.653  0.00  0.00    +0.114 A 
ATOM     13  N   UNL     1       4.938  -6.633  24.912  0.00  0.00    -0.237 NA
ATOM     14  C   UNL     1       5.776  -6.062  25.795  0.00  0.00    +0.139 A 
ATOM     15  N   UNL     1       5.755  -6.341  27.133  0.00  0.00    -0.346 N 
ATOM     16  H   UNL     1       5.108  -6.990  27.555  0.00  0.00    +0.167 HD
ATOM     17  C   UNL     1       6.725  -5.617  27.772  0.00  0.00    +0.085 A 
ATOM     18  C   UNL     1       7.385  -4.869  26.818  0.00  0.00    +0.029 A 
ATOM     19  C   UNL     1       6.775  -5.119  25.551  0.00  0.00    +0.027 A 
ENDBRANCH   7  10
ENDBRANCH   3   5
BRANCH   1  20
ATOM     20  C   UNL     1       9.445   2.180  22.853  0.00  0.00    +0.117 C 
BRANCH  20  21
ATOM     21  C   UNL     1       8.326   3.127  23.263  0.00  0.00    -0.026 A 
ATOM     22  C   UNL     1       7.481   3.667  22.280  0.00  0.00    +0.005 A 
ATOM     23  C   UNL     1       6.460   4.557  22.622  0.00  0.00    +0.000 A 
ATOM     24  C   UNL     1       6.262   4.912  23.954  0.00  0.00    +0.000 A 
ATOM     25  C   UNL     1       7.084   4.378  24.945  0.00  0.00    +0.000 A 
ATOM     26  C   UNL     1       8.108   3.492  24.604  0.00  0.00    +0.005 A 
ENDBRANCH  20  21
BRANCH  20  27
ATOM     27  C   UNL     1      10.810   2.626  23.459  0.00  0.00    +0.104 C 
BRANCH  27  28
ATOM     28  N   UNL     1      11.299   3.932  22.993  0.00  0.00    -0.328 NA
ATOM     29  H   UNL     1      11.248   3.958  21.973  0.00  0.00    +0.118 HD
ATOM     30  H   UNL     1      10.635   4.654  23.281  0.00  0.00    +0.118 HD
ENDBRANCH  27  28
ENDBRANCH  20  27
ENDBRANCH   1  20
TORSDOF 6
ENDMDL
MODEL 8
REMARK VINA RESULT:      -7.4      2.747      9.172
REMARK  Name = 
REMARK  6 active torsions:
REMARK  status: ('A' for Active; 'I' for Inactive)
REMARK    1  A    between atoms: C_2  and  C_3
REMARK    2  A    between atoms: C_2  and  N_5
REMARK    3  A    between atoms: C_2  and  C_22
REMARK    4  A    between atoms: C_3  and  N_4
REMARK    5  A    between atoms: C_6  and  C_8
REMARK    6  A    between atoms: C_11  and  C_13
REMARK                            x       y       z     vdW  Elec       q    Type
REMARK                         _______ _______ _______ _____ _____    ______ ____
ROOT
ATOM      1  N   UNL     1       8.341   2.047  23.574  0.00  0.00    -0.303 N 
ATOM      2  H   UNL     1       8.516   1.549  22.713  0.00  0.00    +0.150 HD
ATOM      3  C   UNL     1       8.076   1.297  24.700  0.00  0.00    +0.251 C 
ATOM      4  O   UNL     1       7.773   1.825  25.768  0.00  0.00    -0.270 OA
ENDROOT
BRANCH   3   5
ATOM      5  C   UNL     1       8.115  -0.149  24.514  0.00  0.00    +0.074 A 
ATOM      6  S   UNL     1       6.692  -1.069  24.296  0.00  0.00    -0.084 S 
ATOM      7  C   UNL     1       7.527  -2.573  24.377  0.00  0.00    +0.021 A 
ATOM      8  C   UNL     1       8.892  -2.352  24.431  0.00  0.00    +0.017 A 
ATOM      9  C   UNL     1       9.229  -0.965  24.506  0.00  0.00    +0.021 A 
BRANCH   7  10
ATOM     10  C   UNL     1       6.755  -3.828  24.403  0.00  0.00    +0.001 A 
ATOM     11  C   UNL     1       6.227  -4.349  25.598  0.00  0.00    +0.029 A 
ATOM     12  C   UNL     1       5.529  -5.546  25.584  0.00  0.00    +0.114 A 
ATOM     13  N   UNL     1       5.307  -6.305  24.496  0.00  0.00    -0.237 NA
ATOM     14  C   UNL     1       5.835  -5.784  23.375  0.00  0.00    +0.139 A 
ATOM     15  N   UNL     1       5.748  -6.392  22.154  0.00  0.00    -0.346 N 
ATOM     16  H   UNL     1       5.288  -7.278  22.007  0.00  0.00    +0.167 HD
ATOM     17  C   UNL     1       6.368  -5.623  21.208  0.00  0.00    +0.085 A 
ATOM     18  C   UNL     1       6.850  -4.493  21.839  0.00  0.00    +0.029 A 
ATOM     19  C   UNL     1       6.543  -4.590  23.230  0.00  0.00    +0.027 A 
ENDBRANCH   7  10
ENDBRANCH   3   5
BRANCH   1  20
ATOM     20  C   UNL     1       8.201   3.498  23.517  0.00  0.00    +0.117 C 
BRANCH  20  21
ATOM     21  C   UNL     1       9.568   4.160  23.608  0.00  0.00    -0.026 A 
ATOM     22  C   UNL     1       9.661   5.501  24.017  0.00  0.00    +0.005 A 
ATOM     23  C   UNL     1      10.899   6.144  24.089  0.00  0.00    +0.000 A 
ATOM     24  C   UNL     1      12.064   5.455  23.761  0.00  0.00    +0.000 A 
ATOM     25  C   UNL     1      11.992   4.121  23.362  0.00  0.00    +0.000 A 
ATOM     26  C   UNL     1      10.755   3.477  23.286  0.00  0.00    +0.005 A 
ENDBRANCH  20  21
BRANCH  20  27
ATOM     27  C   UNL     1       7.437   3.957  22.238  0.00  0.00    +0.104 C 
BRANCH  27  28
ATOM     28  N   UNL     1       6.005   3.625  22.218  0.00  0.00    -0.328 NA
ATOM     29  H   UNL     1       5.902   2.609  22.200  0.00  0.00    +0.118 HD
ATOM     30  H   UNL     1       5.595   3.886  23.118  0.00  0.00    +0.118 HD
ENDBRANCH  27  28
ENDBRANCH  20  27
ENDBRANCH   1  20
TORSDOF 6
ENDMDL
MODEL 9
REMARK VINA RESULT:      -7.3      2.759      8.607
REMARK  Name = 
REMARK  6 active torsions:
REMARK  status: ('A' for Active; 'I' for Inactive)
REMARK    1  A    between atoms: C_2  and  C_3
REMARK    2  A    between atoms: C_2  and  N_5
REMARK    3  A    between atoms: C_2  and  C_22
REMARK    4  A    between atoms: C_3  and  N_4
REMARK    5  A    between atoms: C_6  and  C_8
REMARK    6  A    between atoms: C_11  and  C_13
REMARK                            x       y       z     vdW  Elec       q    Type
REMARK                         _______ _______ _______ _____ _____    ______ ____
ROOT
ATOM      1  N   UNL     1       8.186   1.786  22.853  0.00  0.00    -0.303 N 
ATOM      2  H   UNL     1       7.457   1.374  23.418  0.00  0.00    +0.150 HD
ATOM      3  C   UNL     1       9.217   0.964  22.448  0.00  0.00    +0.251 C 
ATOM      4  O   UNL     1      10.183   1.402  21.826  0.00  0.00    -0.270 OA
ENDROOT
BRANCH   3   5
ATOM      5  C   UNL     1       9.109  -0.429  22.866  0.00  0.00    +0.074 A 
ATOM      6  S   UNL     1       7.613  -1.255  22.871  0.00  0.00    -0.084 S 
ATOM      7  C   UNL     1       8.266  -2.648  23.647  0.00  0.00    +0.021 A 
ATOM      8  C   UNL     1       9.639  -2.520  23.768  0.00  0.00    +0.017 A 
ATOM      9  C   UNL     1      10.122  -1.252  23.317  0.00  0.00    +0.021 A 
BRANCH   7  10
ATOM     10  C   UNL     1       7.359  -3.723  24.085  0.00  0.00    +0.001 A 
ATOM     11  C   UNL     1       7.031  -3.911  25.440  0.00  0.00    +0.029 A 
ATOM     12  C   UNL     1       6.196  -4.951  25.814  0.00  0.00    +0.114 A 
ATOM     13  N   UNL     1       5.650  -5.852  24.976  0.00  0.00    -0.237 NA
ATOM     14  C   UNL     1       5.993  -5.649  23.692  0.00  0.00    +0.139 A 
ATOM     15  N   UNL     1       5.571  -6.452  22.669  0.00  0.00    -0.346 N 
ATOM     16  H   UNL     1       4.977  -7.257  22.805  0.00  0.00    +0.167 HD
ATOM     17  C   UNL     1       6.072  -5.992  21.482  0.00  0.00    +0.085 A 
ATOM     18  C   UNL     1       6.821  -4.864  21.754  0.00  0.00    +0.029 A 
ATOM     19  C   UNL     1       6.805  -4.644  23.164  0.00  0.00    +0.027 A 
ENDBRANCH   7  10
ENDBRANCH   3   5
BRANCH   1  20
ATOM     20  C   UNL     1       8.185   3.232  22.668  0.00  0.00    +0.117 C 
BRANCH  20  21
ATOM     21  C   UNL     1       6.757   3.760  22.665  0.00  0.00    -0.026 A 
ATOM     22  C   UNL     1       6.530   5.140  22.790  0.00  0.00    +0.005 A 
ATOM     23  C   UNL     1       5.231   5.653  22.814  0.00  0.00    +0.000 A 
ATOM     24  C   UNL     1       4.140   4.795  22.704  0.00  0.00    +0.000 A 
ATOM     25  C   UNL     1       4.347   3.423  22.569  0.00  0.00    +0.000 A 
ATOM     26  C   UNL     1       5.644   2.908  22.550  0.00  0.00    +0.005 A 
ENDBRANCH  20  21
BRANCH  20  27
ATOM     27  C   UNL     1       9.050   3.955  23.745  0.00  0.00    +0.104 C 
BRANCH  27  28
ATOM     28  N   UNL     1      10.433   4.244  23.338  0.00  0.00    -0.328 NA
ATOM     29  H   UNL     1      10.416   4.869  22.531  0.00  0.00    +0.118 HD
ATOM     30  H   UNL     1      10.878   4.811  24.065  0.00  0.00    +0.118 HD
ENDBRANCH  27  28
ENDBRANCH  20  27
ENDBRANCH   1  20
TORSDOF 6
ENDMDL
