MODEL 1
REMARK VINA RESULT:      -7.2      0.000      0.000
REMARK  Name = 
REMARK  4 active torsions:
REMARK  status: ('A' for Active; 'I' for Inactive)
REMARK    1  A    between atoms: C_1  and  C_2
REMARK    2  A    between atoms: C_4  and  O_5
REMARK    3  A    between atoms: C_12  and  O_13
REMARK    4  A    between atoms: C_15  and  O_16
REMARK                            x       y       z     vdW  Elec       q    Type
REMARK                         _______ _______ _______ _____ _____    ______ ____
ROOT
ATOM      1  C   UNL     1      10.724   2.971  23.708  0.00  0.00    +0.044 C 
ATOM      2  C   UNL     1      10.173   1.589  23.518  0.00  0.00    -0.046 A 
ATOM      3  C   UNL     1       9.820   0.821  24.629  0.00  0.00    +0.016 A 
ATOM      4  C   UNL     1       9.302  -0.477  24.470  0.00  0.00    +0.037 A 
ATOM      5  C   UNL     1       9.127  -1.031  23.203  0.00  0.00    +0.075 A 
ATOM      6  C   UNL     1       8.577  -2.412  23.075  0.00  0.00    +0.202 C 
ATOM      7  C   UNL     1       8.215  -3.179  24.303  0.00  0.00    +0.075 A 
ATOM      8  C   UNL     1       7.687  -4.484  24.255  0.00  0.00    +0.132 A 
ATOM      9  C   UNL     1       7.361  -5.173  25.429  0.00  0.00    +0.091 A 
ATOM     10  C   UNL     1       7.559  -4.566  26.660  0.00  0.00    +0.121 A 
ATOM     11  C   UNL     1       8.077  -3.284  26.739  0.00  0.00    +0.058 A 
ATOM     12  C   UNL     1       8.403  -2.594  25.557  0.00  0.00    +0.040 A 
ATOM     13  O   UNL     1       8.425  -2.915  21.969  0.00  0.00    -0.286 OA
ATOM     14  C   UNL     1       9.484  -0.249  22.088  0.00  0.00    +0.129 A 
ATOM     15  C   UNL     1       8.950  -1.235  25.681  0.00  0.00    +0.195 C 
ATOM     16  O   UNL     1       9.110  -0.738  26.792  0.00  0.00    -0.287 OA
ATOM     17  C   UNL     1      10.000   1.044  22.244  0.00  0.00    +0.049 A 
ENDROOT
BRANCH   8  18
ATOM     18  O   UNL     1       7.474  -5.118  23.064  0.00  0.00    -0.506 OA
ATOM     19  H   UNL     1       6.731  -5.737  23.132  0.00  0.00    +0.292 HD
ENDBRANCH   8  18
BRANCH  10  20
ATOM     20  O   UNL     1       7.229  -5.272  27.778  0.00  0.00    -0.507 OA
ATOM     21  H   UNL     1       6.636  -4.734  28.331  0.00  0.00    +0.292 HD
ENDBRANCH  10  20
BRANCH  14  22
ATOM     22  O   UNL     1       9.338  -0.727  20.816  0.00  0.00    -0.506 OA
ATOM     23  H   UNL     1      10.132  -0.558  20.288  0.00  0.00    +0.292 HD
ENDBRANCH  14  22
TORSDOF 3
ENDMDL
MODEL 2
REMARK VINA RESULT:      -7.0      1.916      2.028
REMARK  Name = 
REMARK  4 active torsions:
REMARK  status: ('A' for Active; 'I' for Inactive)
REMARK    1  A    between atoms: C_1  and  C_2
REMARK    2  A    between atoms: C_4  and  O_5
REMARK    3  A    between atoms: C_12  and  O_13
REMARK    4  A    between atoms: C_15  and  O_16
REMARK                            x       y       z     vdW  Elec       q    Type
REMARK                         _______ _______ _______ _____ _____    ______ ____
ROOT
ATOM      1  C   UNL     1       7.187   2.525  21.860  0.00  0.00    +0.044 C 
ATOM      2  C   UNL     1       7.771   1.229  22.341  0.00  0.00    -0.046 A 
ATOM      3  C   UNL     1       7.169   0.542  23.396  0.00  0.00    +0.016 A 
ATOM      4  C   UNL     1       7.702  -0.673  23.860  0.00  0.00    +0.037 A 
ATOM      5  C   UNL     1       8.845  -1.224  23.281  0.00  0.00    +0.075 A 
ATOM      6  C   UNL     1       9.382  -2.514  23.803  0.00  0.00    +0.202 C 
ATOM      7  C   UNL     1       8.688  -3.202  24.931  0.00  0.00    +0.075 A 
ATOM      8  C   UNL     1       9.137  -4.424  25.469  0.00  0.00    +0.132 A 
ATOM      9  C   UNL     1       8.460  -5.037  26.528  0.00  0.00    +0.091 A 
ATOM     10  C   UNL     1       7.329  -4.438  27.061  0.00  0.00    +0.121 A 
ATOM     11  C   UNL     1       6.862  -3.236  26.553  0.00  0.00    +0.058 A 
ATOM     12  C   UNL     1       7.546  -2.622  25.488  0.00  0.00    +0.040 A 
ATOM     13  O   UNL     1      10.389  -3.006  23.310  0.00  0.00    -0.286 OA
ATOM     14  C   UNL     1       9.445  -0.526  22.217  0.00  0.00    +0.129 A 
ATOM     15  C   UNL     1       7.020  -1.348  24.976  0.00  0.00    +0.195 C 
ATOM     16  O   UNL     1       6.016  -0.853  25.479  0.00  0.00    -0.287 OA
ATOM     17  C   UNL     1       8.915   0.686  21.754  0.00  0.00    +0.049 A 
ENDROOT
BRANCH   8  18
ATOM     18  O   UNL     1      10.246  -5.049  24.973  0.00  0.00    -0.506 OA
ATOM     19  H   UNL     1      10.701  -4.484  24.330  0.00  0.00    +0.292 HD
ENDBRANCH   8  18
BRANCH  10  20
ATOM     20  O   UNL     1       6.700  -5.068  28.092  0.00  0.00    -0.507 OA
ATOM     21  H   UNL     1       7.267  -5.788  28.420  0.00  0.00    +0.292 HD
ENDBRANCH  10  20
BRANCH  14  22
ATOM     22  O   UNL     1      10.566  -1.007  21.602  0.00  0.00    -0.506 OA
ATOM     23  H   UNL     1      11.368  -0.677  22.032  0.00  0.00    +0.292 HD
ENDBRANCH  14  22
TORSDOF 3
ENDMDL
MODEL 3
REMARK VINA RESULT:      -6.9      3.555      7.441
REMARK  Name = 
REMARK  4 active torsions:
REMARK  status: ('A' for Active; 'I' for Inactive)
REMARK    1  A    between atoms: C_1  and  C_2
REMARK    2  A    between atoms: C_4  and  O_5
REMARK    3  A    between atoms: C_12  and  O_13
REMARK    4  A    between atoms: C_15  and  O_16
REMARK                            x       y       z     vdW  Elec       q    Type
REMARK                         _______ _______ _______ _____ _____    ______ ____
ROOT
ATOM      1  C   UNL     1       0.799  -6.349  22.491  0.00  0.00    +0.044 C 
ATOM      2  C   UNL     1       1.994  -6.316  23.397  0.00  0.00    -0.046 A 
ATOM      3  C   UNL     1       3.147  -5.633  23.005  0.00  0.00    +0.016 A 
ATOM      4  C   UNL     1       4.277  -5.591  23.840  0.00  0.00    +0.037 A 
ATOM      5  C   UNL     1       4.278  -6.229  25.080  0.00  0.00    +0.075 A 
ATOM      6  C   UNL     1       5.497  -6.164  25.938  0.00  0.00    +0.202 C 
ATOM      7  C   UNL     1       6.696  -5.413  25.462  0.00  0.00    +0.075 A 
ATOM      8  C   UNL     1       7.877  -5.307  26.222  0.00  0.00    +0.132 A 
ATOM      9  C   UNL     1       8.982  -4.595  25.741  0.00  0.00    +0.091 A 
ATOM     10  C   UNL     1       8.918  -3.983  24.498  0.00  0.00    +0.121 A 
ATOM     11  C   UNL     1       7.770  -4.069  23.729  0.00  0.00    +0.058 A 
ATOM     12  C   UNL     1       6.661  -4.786  24.215  0.00  0.00    +0.040 A 
ATOM     13  O   UNL     1       5.516  -6.726  27.025  0.00  0.00    -0.286 OA
ATOM     14  C   UNL     1       3.112  -6.914  25.468  0.00  0.00    +0.129 A 
ATOM     15  C   UNL     1       5.461  -4.854  23.369  0.00  0.00    +0.195 C 
ATOM     16  O   UNL     1       5.449  -4.298  22.275  0.00  0.00    -0.287 OA
ATOM     17  C   UNL     1       1.985  -6.957  24.637  0.00  0.00    +0.049 A 
ENDROOT
BRANCH   8  18
ATOM     18  O   UNL     1       7.983  -5.893  27.452  0.00  0.00    -0.506 OA
ATOM     19  H   UNL     1       8.828  -5.668  27.868  0.00  0.00    +0.292 HD
ENDBRANCH   8  18
BRANCH  10  20
ATOM     20  O   UNL     1      10.015  -3.300  24.069  0.00  0.00    -0.507 OA
ATOM     21  H   UNL     1      10.663  -3.930  23.708  0.00  0.00    +0.292 HD
ENDBRANCH  10  20
BRANCH  14  22
ATOM     22  O   UNL     1       3.041  -7.560  26.670  0.00  0.00    -0.506 OA
ATOM     23  H   UNL     1       3.735  -7.252  27.272  0.00  0.00    +0.292 HD
ENDBRANCH  14  22
TORSDOF 3
ENDMDL
MODEL 4
REMARK VINA RESULT:      -6.9      2.847      5.171
REMARK  Name = 
REMARK  4 active torsions:
REMARK  status: ('A' for Active; 'I' for Inactive)
REMARK    1  A    between atoms: C_1  and  C_2
REMARK    2  A    between atoms: C_4  and  O_5
REMARK    3  A    between atoms: C_12  and  O_13
REMARK    4  A    between atoms: C_15  and  O_16
REMARK                            x       y       z     vdW  Elec       q    Type
REMARK                         _______ _______ _______ _____ _____    ______ ____
ROOT
ATOM      1  C   UNL     1       9.743  -1.534  22.258  0.00  0.00    +0.044 C 
ATOM      2  C   UNL     1       8.990  -2.521  23.101  0.00  0.00    -0.046 A 
ATOM      3  C   UNL     1       7.763  -3.021  22.662  0.00  0.00    +0.016 A 
ATOM      4  C   UNL     1       7.044  -3.946  23.438  0.00  0.00    +0.037 A 
ATOM      5  C   UNL     1       7.535  -4.388  24.666  0.00  0.00    +0.075 A 
ATOM      6  C   UNL     1       6.742  -5.369  25.463  0.00  0.00    +0.202 C 
ATOM      7  C   UNL     1       5.438  -5.868  24.934  0.00  0.00    +0.075 A 
ATOM      8  C   UNL     1       4.642  -6.798  25.631  0.00  0.00    +0.132 A 
ATOM      9  C   UNL     1       3.424  -7.242  25.104  0.00  0.00    +0.091 A 
ATOM     10  C   UNL     1       2.990  -6.762  23.876  0.00  0.00    +0.121 A 
ATOM     11  C   UNL     1       3.752  -5.848  23.168  0.00  0.00    +0.058 A 
ATOM     12  C   UNL     1       4.976  -5.404  23.701  0.00  0.00    +0.040 A 
ATOM     13  O   UNL     1       7.156  -5.761  26.547  0.00  0.00    -0.286 OA
ATOM     14  C   UNL     1       8.773  -3.881  25.101  0.00  0.00    +0.129 A 
ATOM     15  C   UNL     1       5.756  -4.434  22.919  0.00  0.00    +0.195 C 
ATOM     16  O   UNL     1       5.333  -4.036  21.838  0.00  0.00    -0.287 OA
ATOM     17  C   UNL     1       9.491  -2.959  24.329  0.00  0.00    +0.049 A 
ENDROOT
BRANCH   8  18
ATOM     18  O   UNL     1       5.031  -7.296  26.842  0.00  0.00    -0.506 OA
ATOM     19  H   UNL     1       5.913  -7.694  26.782  0.00  0.00    +0.292 HD
ENDBRANCH   8  18
BRANCH  10  20
ATOM     20  O   UNL     1       1.799  -7.220  23.399  0.00  0.00    -0.507 OA
ATOM     21  H   UNL     1       1.205  -7.404  24.147  0.00  0.00    +0.292 HD
ENDBRANCH  10  20
BRANCH  14  22
ATOM     22  O   UNL     1       9.316  -4.272  26.293  0.00  0.00    -0.506 OA
ATOM     23  H   UNL     1       8.628  -4.563  26.910  0.00  0.00    +0.292 HD
ENDBRANCH  14  22
TORSDOF 3
ENDMDL
MODEL 5
REMARK VINA RESULT:      -6.8      1.162      5.460
REMARK  Name = 
REMARK  4 active torsions:
REMARK  status: ('A' for Active; 'I' for Inactive)
REMARK    1  A    between atoms: C_1  and  C_2
REMARK    2  A    between atoms: C_4  and  O_5
REMARK    3  A    between atoms: C_12  and  O_13
REMARK    4  A    between atoms: C_15  and  O_16
REMARK                            x       y       z     vdW  Elec       q    Type
REMARK                         _______ _______ _______ _____ _____    ______ ____
ROOT
ATOM      1  C   UNL     1       6.788  -5.349  27.683  0.00  0.00    +0.044 C 
ATOM      2  C   UNL     1       7.210  -4.595  26.457  0.00  0.00    -0.046 A 
ATOM      3  C   UNL     1       7.805  -3.338  26.582  0.00  0.00    +0.016 A 
ATOM      4  C   UNL     1       8.207  -2.616  25.444  0.00  0.00    +0.037 A 
ATOM      5  C   UNL     1       8.022  -3.133  24.163  0.00  0.00    +0.075 A 
ATOM      6  C   UNL     1       8.459  -2.337  22.980  0.00  0.00    +0.202 C 
ATOM      7  C   UNL     1       9.094  -1.001  23.183  0.00  0.00    +0.075 A 
ATOM      8  C   UNL     1       9.534  -0.199  22.112  0.00  0.00    +0.132 A 
ATOM      9  C   UNL     1      10.124   1.049  22.341  0.00  0.00    +0.091 A 
ATOM     10  C   UNL     1      10.279   1.509  23.641  0.00  0.00    +0.121 A 
ATOM     11  C   UNL     1       9.856   0.741  24.714  0.00  0.00    +0.058 A 
ATOM     12  C   UNL     1       9.264  -0.513  24.480  0.00  0.00    +0.040 A 
ATOM     13  O   UNL     1       8.296  -2.774  21.848  0.00  0.00    -0.286 OA
ATOM     14  C   UNL     1       7.422  -4.401  24.045  0.00  0.00    +0.129 A 
ATOM     15  C   UNL     1       8.828  -1.297  25.644  0.00  0.00    +0.195 C 
ATOM     16  O   UNL     1       8.984  -0.851  26.777  0.00  0.00    -0.287 OA
ATOM     17  C   UNL     1       7.021  -5.122  25.178  0.00  0.00    +0.049 A 
ENDROOT
BRANCH   8  18
ATOM     18  O   UNL     1       9.402  -0.612  20.816  0.00  0.00    -0.506 OA
ATOM     19  H   UNL     1       8.473  -0.581  20.539  0.00  0.00    +0.292 HD
ENDBRANCH   8  18
BRANCH  10  20
ATOM     20  O   UNL     1      10.857   2.729  23.820  0.00  0.00    -0.507 OA
ATOM     21  H   UNL     1      11.644   2.630  24.384  0.00  0.00    +0.292 HD
ENDBRANCH  10  20
BRANCH  14  22
ATOM     22  O   UNL     1       7.212  -4.970  22.821  0.00  0.00    -0.506 OA
ATOM     23  H   UNL     1       7.013  -4.297  22.154  0.00  0.00    +0.292 HD
ENDBRANCH  14  22
TORSDOF 3
ENDMDL
MODEL 6
REMARK VINA RESULT:      -6.8      2.187      5.753
REMARK  Name = 
REMARK  4 active torsions:
REMARK  status: ('A' for Active; 'I' for Inactive)
REMARK    1  A    between atoms: C_1  and  C_2
REMARK    2  A    between atoms: C_4  and  O_5
REMARK    3  A    between atoms: C_12  and  O_13
REMARK    4  A    between atoms: C_15  and  O_16
REMARK                            x       y       z     vdW  Elec       q    Type
REMARK                         _______ _______ _______ _____ _____    ______ ____
ROOT
ATOM      1  C   UNL     1       5.334  -4.453  28.203  0.00  0.00    +0.044 C 
ATOM      2  C   UNL     1       6.355  -4.058  27.178  0.00  0.00    -0.046 A 
ATOM      3  C   UNL     1       6.153  -2.919  26.396  0.00  0.00    +0.016 A 
ATOM      4  C   UNL     1       7.099  -2.532  25.430  0.00  0.00    +0.037 A 
ATOM      5  C   UNL     1       8.262  -3.275  25.227  0.00  0.00    +0.075 A 
ATOM      6  C   UNL     1       9.241  -2.835  24.191  0.00  0.00    +0.202 C 
ATOM      7  C   UNL     1       8.968  -1.604  23.391  0.00  0.00    +0.075 A 
ATOM      8  C   UNL     1       9.851  -1.129  22.402  0.00  0.00    +0.132 A 
ATOM      9  C   UNL     1       9.560   0.028  21.672  0.00  0.00    +0.091 A 
ATOM     10  C   UNL     1       8.385   0.722  21.922  0.00  0.00    +0.121 A 
ATOM     11  C   UNL     1       7.498   0.279  22.889  0.00  0.00    +0.058 A 
ATOM     12  C   UNL     1       7.794  -0.884  23.621  0.00  0.00    +0.040 A 
ATOM     13  O   UNL     1      10.263  -3.480  23.995  0.00  0.00    -0.286 OA
ATOM     14  C   UNL     1       8.458  -4.421  26.020  0.00  0.00    +0.129 A 
ATOM     15  C   UNL     1       6.827  -1.322  24.639  0.00  0.00    +0.195 C 
ATOM     16  O   UNL     1       5.800  -0.677  24.826  0.00  0.00    -0.287 OA
ATOM     17  C   UNL     1       7.516  -4.807  26.982  0.00  0.00    +0.049 A 
ENDROOT
BRANCH   8  18
ATOM     18  O   UNL     1      11.019  -1.781  22.125  0.00  0.00    -0.506 OA
ATOM     19  H   UNL     1      11.169  -2.502  22.755  0.00  0.00    +0.292 HD
ENDBRANCH   8  18
BRANCH  10  20
ATOM     20  O   UNL     1       8.140   1.843  21.188  0.00  0.00    -0.507 OA
ATOM     21  H   UNL     1       8.980   2.181  20.831  0.00  0.00    +0.292 HD
ENDBRANCH  10  20
BRANCH  14  22
ATOM     22  O   UNL     1       9.575  -5.194  25.876  0.00  0.00    -0.506 OA
ATOM     23  H   UNL     1       9.402  -6.108  26.147  0.00  0.00    +0.292 HD
ENDBRANCH  14  22
TORSDOF 3
ENDMDL
MODEL 7
REMARK VINA RESULT:      -6.8      2.930      7.233
REMARK  Name = 
REMARK  4 active torsions:
REMARK  status: ('A' for Active; 'I' for Inactive)
REMARK    1  A    between atoms: C_1  and  C_2
REMARK    2  A    between atoms: C_4  and  O_5
REMARK    3  A    between atoms: C_12  and  O_13
REMARK    4  A    between atoms: C_15  and  O_16
REMARK                            x       y       z     vdW  Elec       q    Type
REMARK                         _______ _______ _______ _____ _____    ______ ____
ROOT
ATOM      1  C   UNL     1       1.608  -7.402  23.418  0.00  0.00    +0.044 C 
ATOM      2  C   UNL     1       2.903  -6.918  24.000  0.00  0.00    -0.046 A 
ATOM      3  C   UNL     1       3.696  -6.017  23.285  0.00  0.00    +0.016 A 
ATOM      4  C   UNL     1       4.912  -5.552  23.815  0.00  0.00    +0.037 A 
ATOM      5  C   UNL     1       5.361  -5.978  25.065  0.00  0.00    +0.075 A 
ATOM      6  C   UNL     1       6.658  -5.465  25.592  0.00  0.00    +0.202 C 
ATOM      7  C   UNL     1       7.456  -4.499  24.780  0.00  0.00    +0.075 A 
ATOM      8  C   UNL     1       8.686  -3.971  25.219  0.00  0.00    +0.132 A 
ATOM      9  C   UNL     1       9.406  -3.068  24.428  0.00  0.00    +0.091 A 
ATOM     10  C   UNL     1       8.906  -2.685  23.192  0.00  0.00    +0.121 A 
ATOM     11  C   UNL     1       7.699  -3.187  22.734  0.00  0.00    +0.058 A 
ATOM     12  C   UNL     1       6.977  -4.094  23.532  0.00  0.00    +0.040 A 
ATOM     13  O   UNL     1       7.069  -5.834  26.685  0.00  0.00    -0.286 OA
ATOM     14  C   UNL     1       4.556  -6.884  25.779  0.00  0.00    +0.129 A 
ATOM     15  C   UNL     1       5.701  -4.604  23.012  0.00  0.00    +0.195 C 
ATOM     16  O   UNL     1       5.297  -4.239  21.912  0.00  0.00    -0.287 OA
ATOM     17  C   UNL     1       3.343  -7.349  25.253  0.00  0.00    +0.049 A 
ENDROOT
BRANCH   8  18
ATOM     18  O   UNL     1       9.214  -4.320  26.429  0.00  0.00    -0.506 OA
ATOM     19  H   UNL     1      10.041  -4.814  26.313  0.00  0.00    +0.292 HD
ENDBRANCH   8  18
BRANCH  10  20
ATOM     20  O   UNL     1       9.638  -1.805  22.454  0.00  0.00    -0.507 OA
ATOM     21  H   UNL     1      10.566  -2.098  22.436  0.00  0.00    +0.292 HD
ENDBRANCH  10  20
BRANCH  14  22
ATOM     22  O   UNL     1       4.932  -7.342  27.011  0.00  0.00    -0.506 OA
ATOM     23  H   UNL     1       4.545  -8.211  27.192  0.00  0.00    +0.292 HD
ENDBRANCH  14  22
TORSDOF 3
ENDMDL
MODEL 8
REMARK VINA RESULT:      -6.6      2.016      4.243
REMARK  Name = 
REMARK  4 active torsions:
REMARK  status: ('A' for Active; 'I' for Inactive)
REMARK    1  A    between atoms: C_1  and  C_2
REMARK    2  A    between atoms: C_4  and  O_5
REMARK    3  A    between atoms: C_12  and  O_13
REMARK    4  A    between atoms: C_15  and  O_16
REMARK                            x       y       z     vdW  Elec       q    Type
REMARK                         _______ _______ _______ _____ _____    ______ ____
ROOT
ATOM      1  C   UNL     1       9.721  -0.470  21.535  0.00  0.00    +0.044 C 
ATOM      2  C   UNL     1       9.075  -1.284  22.617  0.00  0.00    -0.046 A 
ATOM      3  C   UNL     1       8.218  -2.334  22.282  0.00  0.00    +0.016 A 
ATOM      4  C   UNL     1       7.604  -3.108  23.283  0.00  0.00    +0.037 A 
ATOM      5  C   UNL     1       7.832  -2.848  24.634  0.00  0.00    +0.075 A 
ATOM      6  C   UNL     1       7.160  -3.689  25.667  0.00  0.00    +0.202 C 
ATOM      7  C   UNL     1       6.259  -4.800  25.242  0.00  0.00    +0.075 A 
ATOM      8  C   UNL     1       5.597  -5.636  26.163  0.00  0.00    +0.132 A 
ATOM      9  C   UNL     1       4.758  -6.667  25.727  0.00  0.00    +0.091 A 
ATOM     10  C   UNL     1       4.571  -6.874  24.368  0.00  0.00    +0.121 A 
ATOM     11  C   UNL     1       5.209  -6.069  23.439  0.00  0.00    +0.058 A 
ATOM     12  C   UNL     1       6.052  -5.033  23.881  0.00  0.00    +0.040 A 
ATOM     13  O   UNL     1       7.345  -3.468  26.857  0.00  0.00    -0.286 OA
ATOM     14  C   UNL     1       8.698  -1.789  24.962  0.00  0.00    +0.129 A 
ATOM     15  C   UNL     1       6.711  -4.200  22.864  0.00  0.00    +0.195 C 
ATOM     16  O   UNL     1       6.515  -4.419  21.672  0.00  0.00    -0.287 OA
ATOM     17  C   UNL     1       9.311  -1.017  23.967  0.00  0.00    +0.049 A 
ENDROOT
BRANCH   8  18
ATOM     18  O   UNL     1       5.754  -5.468  27.510  0.00  0.00    -0.506 OA
ATOM     19  H   UNL     1       5.705  -6.320  27.970  0.00  0.00    +0.292 HD
ENDBRANCH   8  18
BRANCH  10  20
ATOM     20  O   UNL     1       3.746  -7.888  23.987  0.00  0.00    -0.507 OA
ATOM     21  H   UNL     1       2.921  -7.839  24.500  0.00  0.00    +0.292 HD
ENDBRANCH  10  20
BRANCH  14  22
ATOM     22  O   UNL     1       8.970  -1.479  26.265  0.00  0.00    -0.506 OA
ATOM     23  H   UNL     1       8.315  -1.872  26.860  0.00  0.00    +0.292 HD
ENDBRANCH  14  22
TORSDOF 3
ENDMDL
MODEL 9
REMARK VINA RESULT:      -6.5      2.827      5.931
REMARK  Name = 
REMARK  4 active torsions:
REMARK  status: ('A' for Active; 'I' for Inactive)
REMARK    1  A    between atoms: C_1  and  C_2
REMARK    2  A    between atoms: C_4  and  O_5
REMARK    3  A    between atoms: C_12  and  O_13
REMARK    4  A    between atoms: C_15  and  O_16
REMARK                            x       y       z     vdW  Elec       q    Type
REMARK                         _______ _______ _______ _____ _____    ______ ____
ROOT
ATOM      1  C   UNL     1       7.055  -4.771  26.190  0.00  0.00    +0.044 C 
ATOM      2  C   UNL     1       7.559  -3.645  25.338  0.00  0.00    -0.046 A 
ATOM      3  C   UNL     1       6.785  -2.495  25.172  0.00  0.00    +0.016 A 
ATOM      4  C   UNL     1       7.241  -1.429  24.377  0.00  0.00    +0.037 A 
ATOM      5  C   UNL     1       8.477  -1.491  23.734  0.00  0.00    +0.075 A 
ATOM      6  C   UNL     1       8.926  -0.341  22.896  0.00  0.00    +0.202 C 
ATOM      7  C   UNL     1       8.052   0.862  22.764  0.00  0.00    +0.075 A 
ATOM      8  C   UNL     1       8.417   1.985  21.994  0.00  0.00    +0.132 A 
ATOM      9  C   UNL     1       7.570   3.094  21.893  0.00  0.00    +0.091 A 
ATOM     10  C   UNL     1       6.352   3.094  22.558  0.00  0.00    +0.121 A 
ATOM     11  C   UNL     1       5.968   2.005  23.322  0.00  0.00    +0.058 A 
ATOM     12  C   UNL     1       6.821   0.891  23.422  0.00  0.00    +0.040 A 
ATOM     13  O   UNL     1      10.005  -0.383  22.318  0.00  0.00    -0.286 OA
ATOM     14  C   UNL     1       9.252  -2.653  23.907  0.00  0.00    +0.129 A 
ATOM     15  C   UNL     1       6.378  -0.245  24.243  0.00  0.00    +0.195 C 
ATOM     16  O   UNL     1       5.292  -0.203  24.813  0.00  0.00    -0.287 OA
ATOM     17  C   UNL     1       8.798  -3.716  24.698  0.00  0.00    +0.049 A 
ENDROOT
BRANCH   8  18
ATOM     18  O   UNL     1       9.607   2.028  21.324  0.00  0.00    -0.506 OA
ATOM     19  H   UNL     1       9.554   2.633  20.569  0.00  0.00    +0.292 HD
ENDBRANCH   8  18
BRANCH  10  20
ATOM     20  O   UNL     1       5.558   4.193  22.432  0.00  0.00    -0.507 OA
ATOM     21  H   UNL     1       5.923   4.914  22.974  0.00  0.00    +0.292 HD
ENDBRANCH  10  20
BRANCH  14  22
ATOM     22  O   UNL     1      10.473  -2.781  23.307  0.00  0.00    -0.506 OA
ATOM     23  H   UNL     1      10.548  -2.192  22.542  0.00  0.00    +0.292 HD
ENDBRANCH  14  22
TORSDOF 3
ENDMDL
