MODEL 1
REMARK VINA RESULT:      -6.8      0.000      0.000
REMARK  Name = 
REMARK  12 active torsions:
REMARK  status: ('A' for Active; 'I' for Inactive)
REMARK    1  A    between atoms: C_2  and  C_3
REMARK    2  A    between atoms: C_3  and  O_4
REMARK    3  A    between atoms: O_4  and  C_5
REMARK    4  A    between atoms: C_5  and  C_7
REMARK    5  A    between atoms: C_7  and  C_8
REMARK    6  A    between atoms: C_19  and  C_21
REMARK    7  A    between atoms: C_21  and  N_22
REMARK    8  A    between atoms: C_23  and  O_25
REMARK    9  A    between atoms: O_25  and  C_26
REMARK   10  A    between atoms: C_26  and  C_27
REMARK   11  A    between atoms: C_26  and  C_28
REMARK   12  A    between atoms: C_26  and  C_29
REMARK                            x       y       z     vdW  Elec       q    Type
REMARK                         _______ _______ _______ _____ _____    ______ ____
ROOT
ATOM      1  C   UNL     1       9.198  -1.821  23.183  0.00  0.00    +0.114 C 
ATOM      2  N   UNL     1       9.394  -0.628  24.014  0.00  0.00    -0.294 N 
ATOM      3  C   UNL     1       9.673   0.665  23.611  0.00  0.00    +0.233 C 
ATOM      4  O   UNL     1       9.940   1.545  24.436  0.00  0.00    -0.274 OA
ATOM      5  C   UNL     1       9.304  -0.942  25.432  0.00  0.00    +0.108 C 
ATOM      6  C   UNL     1       9.021  -2.435  25.511  0.00  0.00    +0.021 C 
ATOM      7  C   UNL     1       9.502  -2.961  24.165  0.00  0.00    +0.027 C 
ENDROOT
BRANCH   3   8
ATOM      8  C   UNL     1       9.747   0.976  22.114  0.00  0.00    +0.203 C 
BRANCH   8   9
ATOM      9  N   UNL     1       9.091   2.228  21.783  0.00  0.00    -0.273 N 
ATOM     10  H   UNL     1       9.638   3.022  21.485  0.00  0.00    +0.153 HD
ATOM     11  C   UNL     1       7.742   2.371  21.873  0.00  0.00    +0.401 C 
ATOM     12  O   UNL     1       6.991   1.462  22.194  0.00  0.00    -0.226 OA
BRANCH  11  13
ATOM     13  O   UNL     1       7.363   3.626  21.525  0.00  0.00    -0.445 OA
BRANCH  13  14
ATOM     14  C   UNL     1       7.008   4.567  22.577  0.00  0.00    +0.107 C 
ATOM     15  C   UNL     1       5.505   4.504  22.885  0.00  0.00    +0.055 C 
ATOM     16  C   UNL     1       7.317   5.968  22.021  0.00  0.00    +0.055 C 
ATOM     17  C   UNL     1       7.867   4.358  23.832  0.00  0.00    +0.055 C 
ENDBRANCH  13  14
ENDBRANCH  11  13
ENDBRANCH   8   9
ENDBRANCH   3   8
BRANCH   1  18
ATOM     18  C   UNL     1       7.785  -1.938  22.567  0.00  0.00    +0.254 C 
BRANCH  18  19
ATOM     19  O   UNL     1       7.625  -3.148  21.808  0.00  0.00    -0.463 OA
BRANCH  19  20
ATOM     20  C   UNL     1       6.419  -3.770  21.950  0.00  0.00    +0.312 C 
ATOM     21  O   UNL     1       5.325  -3.240  21.811  0.00  0.00    -0.250 OA
BRANCH  20  22
ATOM     22  C   UNL     1       6.620  -5.238  22.244  0.00  0.00    +0.155 C 
BRANCH  22  23
ATOM     23  C   UNL     1       6.014  -5.570  23.579  0.00  0.00    -0.035 A 
ATOM     24  C   UNL     1       4.877  -6.388  23.645  0.00  0.00    +0.004 A 
ATOM     25  C   UNL     1       4.416  -6.851  24.875  0.00  0.00    +0.002 A 
ATOM     26  C   UNL     1       5.083  -6.497  26.048  0.00  0.00    +0.020 A 
ATOM     27  C   UNL     1       6.202  -5.669  25.987  0.00  0.00    +0.041 A 
ATOM     28 CL   UNL     1       7.043  -5.257  27.431  0.00  0.00    -0.084 Cl
ATOM     29  C   UNL     1       6.668  -5.201  24.762  0.00  0.00    +0.024 A 
ENDBRANCH  22  23
ENDBRANCH  20  22
ENDBRANCH  19  20
ENDBRANCH  18  19
ENDBRANCH   1  18
TORSDOF 9
ENDMDL
MODEL 2
REMARK VINA RESULT:      -6.7      2.369      3.215
REMARK  Name = 
REMARK  12 active torsions:
REMARK  status: ('A' for Active; 'I' for Inactive)
REMARK    1  A    between atoms: C_2  and  C_3
REMARK    2  A    between atoms: C_3  and  O_4
REMARK    3  A    between atoms: O_4  and  C_5
REMARK    4  A    between atoms: C_5  and  C_7
REMARK    5  A    between atoms: C_7  and  C_8
REMARK    6  A    between atoms: C_19  and  C_21
REMARK    7  A    between atoms: C_21  and  N_22
REMARK    8  A    between atoms: C_23  and  O_25
REMARK    9  A    between atoms: O_25  and  C_26
REMARK   10  A    between atoms: C_26  and  C_27
REMARK   11  A    between atoms: C_26  and  C_28
REMARK   12  A    between atoms: C_26  and  C_29
REMARK                            x       y       z     vdW  Elec       q    Type
REMARK                         _______ _______ _______ _____ _____    ______ ____
ROOT
ATOM      1  C   UNL     1       8.328  -0.880  24.153  0.00  0.00    +0.114 C 
ATOM      2  N   UNL     1       9.070  -0.264  23.048  0.00  0.00    -0.294 N 
ATOM      3  C   UNL     1       9.821   0.897  23.058  0.00  0.00    +0.233 C 
ATOM      4  O   UNL     1      10.286   1.364  22.013  0.00  0.00    -0.274 OA
ATOM      5  C   UNL     1       8.911  -1.014  21.812  0.00  0.00    +0.108 C 
ATOM      6  C   UNL     1       8.013  -2.195  22.153  0.00  0.00    +0.021 C 
ATOM      7  C   UNL     1       7.293  -1.742  23.416  0.00  0.00    +0.027 C 
ENDROOT
BRANCH   3   8
ATOM      8  C   UNL     1       9.989   1.661  24.374  0.00  0.00    +0.203 C 
BRANCH   8   9
ATOM      9  N   UNL     1       8.998   2.710  24.528  0.00  0.00    -0.273 N 
ATOM     10  H   UNL     1       8.095   2.499  24.928  0.00  0.00    +0.153 HD
ATOM     11  C   UNL     1       9.246   3.987  24.133  0.00  0.00    +0.401 C 
ATOM     12  O   UNL     1      10.315   4.349  23.666  0.00  0.00    -0.226 OA
BRANCH  11  13
ATOM     13  O   UNL     1       8.172   4.784  24.366  0.00  0.00    -0.445 OA
BRANCH  13  14
ATOM     14  C   UNL     1       7.360   5.212  23.237  0.00  0.00    +0.107 C 
ATOM     15  C   UNL     1       7.929   6.491  22.606  0.00  0.00    +0.055 C 
ATOM     16  C   UNL     1       5.972   5.547  23.809  0.00  0.00    +0.055 C 
ATOM     17  C   UNL     1       7.187   4.085  22.208  0.00  0.00    +0.055 C 
ENDBRANCH  13  14
ENDBRANCH  11  13
ENDBRANCH   8   9
ENDBRANCH   3   8
BRANCH   1  18
ATOM     18  C   UNL     1       9.203  -1.712  25.118  0.00  0.00    +0.254 C 
BRANCH  18  19
ATOM     19  O   UNL     1       8.500  -2.851  25.640  0.00  0.00    -0.463 OA
BRANCH  19  20
ATOM     20  C   UNL     1       8.971  -4.065  25.231  0.00  0.00    +0.312 C 
ATOM     21  O   UNL     1      10.037  -4.259  24.663  0.00  0.00    -0.250 OA
BRANCH  20  22
ATOM     22  C   UNL     1       8.013  -5.160  25.637  0.00  0.00    +0.155 C 
BRANCH  22  23
ATOM     23  C   UNL     1       6.833  -5.165  24.706  0.00  0.00    -0.035 A 
ATOM     24  C   UNL     1       5.594  -4.681  25.149  0.00  0.00    +0.004 A 
ATOM     25  C   UNL     1       4.545  -4.509  24.249  0.00  0.00    +0.002 A 
ATOM     26  C   UNL     1       4.724  -4.825  22.901  0.00  0.00    +0.020 A 
ATOM     27  C   UNL     1       5.948  -5.325  22.462  0.00  0.00    +0.041 A 
ATOM     28 CL   UNL     1       6.178  -5.686  20.796  0.00  0.00    -0.084 Cl
ATOM     29  C   UNL     1       7.001  -5.500  23.355  0.00  0.00    +0.024 A 
ENDBRANCH  22  23
ENDBRANCH  20  22
ENDBRANCH  19  20
ENDBRANCH  18  19
ENDBRANCH   1  18
TORSDOF 9
ENDMDL
MODEL 3
REMARK VINA RESULT:      -6.6      3.530      6.785
REMARK  Name = 
REMARK  12 active torsions:
REMARK  status: ('A' for Active; 'I' for Inactive)
REMARK    1  A    between atoms: C_2  and  C_3
REMARK    2  A    between atoms: C_3  and  O_4
REMARK    3  A    between atoms: O_4  and  C_5
REMARK    4  A    between atoms: C_5  and  C_7
REMARK    5  A    between atoms: C_7  and  C_8
REMARK    6  A    between atoms: C_19  and  C_21
REMARK    7  A    between atoms: C_21  and  N_22
REMARK    8  A    between atoms: C_23  and  O_25
REMARK    9  A    between atoms: O_25  and  C_26
REMARK   10  A    between atoms: C_26  and  C_27
REMARK   11  A    between atoms: C_26  and  C_28
REMARK   12  A    between atoms: C_26  and  C_29
REMARK                            x       y       z     vdW  Elec       q    Type
REMARK                         _______ _______ _______ _____ _____    ______ ____
ROOT
ATOM      1  C   UNL     1       7.519  -4.609  23.075  0.00  0.00    +0.114 C 
ATOM      2  N   UNL     1       6.294  -5.003  23.780  0.00  0.00    -0.294 N 
ATOM      3  C   UNL     1       5.958  -4.791  25.105  0.00  0.00    +0.233 C 
ATOM      4  O   UNL     1       4.941  -5.295  25.592  0.00  0.00    -0.274 OA
ATOM      5  C   UNL     1       5.389  -5.738  22.911  0.00  0.00    +0.108 C 
ATOM      6  C   UNL     1       6.079  -5.810  21.556  0.00  0.00    +0.021 C 
ATOM      7  C   UNL     1       7.547  -5.585  21.891  0.00  0.00    +0.027 C 
ENDROOT
BRANCH   3   8
ATOM      8  C   UNL     1       6.918  -3.999  25.996  0.00  0.00    +0.203 C 
BRANCH   8   9
ATOM      9  N   UNL     1       6.362  -2.721  26.398  0.00  0.00    -0.273 N 
ATOM     10  H   UNL     1       5.363  -2.612  26.499  0.00  0.00    +0.153 HD
ATOM     11  C   UNL     1       7.155  -1.642  26.637  0.00  0.00    +0.401 C 
ATOM     12  O   UNL     1       8.374  -1.679  26.571  0.00  0.00    -0.226 OA
BRANCH  11  13
ATOM     13  O   UNL     1       6.412  -0.562  26.986  0.00  0.00    -0.445 OA
BRANCH  13  14
ATOM     14  C   UNL     1       6.226   0.504  26.014  0.00  0.00    +0.107 C 
ATOM     15  C   UNL     1       7.346   1.549  26.124  0.00  0.00    +0.055 C 
ATOM     16  C   UNL     1       4.901   1.195  26.381  0.00  0.00    +0.055 C 
ATOM     17  C   UNL     1       6.090  -0.050  24.589  0.00  0.00    +0.055 C 
ENDBRANCH  13  14
ENDBRANCH  11  13
ENDBRANCH   8   9
ENDBRANCH   3   8
BRANCH   1  18
ATOM     18  C   UNL     1       7.540  -3.133  22.619  0.00  0.00    +0.254 C 
BRANCH  18  19
ATOM     19  O   UNL     1       8.470  -2.345  23.380  0.00  0.00    -0.463 OA
BRANCH  19  20
ATOM     20  C   UNL     1       9.576  -1.927  22.698  0.00  0.00    +0.312 C 
ATOM     21  O   UNL     1      10.703  -2.385  22.824  0.00  0.00    -0.250 OA
BRANCH  20  22
ATOM     22  C   UNL     1       9.202  -0.851  21.706  0.00  0.00    +0.155 C 
BRANCH  22  23
ATOM     23  C   UNL     1       9.174   0.482  22.399  0.00  0.00    -0.035 A 
ATOM     24  C   UNL     1      10.178   0.812  23.320  0.00  0.00    +0.004 A 
ATOM     25  C   UNL     1      10.267   2.104  23.829  0.00  0.00    +0.002 A 
ATOM     26  C   UNL     1       9.351   3.077  23.427  0.00  0.00    +0.020 A 
ATOM     27  C   UNL     1       8.340   2.748  22.526  0.00  0.00    +0.041 A 
ATOM     28 CL   UNL     1       7.229   3.955  22.007  0.00  0.00    -0.084 Cl
ATOM     29  C   UNL     1       8.243   1.458  22.014  0.00  0.00    +0.024 A 
ENDBRANCH  22  23
ENDBRANCH  20  22
ENDBRANCH  19  20
ENDBRANCH  18  19
ENDBRANCH   1  18
TORSDOF 9
ENDMDL
MODEL 4
REMARK VINA RESULT:      -6.6      2.720      5.713
REMARK  Name = 
REMARK  12 active torsions:
REMARK  status: ('A' for Active; 'I' for Inactive)
REMARK    1  A    between atoms: C_2  and  C_3
REMARK    2  A    between atoms: C_3  and  O_4
REMARK    3  A    between atoms: O_4  and  C_5
REMARK    4  A    between atoms: C_5  and  C_7
REMARK    5  A    between atoms: C_7  and  C_8
REMARK    6  A    between atoms: C_19  and  C_21
REMARK    7  A    between atoms: C_21  and  N_22
REMARK    8  A    between atoms: C_23  and  O_25
REMARK    9  A    between atoms: O_25  and  C_26
REMARK   10  A    between atoms: C_26  and  C_27
REMARK   11  A    between atoms: C_26  and  C_28
REMARK   12  A    between atoms: C_26  and  C_29
REMARK                            x       y       z     vdW  Elec       q    Type
REMARK                         _______ _______ _______ _____ _____    ______ ____
ROOT
ATOM      1  C   UNL     1       9.269   0.393  24.567  0.00  0.00    +0.114 C 
ATOM      2  N   UNL     1       9.728  -0.179  23.297  0.00  0.00    -0.294 N 
ATOM      3  C   UNL     1       9.953  -1.507  22.983  0.00  0.00    +0.233 C 
ATOM      4  O   UNL     1      10.464  -1.828  21.904  0.00  0.00    -0.274 OA
ATOM      5  C   UNL     1       9.991   0.855  22.308  0.00  0.00    +0.108 C 
ATOM      6  C   UNL     1       9.670   2.176  22.991  0.00  0.00    +0.021 C 
ATOM      7  C   UNL     1       9.763   1.843  24.474  0.00  0.00    +0.027 C 
ENDROOT
BRANCH   3   8
ATOM      8  C   UNL     1       9.652  -2.579  24.033  0.00  0.00    +0.203 C 
BRANCH   8   9
ATOM      9  N   UNL     1       8.311  -3.117  23.896  0.00  0.00    -0.273 N 
ATOM     10  H   UNL     1       7.529  -2.495  23.749  0.00  0.00    +0.153 HD
ATOM     11  C   UNL     1       8.068  -4.453  23.972  0.00  0.00    +0.401 C 
ATOM     12  O   UNL     1       8.948  -5.287  24.118  0.00  0.00    -0.226 OA
BRANCH  11  13
ATOM     13  O   UNL     1       6.745  -4.714  23.827  0.00  0.00    -0.445 OA
BRANCH  13  14
ATOM     14  C   UNL     1       6.221  -4.954  22.491  0.00  0.00    +0.107 C 
ATOM     15  C   UNL     1       5.947  -3.630  21.763  0.00  0.00    +0.055 C 
ATOM     16  C   UNL     1       4.876  -5.675  22.680  0.00  0.00    +0.055 C 
ATOM     17  C   UNL     1       7.143  -5.878  21.682  0.00  0.00    +0.055 C 
ENDBRANCH  13  14
ENDBRANCH  11  13
ENDBRANCH   8   9
ENDBRANCH   3   8
BRANCH   1  18
ATOM     18  C   UNL     1       7.742   0.307  24.786  0.00  0.00    +0.254 C 
BRANCH  18  19
ATOM     19  O   UNL     1       7.390  -0.697  25.752  0.00  0.00    -0.463 OA
BRANCH  19  20
ATOM     20  C   UNL     1       6.183  -1.302  25.551  0.00  0.00    +0.312 C 
ATOM     21  O   UNL     1       5.621  -1.426  24.472  0.00  0.00    -0.250 OA
BRANCH  20  22
ATOM     22  C   UNL     1       5.657  -1.864  26.852  0.00  0.00    +0.155 C 
BRANCH  22  23
ATOM     23  C   UNL     1       5.614  -3.363  26.770  0.00  0.00    -0.035 A 
ATOM     24  C   UNL     1       6.689  -4.120  27.258  0.00  0.00    +0.004 A 
ATOM     25  C   UNL     1       6.586  -5.505  27.356  0.00  0.00    +0.002 A 
ATOM     26  C   UNL     1       5.410  -6.146  26.962  0.00  0.00    +0.020 A 
ATOM     27  C   UNL     1       4.347  -5.399  26.459  0.00  0.00    +0.041 A 
ATOM     28 CL   UNL     1       2.888  -6.186  26.001  0.00  0.00    -0.084 Cl
ATOM     29  C   UNL     1       4.444  -4.015  26.356  0.00  0.00    +0.024 A 
ENDBRANCH  22  23
ENDBRANCH  20  22
ENDBRANCH  19  20
ENDBRANCH  18  19
ENDBRANCH   1  18
TORSDOF 9
ENDMDL
MODEL 5
REMARK VINA RESULT:      -6.6      2.310      3.844
REMARK  Name = 
REMARK  12 active torsions:
REMARK  status: ('A' for Active; 'I' for Inactive)
REMARK    1  A    between atoms: C_2  and  C_3
REMARK    2  A    between atoms: C_3  and  O_4
REMARK    3  A    between atoms: O_4  and  C_5
REMARK    4  A    between atoms: C_5  and  C_7
REMARK    5  A    between atoms: C_7  and  C_8
REMARK    6  A    between atoms: C_19  and  C_21
REMARK    7  A    between atoms: C_21  and  N_22
REMARK    8  A    between atoms: C_23  and  O_25
REMARK    9  A    between atoms: O_25  and  C_26
REMARK   10  A    between atoms: C_26  and  C_27
REMARK   11  A    between atoms: C_26  and  C_28
REMARK   12  A    between atoms: C_26  and  C_29
REMARK                            x       y       z     vdW  Elec       q    Type
REMARK                         _______ _______ _______ _____ _____    ______ ____
ROOT
ATOM      1  C   UNL     1       8.513  -3.648  26.306  0.00  0.00    +0.114 C 
ATOM      2  N   UNL     1       7.374  -2.763  26.575  0.00  0.00    -0.294 N 
ATOM      3  C   UNL     1       7.384  -1.409  26.854  0.00  0.00    +0.233 C 
ATOM      4  O   UNL     1       6.350  -0.820  27.187  0.00  0.00    -0.274 OA
ATOM      5  C   UNL     1       6.115  -3.492  26.563  0.00  0.00    +0.108 C 
ATOM      6  C   UNL     1       6.474  -4.939  26.257  0.00  0.00    +0.021 C 
ATOM      7  C   UNL     1       7.943  -5.032  26.646  0.00  0.00    +0.027 C 
ENDROOT
BRANCH   3   8
ATOM      8  C   UNL     1       8.718  -0.659  26.843  0.00  0.00    +0.203 C 
BRANCH   8   9
ATOM      9  N   UNL     1       8.681   0.510  25.985  0.00  0.00    -0.273 N 
ATOM     10  H   UNL     1       8.004   1.241  26.154  0.00  0.00    +0.153 HD
ATOM     11  C   UNL     1       9.535   0.652  24.936  0.00  0.00    +0.401 C 
ATOM     12  O   UNL     1      10.407  -0.160  24.667  0.00  0.00    -0.226 OA
BRANCH  11  13
ATOM     13  O   UNL     1       9.304   1.815  24.277  0.00  0.00    -0.445 OA
BRANCH  13  14
ATOM     14  C   UNL     1       8.528   1.780  23.047  0.00  0.00    +0.107 C 
ATOM     15  C   UNL     1       7.330   0.829  23.181  0.00  0.00    +0.055 C 
ATOM     16  C   UNL     1       9.461   1.212  21.964  0.00  0.00    +0.055 C 
ATOM     17  C   UNL     1       8.101   3.189  22.610  0.00  0.00    +0.055 C 
ENDBRANCH  13  14
ENDBRANCH  11  13
ENDBRANCH   8   9
ENDBRANCH   3   8
BRANCH   1  18
ATOM     18  C   UNL     1       9.045  -3.573  24.857  0.00  0.00    +0.254 C 
BRANCH  18  19
ATOM     19  O   UNL     1       8.317  -2.622  24.063  0.00  0.00    -0.463 OA
BRANCH  19  20
ATOM     20  C   UNL     1       8.695  -2.545  22.754  0.00  0.00    +0.312 C 
ATOM     21  O   UNL     1       9.848  -2.563  22.345  0.00  0.00    -0.250 OA
BRANCH  20  22
ATOM     22  C   UNL     1       7.478  -2.499  21.860  0.00  0.00    +0.155 C 
BRANCH  22  23
ATOM     23  C   UNL     1       6.642  -3.727  22.086  0.00  0.00    -0.035 A 
ATOM     24  C   UNL     1       7.193  -4.997  21.860  0.00  0.00    +0.004 A 
ATOM     25  C   UNL     1       6.496  -6.142  22.238  0.00  0.00    +0.002 A 
ATOM     26  C   UNL     1       5.242  -6.028  22.839  0.00  0.00    +0.020 A 
ATOM     27  C   UNL     1       4.684  -4.768  23.048  0.00  0.00    +0.041 A 
ATOM     28 CL   UNL     1       3.151  -4.627  23.816  0.00  0.00    -0.084 Cl
ATOM     29  C   UNL     1       5.373  -3.619  22.672  0.00  0.00    +0.024 A 
ENDBRANCH  22  23
ENDBRANCH  20  22
ENDBRANCH  19  20
ENDBRANCH  18  19
ENDBRANCH   1  18
TORSDOF 9
ENDMDL
MODEL 6
REMARK VINA RESULT:      -6.6      3.416      8.081
REMARK  Name = 
REMARK  12 active torsions:
REMARK  status: ('A' for Active; 'I' for Inactive)
REMARK    1  A    between atoms: C_2  and  C_3
REMARK    2  A    between atoms: C_3  and  O_4
REMARK    3  A    between atoms: O_4  and  C_5
REMARK    4  A    between atoms: C_5  and  C_7
REMARK    5  A    between atoms: C_7  and  C_8
REMARK    6  A    between atoms: C_19  and  C_21
REMARK    7  A    between atoms: C_21  and  N_22
REMARK    8  A    between atoms: C_23  and  O_25
REMARK    9  A    between atoms: O_25  and  C_26
REMARK   10  A    between atoms: C_26  and  C_27
REMARK   11  A    between atoms: C_26  and  C_28
REMARK   12  A    between atoms: C_26  and  C_29
REMARK                            x       y       z     vdW  Elec       q    Type
REMARK                         _______ _______ _______ _____ _____    ______ ____
ROOT
ATOM      1  C   UNL     1       7.173  -2.199  24.154  0.00  0.00    +0.114 C 
ATOM      2  N   UNL     1       8.048  -3.317  24.524  0.00  0.00    -0.294 N 
ATOM      3  C   UNL     1       8.252  -4.509  23.854  0.00  0.00    +0.233 C 
ATOM      4  O   UNL     1       8.925  -5.415  24.356  0.00  0.00    -0.274 OA
ATOM      5  C   UNL     1       8.722  -3.073  25.791  0.00  0.00    +0.108 C 
ATOM      6  C   UNL     1       8.252  -1.702  26.255  0.00  0.00    +0.021 C 
ATOM      7  C   UNL     1       6.946  -1.498  25.500  0.00  0.00    +0.027 C 
ENDROOT
BRANCH   3   8
ATOM      8  C   UNL     1       7.546  -4.737  22.515  0.00  0.00    +0.203 C 
BRANCH   8   9
ATOM      9  N   UNL     1       6.342  -5.534  22.660  0.00  0.00    -0.273 N 
ATOM     10  H   UNL     1       6.407  -6.503  22.935  0.00  0.00    +0.153 HD
ATOM     11  C   UNL     1       5.109  -5.011  22.423  0.00  0.00    +0.401 C 
ATOM     12  O   UNL     1       4.923  -3.844  22.116  0.00  0.00    -0.226 OA
BRANCH  11  13
ATOM     13  O   UNL     1       4.143  -5.944  22.612  0.00  0.00    -0.445 OA
BRANCH  13  14
ATOM     14  C   UNL     1       3.274  -5.828  23.774  0.00  0.00    +0.107 C 
ATOM     15  C   UNL     1       3.959  -5.028  24.892  0.00  0.00    +0.055 C 
ATOM     16  C   UNL     1       3.050  -7.260  24.289  0.00  0.00    +0.055 C 
ATOM     17  C   UNL     1       1.906  -5.242  23.398  0.00  0.00    +0.055 C 
ENDBRANCH  13  14
ENDBRANCH  11  13
ENDBRANCH   8   9
ENDBRANCH   3   8
BRANCH   1  18
ATOM     18  C   UNL     1       7.774  -1.250  23.092  0.00  0.00    +0.254 C 
BRANCH  18  19
ATOM     19  O   UNL     1       9.211  -1.254  23.115  0.00  0.00    -0.463 OA
BRANCH  19  20
ATOM     20  C   UNL     1       9.805  -0.119  22.644  0.00  0.00    +0.312 C 
ATOM     21  O   UNL     1       9.745   0.288  21.492  0.00  0.00    -0.250 OA
BRANCH  20  22
ATOM     22  C   UNL     1      10.503   0.610  23.767  0.00  0.00    +0.155 C 
BRANCH  22  23
ATOM     23  C   UNL     1       9.791   1.904  24.045  0.00  0.00    -0.035 A 
ATOM     24  C   UNL     1       8.673   1.918  24.890  0.00  0.00    +0.004 A 
ATOM     25  C   UNL     1       8.117   3.127  25.300  0.00  0.00    +0.002 A 
ATOM     26  C   UNL     1       8.670   4.332  24.865  0.00  0.00    +0.020 A 
ATOM     27  C   UNL     1       9.770   4.322  24.009  0.00  0.00    +0.041 A 
ATOM     28 CL   UNL     1      10.470   5.807  23.497  0.00  0.00    -0.084 Cl
ATOM     29  C   UNL     1      10.330   3.117  23.594  0.00  0.00    +0.024 A 
ENDBRANCH  22  23
ENDBRANCH  20  22
ENDBRANCH  19  20
ENDBRANCH  18  19
ENDBRANCH   1  18
TORSDOF 9
ENDMDL
MODEL 7
REMARK VINA RESULT:      -6.5      2.946      8.139
REMARK  Name = 
REMARK  12 active torsions:
REMARK  status: ('A' for Active; 'I' for Inactive)
REMARK    1  A    between atoms: C_2  and  C_3
REMARK    2  A    between atoms: C_3  and  O_4
REMARK    3  A    between atoms: O_4  and  C_5
REMARK    4  A    between atoms: C_5  and  C_7
REMARK    5  A    between atoms: C_7  and  C_8
REMARK    6  A    between atoms: C_19  and  C_21
REMARK    7  A    between atoms: C_21  and  N_22
REMARK    8  A    between atoms: C_23  and  O_25
REMARK    9  A    between atoms: O_25  and  C_26
REMARK   10  A    between atoms: C_26  and  C_27
REMARK   11  A    between atoms: C_26  and  C_28
REMARK   12  A    between atoms: C_26  and  C_29
REMARK                            x       y       z     vdW  Elec       q    Type
REMARK                         _______ _______ _______ _____ _____    ______ ____
ROOT
ATOM      1  C   UNL     1       9.950   0.626  24.349  0.00  0.00    +0.114 C 
ATOM      2  N   UNL     1       9.828  -0.160  23.117  0.00  0.00    -0.294 N 
ATOM      3  C   UNL     1       9.625  -1.521  22.981  0.00  0.00    +0.233 C 
ATOM      4  O   UNL     1       9.672  -2.064  21.872  0.00  0.00    -0.274 OA
ATOM      5  C   UNL     1       9.993   0.670  21.933  0.00  0.00    +0.108 C 
ATOM      6  C   UNL     1      10.226   2.084  22.446  0.00  0.00    +0.021 C 
ATOM      7  C   UNL     1      10.711   1.871  23.873  0.00  0.00    +0.027 C 
ENDROOT
BRANCH   3   8
ATOM      8  C   UNL     1       9.437  -2.372  24.239  0.00  0.00    +0.203 C 
BRANCH   8   9
ATOM      9  N   UNL     1       8.621  -3.546  23.987  0.00  0.00    -0.273 N 
ATOM     10  H   UNL     1       9.035  -4.372  23.578  0.00  0.00    +0.153 HD
ATOM     11  C   UNL     1       7.293  -3.567  24.280  0.00  0.00    +0.401 C 
ATOM     12  O   UNL     1       6.707  -2.633  24.804  0.00  0.00    -0.226 OA
BRANCH  11  13
ATOM     13  O   UNL     1       6.743  -4.762  23.949  0.00  0.00    -0.445 OA
BRANCH  13  14
ATOM     14  C   UNL     1       6.200  -4.936  22.610  0.00  0.00    +0.107 C 
ATOM     15  C   UNL     1       5.954  -3.578  21.937  0.00  0.00    +0.055 C 
ATOM     16  C   UNL     1       4.838  -5.628  22.785  0.00  0.00    +0.055 C 
ATOM     17  C   UNL     1       7.089  -5.852  21.757  0.00  0.00    +0.055 C 
ENDBRANCH  13  14
ENDBRANCH  11  13
ENDBRANCH   8   9
ENDBRANCH   3   8
BRANCH   1  18
ATOM     18  C   UNL     1       8.598   0.982  25.009  0.00  0.00    +0.254 C 
BRANCH  18  19
ATOM     19  O   UNL     1       7.480   0.592  24.195  0.00  0.00    -0.463 OA
BRANCH  19  20
ATOM     20  C   UNL     1       6.920   1.594  23.456  0.00  0.00    +0.312 C 
ATOM     21  O   UNL     1       6.623   1.522  22.272  0.00  0.00    -0.250 OA
BRANCH  20  22
ATOM     22  C   UNL     1       6.654   2.799  24.327  0.00  0.00    +0.155 C 
BRANCH  22  23
ATOM     23  C   UNL     1       7.299   4.011  23.717  0.00  0.00    -0.035 A 
ATOM     24  C   UNL     1       6.697   4.644  22.620  0.00  0.00    +0.004 A 
ATOM     25  C   UNL     1       7.181   5.867  22.161  0.00  0.00    +0.002 A 
ATOM     26  C   UNL     1       8.272   6.465  22.792  0.00  0.00    +0.020 A 
ATOM     27  C   UNL     1       8.884   5.830  23.871  0.00  0.00    +0.041 A 
ATOM     28 CL   UNL     1      10.211   6.582  24.667  0.00  0.00    -0.084 Cl
ATOM     29  C   UNL     1       8.408   4.607  24.334  0.00  0.00    +0.024 A 
ENDBRANCH  22  23
ENDBRANCH  20  22
ENDBRANCH  19  20
ENDBRANCH  18  19
ENDBRANCH   1  18
TORSDOF 9
ENDMDL
MODEL 8
REMARK VINA RESULT:      -6.5      2.334      3.726
REMARK  Name = 
REMARK  12 active torsions:
REMARK  status: ('A' for Active; 'I' for Inactive)
REMARK    1  A    between atoms: C_2  and  C_3
REMARK    2  A    between atoms: C_3  and  O_4
REMARK    3  A    between atoms: O_4  and  C_5
REMARK    4  A    between atoms: C_5  and  C_7
REMARK    5  A    between atoms: C_7  and  C_8
REMARK    6  A    between atoms: C_19  and  C_21
REMARK    7  A    between atoms: C_21  and  N_22
REMARK    8  A    between atoms: C_23  and  O_25
REMARK    9  A    between atoms: O_25  and  C_26
REMARK   10  A    between atoms: C_26  and  C_27
REMARK   11  A    between atoms: C_26  and  C_28
REMARK   12  A    between atoms: C_26  and  C_29
REMARK                            x       y       z     vdW  Elec       q    Type
REMARK                         _______ _______ _______ _____ _____    ______ ____
ROOT
ATOM      1  C   UNL     1       7.636  -0.965  25.244  0.00  0.00    +0.114 C 
ATOM      2  N   UNL     1       7.544  -1.605  23.927  0.00  0.00    -0.294 N 
ATOM      3  C   UNL     1       8.535  -1.759  22.975  0.00  0.00    +0.233 C 
ATOM      4  O   UNL     1       8.275  -2.209  21.853  0.00  0.00    -0.274 OA
ATOM      5  C   UNL     1       6.195  -2.077  23.653  0.00  0.00    +0.108 C 
ATOM      6  C   UNL     1       5.372  -1.721  24.883  0.00  0.00    +0.021 C 
ATOM      7  C   UNL     1       6.174  -0.604  25.538  0.00  0.00    +0.027 C 
ENDROOT
BRANCH   3   8
ATOM      8  C   UNL     1       9.951  -1.272  23.291  0.00  0.00    +0.203 C 
BRANCH   8   9
ATOM      9  N   UNL     1      10.089   0.161  23.107  0.00  0.00    -0.273 N 
ATOM     10  H   UNL     1       9.845   0.584  22.223  0.00  0.00    +0.153 HD
ATOM     11  C   UNL     1      10.556   0.965  24.099  0.00  0.00    +0.401 C 
ATOM     12  O   UNL     1      10.849   0.555  25.212  0.00  0.00    -0.226 OA
BRANCH  11  13
ATOM     13  O   UNL     1      10.607   2.258  23.692  0.00  0.00    -0.445 OA
BRANCH  13  14
ATOM     14  C   UNL     1       9.393   3.058  23.747  0.00  0.00    +0.107 C 
ATOM     15  C   UNL     1       8.582   2.914  22.451  0.00  0.00    +0.055 C 
ATOM     16  C   UNL     1       9.849   4.524  23.857  0.00  0.00    +0.055 C 
ATOM     17  C   UNL     1       8.558   2.730  24.992  0.00  0.00    +0.055 C 
ENDBRANCH  13  14
ENDBRANCH  11  13
ENDBRANCH   8   9
ENDBRANCH   3   8
BRANCH   1  18
ATOM     18  C   UNL     1       8.251  -1.862  26.342  0.00  0.00    +0.254 C 
BRANCH  18  19
ATOM     19  O   UNL     1       8.415  -3.220  25.902  0.00  0.00    -0.463 OA
BRANCH  19  20
ATOM     20  C   UNL     1       7.561  -4.123  26.466  0.00  0.00    +0.312 C 
ATOM     21  O   UNL     1       6.762  -3.882  27.360  0.00  0.00    -0.250 OA
BRANCH  20  22
ATOM     22  C   UNL     1       7.694  -5.464  25.783  0.00  0.00    +0.155 C 
BRANCH  22  23
ATOM     23  C   UNL     1       6.994  -5.422  24.454  0.00  0.00    -0.035 A 
ATOM     24  C   UNL     1       7.745  -5.424  23.270  0.00  0.00    +0.004 A 
ATOM     25  C   UNL     1       7.113  -5.570  22.038  0.00  0.00    +0.002 A 
ATOM     26  C   UNL     1       5.726  -5.709  21.978  0.00  0.00    +0.020 A 
ATOM     27  C   UNL     1       4.975  -5.688  23.151  0.00  0.00    +0.041 A 
ATOM     28 CL   UNL     1       3.268  -5.890  23.080  0.00  0.00    -0.084 Cl
ATOM     29  C   UNL     1       5.599  -5.541  24.387  0.00  0.00    +0.024 A 
ENDBRANCH  22  23
ENDBRANCH  20  22
ENDBRANCH  19  20
ENDBRANCH  18  19
ENDBRANCH   1  18
TORSDOF 9
ENDMDL
MODEL 9
REMARK VINA RESULT:      -6.5      3.415      8.246
REMARK  Name = 
REMARK  12 active torsions:
REMARK  status: ('A' for Active; 'I' for Inactive)
REMARK    1  A    between atoms: C_2  and  C_3
REMARK    2  A    between atoms: C_3  and  O_4
REMARK    3  A    between atoms: O_4  and  C_5
REMARK    4  A    between atoms: C_5  and  C_7
REMARK    5  A    between atoms: C_7  and  C_8
REMARK    6  A    between atoms: C_19  and  C_21
REMARK    7  A    between atoms: C_21  and  N_22
REMARK    8  A    between atoms: C_23  and  O_25
REMARK    9  A    between atoms: O_25  and  C_26
REMARK   10  A    between atoms: C_26  and  C_27
REMARK   11  A    between atoms: C_26  and  C_28
REMARK   12  A    between atoms: C_26  and  C_29
REMARK                            x       y       z     vdW  Elec       q    Type
REMARK                         _______ _______ _______ _____ _____    ______ ____
ROOT
ATOM      1  C   UNL     1       7.142  -2.846  24.244  0.00  0.00    +0.114 C 
ATOM      2  N   UNL     1       7.439  -3.822  25.299  0.00  0.00    -0.294 N 
ATOM      3  C   UNL     1       6.956  -5.110  25.439  0.00  0.00    +0.233 C 
ATOM      4  O   UNL     1       7.197  -5.773  26.453  0.00  0.00    -0.274 OA
ATOM      5  C   UNL     1       8.333  -3.269  26.304  0.00  0.00    +0.108 C 
ATOM      6  C   UNL     1       8.635  -1.846  25.856  0.00  0.00    +0.021 C 
ATOM      7  C   UNL     1       7.477  -1.512  24.925  0.00  0.00    +0.027 C 
ENDROOT
BRANCH   3   8
ATOM      8  C   UNL     1       6.031  -5.677  24.360  0.00  0.00    +0.203 C 
BRANCH   8   9
ATOM      9  N   UNL     1       4.630  -5.557  24.723  0.00  0.00    -0.273 N 
ATOM     10  H   UNL     1       4.335  -5.746  25.670  0.00  0.00    +0.153 HD
ATOM     11  C   UNL     1       3.686  -5.203  23.811  0.00  0.00    +0.401 C 
ATOM     12  O   UNL     1       3.945  -4.925  22.650  0.00  0.00    -0.226 OA
BRANCH  11  13
ATOM     13  O   UNL     1       2.454  -5.168  24.377  0.00  0.00    -0.445 OA
BRANCH  13  14
ATOM     14  C   UNL     1       1.463  -6.149  23.961  0.00  0.00    +0.107 C 
ATOM     15  C   UNL     1       0.682  -5.653  22.736  0.00  0.00    +0.055 C 
ATOM     16  C   UNL     1       0.472  -6.281  25.130  0.00  0.00    +0.055 C 
ATOM     17  C   UNL     1       2.099  -7.526  23.724  0.00  0.00    +0.055 C 
ENDBRANCH  13  14
ENDBRANCH  11  13
ENDBRANCH   8   9
ENDBRANCH   3   8
BRANCH   1  18
ATOM     18  C   UNL     1       7.946  -3.057  22.941  0.00  0.00    +0.254 C 
BRANCH  18  19
ATOM     19  O   UNL     1       8.224  -1.817  22.271  0.00  0.00    -0.463 OA
BRANCH  19  20
ATOM     20  C   UNL     1       9.547  -1.501  22.157  0.00  0.00    +0.312 C 
ATOM     21  O   UNL     1      10.480  -2.202  22.524  0.00  0.00    -0.250 OA
BRANCH  20  22
ATOM     22  C   UNL     1       9.708  -0.176  21.449  0.00  0.00    +0.155 C 
BRANCH  22  23
ATOM     23  C   UNL     1       9.295   0.938  22.369  0.00  0.00    -0.035 A 
ATOM     24  C   UNL     1       9.888   1.053  23.635  0.00  0.00    +0.004 A 
ATOM     25  C   UNL     1       9.652   2.178  24.422  0.00  0.00    +0.002 A 
ATOM     26  C   UNL     1       8.818   3.194  23.953  0.00  0.00    +0.020 A 
ATOM     27  C   UNL     1       8.213   3.075  22.703  0.00  0.00    +0.041 A 
ATOM     28 CL   UNL     1       7.209   4.341  22.113  0.00  0.00    -0.084 Cl
ATOM     29  C   UNL     1       8.442   1.953  21.912  0.00  0.00    +0.024 A 
ENDBRANCH  22  23
ENDBRANCH  20  22
ENDBRANCH  19  20
ENDBRANCH  18  19
ENDBRANCH   1  18
TORSDOF 9
ENDMDL
