MODEL 1
REMARK VINA RESULT:      -5.9      0.000      0.000
REMARK  Name = 
REMARK  8 active torsions:
REMARK  status: ('A' for Active; 'I' for Inactive)
REMARK    1  A    between atoms: C_1  and  N_2
REMARK    2  A    between atoms: N_2  and  C_3
REMARK    3  A    between atoms: N_2  and  C_4
REMARK    4  A    between atoms: C_4  and  C_5
REMARK    5  A    between atoms: C_13  and  C_14
REMARK    6  A    between atoms: C_14  and  C_15
REMARK    7  A    between atoms: C_15  and  C_16
REMARK    8  A    between atoms: C_16  and  O_17
REMARK                            x       y       z     vdW  Elec       q    Type
REMARK                         _______ _______ _______ _____ _____    ______ ____
ROOT
ATOM      1  C   UNL     1       9.192   1.283  23.468  0.00  0.00    -0.008 A 
ATOM      2  C   UNL     1       8.941   2.510  24.171  0.00  0.00    +0.004 A 
ATOM      3  C   UNL     1       8.103   2.856  25.251  0.00  0.00    +0.010 A 
ATOM      4  C   UNL     1       8.086   4.173  25.715  0.00  0.00    +0.001 A 
ATOM      5  C   UNL     1       8.896   5.140  25.126  0.00  0.00    +0.006 A 
ATOM      6  C   UNL     1       9.763   4.835  24.059  0.00  0.00    -0.023 A 
ATOM      7  C   UNL     1       9.745   3.500  23.604  0.00  0.00    +0.050 A 
ATOM      8  N   UNL     1      10.455   2.897  22.589  0.00  0.00    -0.360 N 
ATOM      9  H   UNL     1      11.132   3.368  22.006  0.00  0.00    +0.165 HD
ATOM     10  C   UNL     1      10.124   1.575  22.490  0.00  0.00    +0.088 A 
ENDROOT
BRANCH   1  11
ATOM     11  C   UNL     1       8.560  -0.049  23.743  0.00  0.00    +0.121 C 
BRANCH  11  13
ATOM     12  C   UNL     1       8.751  -1.225  25.868  0.00  0.00    +0.104 C 
ATOM     13  N   UNL     1       9.415  -0.887  24.605  0.00  0.00    -0.304 NA
ATOM     14  C   UNL     1       9.766  -2.117  23.892  0.00  0.00    +0.104 C 
ENDBRANCH  11  13
ENDBRANCH   1  11
BRANCH   6  15
ATOM     15  C   UNL     1      10.634   5.915  23.467  0.00  0.00    +0.039 C 
BRANCH  15  16
ATOM     16  C   UNL     1      12.092   5.774  23.897  0.00  0.00    +0.032 C 
BRANCH  16  17
ATOM     17  C   UNL     1      12.984   5.437  22.709  0.00  0.00    +0.156 C 
BRANCH  17  18
ATOM     18  O   UNL     1      14.287   5.089  23.158  0.00  0.00    -0.395 OA
ATOM     19  H   UNL     1      14.207   4.740  24.062  0.00  0.00    +0.209 HD
ENDBRANCH  17  18
ENDBRANCH  16  17
ENDBRANCH  15  16
ENDBRANCH   6  15
TORSDOF 6
ENDMDL
MODEL 2
REMARK VINA RESULT:      -5.4      2.138      3.998
REMARK  Name = 
REMARK  8 active torsions:
REMARK  status: ('A' for Active; 'I' for Inactive)
REMARK    1  A    between atoms: C_1  and  N_2
REMARK    2  A    between atoms: N_2  and  C_3
REMARK    3  A    between atoms: N_2  and  C_4
REMARK    4  A    between atoms: C_4  and  C_5
REMARK    5  A    between atoms: C_13  and  C_14
REMARK    6  A    between atoms: C_14  and  C_15
REMARK    7  A    between atoms: C_15  and  C_16
REMARK    8  A    between atoms: C_16  and  O_17
REMARK                            x       y       z     vdW  Elec       q    Type
REMARK                         _______ _______ _______ _____ _____    ______ ____
ROOT
ATOM      1  C   UNL     1       8.649  -1.589  25.022  0.00  0.00    -0.008 A 
ATOM      2  C   UNL     1       9.013  -0.889  23.823  0.00  0.00    +0.004 A 
ATOM      3  C   UNL     1       8.885  -1.182  22.450  0.00  0.00    +0.010 A 
ATOM      4  C   UNL     1       9.352  -0.268  21.503  0.00  0.00    +0.001 A 
ATOM      5  C   UNL     1       9.933   0.932  21.906  0.00  0.00    +0.006 A 
ATOM      6  C   UNL     1      10.062   1.275  23.266  0.00  0.00    -0.023 A 
ATOM      7  C   UNL     1       9.595   0.324  24.196  0.00  0.00    +0.050 A 
ATOM      8  N   UNL     1       9.590   0.356  25.573  0.00  0.00    -0.360 N 
ATOM      9  H   UNL     1       9.938   1.123  26.129  0.00  0.00    +0.165 HD
ATOM     10  C   UNL     1       9.039  -0.787  26.079  0.00  0.00    +0.088 A 
ENDROOT
BRANCH   1  11
ATOM     11  C   UNL     1       7.982  -2.931  25.105  0.00  0.00    +0.121 C 
BRANCH  11  13
ATOM     12  C   UNL     1       9.455  -4.807  25.598  0.00  0.00    +0.104 C 
ATOM     13  N   UNL     1       8.835  -3.995  24.546  0.00  0.00    -0.304 NA
ATOM     14  C   UNL     1       8.030  -4.855  23.676  0.00  0.00    +0.104 C 
ENDBRANCH  11  13
ENDBRANCH   1  11
BRANCH   6  15
ATOM     15  C   UNL     1      10.682   2.596  23.650  0.00  0.00    +0.039 C 
BRANCH  15  16
ATOM     16  C   UNL     1       9.653   3.724  23.681  0.00  0.00    +0.032 C 
BRANCH  16  17
ATOM     17  C   UNL     1      10.332   5.083  23.789  0.00  0.00    +0.156 C 
BRANCH  17  18
ATOM     18  O   UNL     1       9.650   6.036  22.985  0.00  0.00    -0.395 OA
ATOM     19  H   UNL     1       8.725   5.750  22.904  0.00  0.00    +0.209 HD
ENDBRANCH  17  18
ENDBRANCH  16  17
ENDBRANCH  15  16
ENDBRANCH   6  15
TORSDOF 6
ENDMDL
MODEL 3
REMARK VINA RESULT:      -5.4      2.907      4.812
REMARK  Name = 
REMARK  8 active torsions:
REMARK  status: ('A' for Active; 'I' for Inactive)
REMARK    1  A    between atoms: C_1  and  N_2
REMARK    2  A    between atoms: N_2  and  C_3
REMARK    3  A    between atoms: N_2  and  C_4
REMARK    4  A    between atoms: C_4  and  C_5
REMARK    5  A    between atoms: C_13  and  C_14
REMARK    6  A    between atoms: C_14  and  C_15
REMARK    7  A    between atoms: C_15  and  C_16
REMARK    8  A    between atoms: C_16  and  O_17
REMARK                            x       y       z     vdW  Elec       q    Type
REMARK                         _______ _______ _______ _____ _____    ______ ____
ROOT
ATOM      1  C   UNL     1       8.334  -2.761  22.969  0.00  0.00    -0.008 A 
ATOM      2  C   UNL     1       8.609  -1.981  24.142  0.00  0.00    +0.004 A 
ATOM      3  C   UNL     1       8.314  -2.147  25.510  0.00  0.00    +0.010 A 
ATOM      4  C   UNL     1       8.731  -1.182  26.429  0.00  0.00    +0.001 A 
ATOM      5  C   UNL     1       9.444  -0.065  26.004  0.00  0.00    +0.006 A 
ATOM      6  C   UNL     1       9.780   0.133  24.650  0.00  0.00    -0.023 A 
ATOM      7  C   UNL     1       9.330  -0.852  23.746  0.00  0.00    +0.050 A 
ATOM      8  N   UNL     1       9.482  -0.942  22.381  0.00  0.00    -0.360 N 
ATOM      9  H   UNL     1       9.977  -0.268  21.814  0.00  0.00    +0.165 HD
ATOM     10  C   UNL     1       8.881  -2.072  21.902  0.00  0.00    +0.088 A 
ENDROOT
BRANCH   1  11
ATOM     11  C   UNL     1       7.595  -4.065  22.916  0.00  0.00    +0.121 C 
BRANCH  11  13
ATOM     12  C   UNL     1       6.238  -5.380  21.379  0.00  0.00    +0.104 C 
ATOM     13  N   UNL     1       6.525  -4.040  21.902  0.00  0.00    -0.304 NA
ATOM     14  C   UNL     1       5.310  -3.475  22.492  0.00  0.00    +0.104 C 
ENDBRANCH  11  13
ENDBRANCH   1  11
BRANCH   6  15
ATOM     15  C   UNL     1      10.570   1.351  24.242  0.00  0.00    +0.039 C 
BRANCH  15  16
ATOM     16  C   UNL     1       9.676   2.572  24.039  0.00  0.00    +0.032 C 
BRANCH  16  17
ATOM     17  C   UNL     1       9.087   2.593  22.634  0.00  0.00    +0.156 C 
BRANCH  17  18
ATOM     18  O   UNL     1      10.044   2.120  21.695  0.00  0.00    -0.395 OA
ATOM     19  H   UNL     1      10.584   1.443  22.136  0.00  0.00    +0.209 HD
ENDBRANCH  17  18
ENDBRANCH  16  17
ENDBRANCH  15  16
ENDBRANCH   6  15
TORSDOF 6
ENDMDL
MODEL 4
REMARK VINA RESULT:      -5.3      2.173      4.387
REMARK  Name = 
REMARK  8 active torsions:
REMARK  status: ('A' for Active; 'I' for Inactive)
REMARK    1  A    between atoms: C_1  and  N_2
REMARK    2  A    between atoms: N_2  and  C_3
REMARK    3  A    between atoms: N_2  and  C_4
REMARK    4  A    between atoms: C_4  and  C_5
REMARK    5  A    between atoms: C_13  and  C_14
REMARK    6  A    between atoms: C_14  and  C_15
REMARK    7  A    between atoms: C_15  and  C_16
REMARK    8  A    between atoms: C_16  and  O_17
REMARK                            x       y       z     vdW  Elec       q    Type
REMARK                         _______ _______ _______ _____ _____    ______ ____
ROOT
ATOM      1  C   UNL     1       8.435  -2.043  25.442  0.00  0.00    -0.008 A 
ATOM      2  C   UNL     1       8.917  -1.467  24.219  0.00  0.00    +0.004 A 
ATOM      3  C   UNL     1       8.914  -1.894  22.876  0.00  0.00    +0.010 A 
ATOM      4  C   UNL     1       9.477  -1.081  21.891  0.00  0.00    +0.001 A 
ATOM      5  C   UNL     1      10.032   0.152  22.226  0.00  0.00    +0.006 A 
ATOM      6  C   UNL     1      10.039   0.629  23.551  0.00  0.00    -0.023 A 
ATOM      7  C   UNL     1       9.477  -0.224  24.524  0.00  0.00    +0.050 A 
ATOM      8  N   UNL     1       9.344  -0.055  25.884  0.00  0.00    -0.360 N 
ATOM      9  H   UNL     1       9.648   0.763  26.392  0.00  0.00    +0.165 HD
ATOM     10  C   UNL     1       8.735  -1.141  26.446  0.00  0.00    +0.088 A 
ENDROOT
BRANCH   1  11
ATOM     11  C   UNL     1       7.748  -3.368  25.595  0.00  0.00    +0.121 C 
BRANCH  11  13
ATOM     12  C   UNL     1       7.711  -5.335  27.031  0.00  0.00    +0.104 C 
ATOM     13  N   UNL     1       8.546  -4.302  26.410  0.00  0.00    -0.304 NA
ATOM     14  C   UNL     1       9.563  -4.935  25.567  0.00  0.00    +0.104 C 
ENDBRANCH  11  13
ENDBRANCH   1  11
BRANCH   6  15
ATOM     15  C   UNL     1      10.636   1.979  23.859  0.00  0.00    +0.039 C 
BRANCH  15  16
ATOM     16  C   UNL     1       9.565   3.054  24.025  0.00  0.00    +0.032 C 
BRANCH  16  17
ATOM     17  C   UNL     1      10.126   4.438  23.725  0.00  0.00    +0.156 C 
BRANCH  17  18
ATOM     18  O   UNL     1      11.373   4.326  23.052  0.00  0.00    -0.395 OA
ATOM     19  H   UNL     1      11.819   3.528  23.382  0.00  0.00    +0.209 HD
ENDBRANCH  17  18
ENDBRANCH  16  17
ENDBRANCH  15  16
ENDBRANCH   6  15
TORSDOF 6
ENDMDL
MODEL 5
REMARK VINA RESULT:      -5.3      4.876      8.434
REMARK  Name = 
REMARK  8 active torsions:
REMARK  status: ('A' for Active; 'I' for Inactive)
REMARK    1  A    between atoms: C_1  and  N_2
REMARK    2  A    between atoms: N_2  and  C_3
REMARK    3  A    between atoms: N_2  and  C_4
REMARK    4  A    between atoms: C_4  and  C_5
REMARK    5  A    between atoms: C_13  and  C_14
REMARK    6  A    between atoms: C_14  and  C_15
REMARK    7  A    between atoms: C_15  and  C_16
REMARK    8  A    between atoms: C_16  and  O_17
REMARK                            x       y       z     vdW  Elec       q    Type
REMARK                         _______ _______ _______ _____ _____    ______ ____
ROOT
ATOM      1  C   UNL     1       9.248  -2.502  23.370  0.00  0.00    -0.008 A 
ATOM      2  C   UNL     1       7.875  -2.888  23.211  0.00  0.00    +0.004 A 
ATOM      3  C   UNL     1       6.849  -2.488  22.330  0.00  0.00    +0.010 A 
ATOM      4  C   UNL     1       5.585  -3.069  22.434  0.00  0.00    +0.001 A 
ATOM      5  C   UNL     1       5.334  -4.047  23.393  0.00  0.00    +0.006 A 
ATOM      6  C   UNL     1       6.333  -4.492  24.280  0.00  0.00    -0.023 A 
ATOM      7  C   UNL     1       7.595  -3.873  24.159  0.00  0.00    +0.050 A 
ATOM      8  N   UNL     1       8.755  -4.074  24.873  0.00  0.00    -0.360 N 
ATOM      9  H   UNL     1       8.858  -4.744  25.621  0.00  0.00    +0.165 HD
ATOM     10  C   UNL     1       9.748  -3.252  24.419  0.00  0.00    +0.088 A 
ENDROOT
BRANCH   1  11
ATOM     11  C   UNL     1       9.990  -1.481  22.559  0.00  0.00    +0.121 C 
BRANCH  11  13
ATOM     12  C   UNL     1      10.656   0.390  23.969  0.00  0.00    +0.104 C 
ATOM     13  N   UNL     1       9.677  -0.108  22.998  0.00  0.00    -0.304 NA
ATOM     14  C   UNL     1       9.647   0.779  21.834  0.00  0.00    +0.104 C 
ENDBRANCH  11  13
ENDBRANCH   1  11
BRANCH   6  15
ATOM     15  C   UNL     1       6.016  -5.567  25.290  0.00  0.00    +0.039 C 
BRANCH  15  16
ATOM     16  C   UNL     1       5.715  -4.986  26.669  0.00  0.00    +0.032 C 
BRANCH  16  17
ATOM     17  C   UNL     1       6.688  -5.521  27.713  0.00  0.00    +0.156 C 
BRANCH  17  18
ATOM     18  O   UNL     1       7.911  -5.898  27.095  0.00  0.00    -0.395 OA
ATOM     19  H   UNL     1       8.604  -5.893  27.777  0.00  0.00    +0.209 HD
ENDBRANCH  17  18
ENDBRANCH  16  17
ENDBRANCH  15  16
ENDBRANCH   6  15
TORSDOF 6
ENDMDL
MODEL 6
REMARK VINA RESULT:      -5.3      4.286      8.111
REMARK  Name = 
REMARK  8 active torsions:
REMARK  status: ('A' for Active; 'I' for Inactive)
REMARK    1  A    between atoms: C_1  and  N_2
REMARK    2  A    between atoms: N_2  and  C_3
REMARK    3  A    between atoms: N_2  and  C_4
REMARK    4  A    between atoms: C_4  and  C_5
REMARK    5  A    between atoms: C_13  and  C_14
REMARK    6  A    between atoms: C_14  and  C_15
REMARK    7  A    between atoms: C_15  and  C_16
REMARK    8  A    between atoms: C_16  and  O_17
REMARK                            x       y       z     vdW  Elec       q    Type
REMARK                         _______ _______ _______ _____ _____    ______ ____
ROOT
ATOM      1  C   UNL     1       8.209  -1.106  23.993  0.00  0.00    -0.008 A 
ATOM      2  C   UNL     1       8.197  -2.389  24.638  0.00  0.00    +0.004 A 
ATOM      3  C   UNL     1       8.298  -2.801  25.983  0.00  0.00    +0.010 A 
ATOM      4  C   UNL     1       8.251  -4.161  26.292  0.00  0.00    +0.001 A 
ATOM      5  C   UNL     1       8.097  -5.110  25.285  0.00  0.00    +0.006 A 
ATOM      6  C   UNL     1       7.973  -4.743  23.931  0.00  0.00    -0.023 A 
ATOM      7  C   UNL     1       8.039  -3.363  23.650  0.00  0.00    +0.050 A 
ATOM      8  N   UNL     1       7.963  -2.695  22.448  0.00  0.00    -0.360 N 
ATOM      9  H   UNL     1       7.833  -3.143  21.552  0.00  0.00    +0.165 HD
ATOM     10  C   UNL     1       8.076  -1.347  22.638  0.00  0.00    +0.088 A 
ENDROOT
BRANCH   1  11
ATOM     11  C   UNL     1       8.344   0.229  24.663  0.00  0.00    +0.121 C 
BRANCH  11  13
ATOM     12  C   UNL     1       9.353   2.427  24.368  0.00  0.00    +0.104 C 
ATOM     13  N   UNL     1       9.494   0.986  24.134  0.00  0.00    -0.304 NA
ATOM     14  C   UNL     1      10.724   0.506  24.768  0.00  0.00    +0.104 C 
ENDBRANCH  11  13
ENDBRANCH   1  11
BRANCH   6  15
ATOM     15  C   UNL     1       7.789  -5.808  22.879  0.00  0.00    +0.039 C 
BRANCH  15  16
ATOM     16  C   UNL     1       6.328  -5.958  22.464  0.00  0.00    +0.032 C 
BRANCH  16  17
ATOM     17  C   UNL     1       6.130  -5.572  21.004  0.00  0.00    +0.156 C 
BRANCH  17  18
ATOM     18  O   UNL     1       5.753  -4.205  20.905  0.00  0.00    -0.395 OA
ATOM     19  H   UNL     1       5.192  -3.995  21.671  0.00  0.00    +0.209 HD
ENDBRANCH  17  18
ENDBRANCH  16  17
ENDBRANCH  15  16
ENDBRANCH   6  15
TORSDOF 6
ENDMDL
MODEL 7
REMARK VINA RESULT:      -5.3      5.243      7.864
REMARK  Name = 
REMARK  8 active torsions:
REMARK  status: ('A' for Active; 'I' for Inactive)
REMARK    1  A    between atoms: C_1  and  N_2
REMARK    2  A    between atoms: N_2  and  C_3
REMARK    3  A    between atoms: N_2  and  C_4
REMARK    4  A    between atoms: C_4  and  C_5
REMARK    5  A    between atoms: C_13  and  C_14
REMARK    6  A    between atoms: C_14  and  C_15
REMARK    7  A    between atoms: C_15  and  C_16
REMARK    8  A    between atoms: C_16  and  O_17
REMARK                            x       y       z     vdW  Elec       q    Type
REMARK                         _______ _______ _______ _____ _____    ______ ____
ROOT
ATOM      1  C   UNL     1       5.921  -5.151  23.108  0.00  0.00    -0.008 A 
ATOM      2  C   UNL     1       6.838  -4.852  24.171  0.00  0.00    +0.004 A 
ATOM      3  C   UNL     1       6.917  -5.241  25.524  0.00  0.00    +0.010 A 
ATOM      4  C   UNL     1       7.960  -4.764  26.318  0.00  0.00    +0.001 A 
ATOM      5  C   UNL     1       8.927  -3.918  25.782  0.00  0.00    +0.006 A 
ATOM      6  C   UNL     1       8.900  -3.520  24.431  0.00  0.00    -0.023 A 
ATOM      7  C   UNL     1       7.824  -4.006  23.660  0.00  0.00    +0.050 A 
ATOM      8  N   UNL     1       7.513  -3.795  22.335  0.00  0.00    -0.360 N 
ATOM      9  H   UNL     1       8.060  -3.230  21.702  0.00  0.00    +0.165 HD
ATOM     10  C   UNL     1       6.371  -4.463  21.996  0.00  0.00    +0.088 A 
ENDROOT
BRANCH   1  11
ATOM     11  C   UNL     1       4.710  -6.033  23.193  0.00  0.00    +0.121 C 
BRANCH  11  13
ATOM     12  C   UNL     1       2.287  -6.128  22.966  0.00  0.00    +0.104 C 
ATOM     13  N   UNL     1       3.464  -5.257  23.054  0.00  0.00    -0.304 NA
ATOM     14  C   UNL     1       3.322  -4.356  24.200  0.00  0.00    +0.104 C 
ENDBRANCH  11  13
ENDBRANCH   1  11
BRANCH   6  15
ATOM     15  C   UNL     1       9.981  -2.616  23.893  0.00  0.00    +0.039 C 
BRANCH  15  16
ATOM     16  C   UNL     1       9.526  -1.161  23.818  0.00  0.00    +0.032 C 
BRANCH  16  17
ATOM     17  C   UNL     1       9.438  -0.687  22.373  0.00  0.00    +0.156 C 
BRANCH  17  18
ATOM     18  O   UNL     1       9.863  -1.720  21.493  0.00  0.00    -0.395 OA
ATOM     19  H   UNL     1       9.702  -1.420  20.582  0.00  0.00    +0.209 HD
ENDBRANCH  17  18
ENDBRANCH  16  17
ENDBRANCH  15  16
ENDBRANCH   6  15
TORSDOF 6
ENDMDL
MODEL 8
REMARK VINA RESULT:      -5.2      3.956      5.560
REMARK  Name = 
REMARK  8 active torsions:
REMARK  status: ('A' for Active; 'I' for Inactive)
REMARK    1  A    between atoms: C_1  and  N_2
REMARK    2  A    between atoms: N_2  and  C_3
REMARK    3  A    between atoms: N_2  and  C_4
REMARK    4  A    between atoms: C_4  and  C_5
REMARK    5  A    between atoms: C_13  and  C_14
REMARK    6  A    between atoms: C_14  and  C_15
REMARK    7  A    between atoms: C_15  and  C_16
REMARK    8  A    between atoms: C_16  and  O_17
REMARK                            x       y       z     vdW  Elec       q    Type
REMARK                         _______ _______ _______ _____ _____    ______ ____
ROOT
ATOM      1  C   UNL     1       8.561  -3.742  25.835  0.00  0.00    -0.008 A 
ATOM      2  C   UNL     1       8.547  -2.307  25.785  0.00  0.00    +0.004 A 
ATOM      3  C   UNL     1       7.930  -1.314  26.572  0.00  0.00    +0.010 A 
ATOM      4  C   UNL     1       8.117   0.032  26.254  0.00  0.00    +0.001 A 
ATOM      5  C   UNL     1       8.914   0.399  25.173  0.00  0.00    +0.006 A 
ATOM      6  C   UNL     1       9.566  -0.558  24.372  0.00  0.00    -0.023 A 
ATOM      7  C   UNL     1       9.345  -1.910  24.710  0.00  0.00    +0.050 A 
ATOM      8  N   UNL     1       9.821  -3.062  24.126  0.00  0.00    -0.360 N 
ATOM      9  H   UNL     1      10.440  -3.086  23.328  0.00  0.00    +0.165 HD
ATOM     10  C   UNL     1       9.350  -4.164  24.781  0.00  0.00    +0.088 A 
ENDROOT
BRANCH   1  11
ATOM     11  C   UNL     1       7.852  -4.608  26.834  0.00  0.00    +0.121 C 
BRANCH  11  13
ATOM     12  C   UNL     1       5.929  -5.702  25.816  0.00  0.00    +0.104 C 
ATOM     13  N   UNL     1       6.391  -4.578  26.637  0.00  0.00    -0.304 NA
ATOM     14  C   UNL     1       5.725  -4.618  27.940  0.00  0.00    +0.104 C 
ENDBRANCH  11  13
ENDBRANCH   1  11
BRANCH   6  15
ATOM     15  C   UNL     1      10.435  -0.110  23.223  0.00  0.00    +0.039 C 
BRANCH  15  16
ATOM     16  C   UNL     1       9.708  -0.206  21.884  0.00  0.00    +0.032 C 
BRANCH  16  17
ATOM     17  C   UNL     1       9.021   1.108  21.536  0.00  0.00    +0.156 C 
BRANCH  17  18
ATOM     18  O   UNL     1       9.970   2.166  21.518  0.00  0.00    -0.395 OA
ATOM     19  H   UNL     1      10.830   1.791  21.262  0.00  0.00    +0.209 HD
ENDBRANCH  17  18
ENDBRANCH  16  17
ENDBRANCH  15  16
ENDBRANCH   6  15
TORSDOF 6
ENDMDL
MODEL 9
REMARK VINA RESULT:      -5.1      5.660      9.254
REMARK  Name = 
REMARK  8 active torsions:
REMARK  status: ('A' for Active; 'I' for Inactive)
REMARK    1  A    between atoms: C_1  and  N_2
REMARK    2  A    between atoms: N_2  and  C_3
REMARK    3  A    between atoms: N_2  and  C_4
REMARK    4  A    between atoms: C_4  and  C_5
REMARK    5  A    between atoms: C_13  and  C_14
REMARK    6  A    between atoms: C_14  and  C_15
REMARK    7  A    between atoms: C_15  and  C_16
REMARK    8  A    between atoms: C_16  and  O_17
REMARK                            x       y       z     vdW  Elec       q    Type
REMARK                         _______ _______ _______ _____ _____    ______ ____
ROOT
ATOM      1  C   UNL     1       8.121  -2.735  22.820  0.00  0.00    -0.008 A 
ATOM      2  C   UNL     1       8.349  -3.599  23.943  0.00  0.00    +0.004 A 
ATOM      3  C   UNL     1       9.489  -3.917  24.709  0.00  0.00    +0.010 A 
ATOM      4  C   UNL     1       9.379  -4.821  25.766  0.00  0.00    +0.001 A 
ATOM      5  C   UNL     1       8.152  -5.402  26.075  0.00  0.00    +0.006 A 
ATOM      6  C   UNL     1       6.983  -5.099  25.350  0.00  0.00    -0.023 A 
ATOM      7  C   UNL     1       7.131  -4.194  24.278  0.00  0.00    +0.050 A 
ATOM      8  N   UNL     1       6.199  -3.712  23.387  0.00  0.00    -0.360 N 
ATOM      9  H   UNL     1       5.219  -3.958  23.394  0.00  0.00    +0.165 HD
ATOM     10  C   UNL     1       6.780  -2.848  22.503  0.00  0.00    +0.088 A 
ENDROOT
BRANCH   1  11
ATOM     11  C   UNL     1       9.142  -1.881  22.128  0.00  0.00    +0.121 C 
BRANCH  11  13
ATOM     12  C   UNL     1      10.139  -0.324  23.713  0.00  0.00    +0.104 C 
ATOM     13  N   UNL     1       9.142  -0.503  22.653  0.00  0.00    -0.304 NA
ATOM     14  C   UNL     1       9.417   0.432  21.560  0.00  0.00    +0.104 C 
ENDBRANCH  11  13
ENDBRANCH   1  11
BRANCH   6  15
ATOM     15  C   UNL     1       5.674  -5.741  25.735  0.00  0.00    +0.039 C 
BRANCH  15  16
ATOM     16  C   UNL     1       5.360  -5.558  27.218  0.00  0.00    +0.032 C 
BRANCH  16  17
ATOM     17  C   UNL     1       4.666  -6.788  27.788  0.00  0.00    +0.156 C 
BRANCH  17  18
ATOM     18  O   UNL     1       5.609  -7.618  28.452  0.00  0.00    -0.395 OA
ATOM     19  H   UNL     1       5.136  -8.116  29.141  0.00  0.00    +0.209 HD
ENDBRANCH  17  18
ENDBRANCH  16  17
ENDBRANCH  15  16
ENDBRANCH   6  15
TORSDOF 6
ENDMDL
