MODEL 1
REMARK VINA RESULT:      -3.8      0.000      0.000
REMARK  Name = 
REMARK  50 active torsions:
REMARK  status: ('A' for Active; 'I' for Inactive)
REMARK    1  A    between atoms: C_1  and  C_2
REMARK    2  A    between atoms: C_2  and  C_3
REMARK    3  A    between atoms: C_3  and  C_4
REMARK    4  A    between atoms: C_4  and  C_5
REMARK    5  A    between atoms: C_5  and  C_6
REMARK    6  A    between atoms: C_6  and  C_7
REMARK    7  A    between atoms: C_7  and  C_8
REMARK    8  A    between atoms: C_8  and  C_9
REMARK    9  A    between atoms: C_9  and  C_10
REMARK   10  A    between atoms: C_10  and  C_11
REMARK   11  A    between atoms: C_11  and  C_12
REMARK   12  A    between atoms: C_12  and  C_13
REMARK   13  A    between atoms: C_13  and  C_14
REMARK   14  A    between atoms: C_14  and  C_15
REMARK   15  A    between atoms: C_15  and  C_16
REMARK   16  A    between atoms: C_16  and  C_17
REMARK   17  A    between atoms: C_17  and  C_18
REMARK   18  A    between atoms: C_18  and  O_20
REMARK   19  A    between atoms: O_20  and  C_21
REMARK   20  A    between atoms: C_21  and  C_22
REMARK   21  A    between atoms: C_22  and  C_24
REMARK   22  A    between atoms: C_22  and  O_36
REMARK   23  A    between atoms: C_24  and  O_25
REMARK   24  A    between atoms: O_25  and  P_26
REMARK   25  A    between atoms: P_26  and  O_27
REMARK   26  A    between atoms: P_26  and  O_29
REMARK   27  A    between atoms: O_29  and  C_30
REMARK   28  A    between atoms: C_30  and  C_31
REMARK   29  A    between atoms: C_31  and  N_32
REMARK   30  A    between atoms: N_32  and  C_33
REMARK   31  A    between atoms: N_32  and  C_34
REMARK   32  A    between atoms: N_32  and  C_35
REMARK   33  A    between atoms: O_36  and  C_37
REMARK   34  A    between atoms: C_37  and  C_39
REMARK   35  A    between atoms: C_39  and  C_40
REMARK   36  A    between atoms: C_40  and  C_41
REMARK   37  A    between atoms: C_41  and  C_42
REMARK   38  A    between atoms: C_42  and  C_43
REMARK   39  A    between atoms: C_43  and  C_44
REMARK   40  A    between atoms: C_44  and  C_45
REMARK   41  A    between atoms: C_45  and  C_46
REMARK   42  A    between atoms: C_46  and  C_47
REMARK   43  A    between atoms: C_47  and  C_48
REMARK   44  A    between atoms: C_48  and  C_49
REMARK   45  A    between atoms: C_49  and  C_50
REMARK   46  A    between atoms: C_50  and  C_51
REMARK   47  A    between atoms: C_51  and  C_52
REMARK   48  A    between atoms: C_52  and  C_53
REMARK   49  A    between atoms: C_53  and  C_54
REMARK   50  A    between atoms: C_54  and  C_55
REMARK                            x       y       z     vdW  Elec       q    Type
REMARK                         _______ _______ _______ _____ _____    ______ ____
ROOT
ATOM      1  C   UNL     1       9.044  -1.936  23.037  0.00  0.00    +0.240 C 
ENDROOT
BRANCH   1   2
ATOM      2  C   UNL     1       9.920  -0.819  22.467  0.00  0.00    +0.220 C 
BRANCH   2   3
ATOM      3  O   UNL     1       9.231  -0.031  21.492  0.00  0.00    -0.283 OA
BRANCH   3   4
ATOM      4  P   UNL     1       8.916   1.463  21.975  0.00  0.00    +0.475 P 
ATOM      5  O   UNL     1       7.671   2.077  21.425  0.00  0.00    -0.227 OA
BRANCH   4   6
ATOM      6  O   UNL     1      10.250   2.252  21.582  0.00  0.00    -0.302 OA
ATOM      7  H   UNL     1      10.093   2.907  20.876  0.00  0.00    +0.222 HD
ENDBRANCH   4   6
BRANCH   4   8
ATOM      8  O   UNL     1       8.985   1.465  23.581  0.00  0.00    -0.281 OA
BRANCH   8   9
ATOM      9  C   UNL     1       9.579   2.601  24.211  0.00  0.00    +0.223 C 
BRANCH   9  10
ATOM     10  C   UNL     1       8.563   3.727  24.493  0.00  0.00    +0.161 C 
BRANCH  10  11
ATOM     11  N   UNL     1       9.086   5.158  24.251  0.00  0.00    +0.239 N 
ATOM     12  C   UNL     1      10.546   5.040  23.788  0.00  0.00    +0.192 C 
ATOM     13  C   UNL     1       9.073   5.971  25.542  0.00  0.00    +0.192 C 
ATOM     14  C   UNL     1       8.296   5.872  23.168  0.00  0.00    +0.192 C 
ENDBRANCH  10  11
ENDBRANCH   9  10
ENDBRANCH   8   9
ENDBRANCH   4   8
ENDBRANCH   3   4
ENDBRANCH   2   3
ENDBRANCH   1   2
BRANCH   1  15
ATOM     15  C   UNL     1       9.796  -2.791  24.067  0.00  0.00    +0.279 C 
BRANCH  15  16
ATOM     16  O   UNL     1       9.006  -3.266  25.160  0.00  0.00    -0.461 OA
BRANCH  16  17
ATOM     17  C   UNL     1       8.982  -4.619  25.241  0.00  0.00    +0.307 C 
ATOM     18  O   UNL     1       9.373  -5.362  24.354  0.00  0.00    -0.251 OA
BRANCH  17  19
ATOM     19  C   UNL     1       8.493  -5.039  26.601  0.00  0.00    +0.120 C 
BRANCH  19  20
ATOM     20  C   UNL     1       6.982  -4.878  26.662  0.00  0.00    +0.011 C 
BRANCH  20  21
ATOM     21  C   UNL     1       6.286  -5.679  25.572  0.00  0.00    +0.001 C 
BRANCH  21  22
ATOM     22  C   UNL     1       4.948  -6.198  26.085  0.00  0.00    +0.000 C 
BRANCH  22  23
ATOM     23  C   UNL     1       4.221  -5.135  26.895  0.00  0.00    +0.000 C 
BRANCH  23  24
ATOM     24  C   UNL     1       3.550  -5.761  28.111  0.00  0.00    +0.000 C 
BRANCH  24  25
ATOM     25  C   UNL     1       3.577  -4.801  29.293  0.00  0.00    -0.000 C 
BRANCH  25  26
ATOM     26  C   UNL     1       4.380  -3.552  28.953  0.00  0.00    -0.000 C 
BRANCH  26  27
ATOM     27  C   UNL     1       3.802  -2.336  29.665  0.00  0.00    -0.000 C 
BRANCH  27  28
ATOM     28  C   UNL     1       2.496  -1.898  29.015  0.00  0.00    -0.000 C 
BRANCH  28  29
ATOM     29  C   UNL     1       2.716  -1.560  27.545  0.00  0.00    -0.000 C 
BRANCH  29  30
ATOM     30  C   UNL     1       1.542  -2.041  26.700  0.00  0.00    -0.000 C 
BRANCH  30  31
ATOM     31  C   UNL     1       0.793  -3.166  27.406  0.00  0.00    -0.000 C 
BRANCH  31  32
ATOM     32  C   UNL     1       0.545  -4.333  26.456  0.00  0.00    -0.000 C 
BRANCH  32  33
ATOM     33  C   UNL     1       1.243  -4.104  25.119  0.00  0.00    -0.000 C 
BRANCH  33  35
ATOM     34  C   UNL     1       2.488  -5.402  23.366  0.00  0.00    +0.004 C 
ATOM     35  C   UNL     1       1.285  -5.388  24.293  0.00  0.00    -0.003 C 
ENDBRANCH  33  35
ENDBRANCH  32  33
ENDBRANCH  31  32
ENDBRANCH  30  31
ENDBRANCH  29  30
ENDBRANCH  28  29
ENDBRANCH  27  28
ENDBRANCH  26  27
ENDBRANCH  25  26
ENDBRANCH  24  25
ENDBRANCH  23  24
ENDBRANCH  22  23
ENDBRANCH  21  22
ENDBRANCH  20  21
ENDBRANCH  19  20
ENDBRANCH  17  19
ENDBRANCH  16  17
ENDBRANCH  15  16
ENDBRANCH   1  15
BRANCH   1  36
ATOM     36  O   UNL     1       8.461  -2.785  22.013  0.00  0.00    -0.456 OA
BRANCH  36  37
ATOM     37  C   UNL     1       7.252  -3.357  22.247  0.00  0.00    +0.308 C 
ATOM     38  O   UNL     1       6.983  -4.541  22.086  0.00  0.00    -0.251 OA
BRANCH  37  39
ATOM     39  C   UNL     1       6.267  -2.354  22.777  0.00  0.00    +0.120 C 
BRANCH  39  40
ATOM     40  C   UNL     1       5.191  -3.005  23.632  0.00  0.00    +0.011 C 
BRANCH  40  41
ATOM     41  C   UNL     1       4.964  -2.253  24.945  0.00  0.00    +0.001 C 
BRANCH  41  42
ATOM     42  C   UNL     1       6.150  -1.348  25.252  0.00  0.00    +0.000 C 
BRANCH  42  43
ATOM     43  C   UNL     1       6.424  -1.294  26.750  0.00  0.00    +0.000 C 
BRANCH  43  44
ATOM     44  C   UNL     1       7.547  -0.308  27.051  0.00  0.00    +0.000 C 
BRANCH  44  45
ATOM     45  C   UNL     1       7.080   0.767  28.024  0.00  0.00    -0.000 C 
BRANCH  45  46
ATOM     46  C   UNL     1       5.571   0.687  28.230  0.00  0.00    -0.000 C 
BRANCH  46  47
ATOM     47  C   UNL     1       4.887   1.940  27.694  0.00  0.00    -0.000 C 
BRANCH  47  48
ATOM     48  C   UNL     1       4.227   1.664  26.348  0.00  0.00    -0.000 C 
BRANCH  48  49
ATOM     49  C   UNL     1       5.091   2.186  25.205  0.00  0.00    -0.000 C 
BRANCH  49  50
ATOM     50  C   UNL     1       4.233   2.856  24.136  0.00  0.00    -0.000 C 
BRANCH  50  51
ATOM     51  C   UNL     1       5.085   3.745  23.234  0.00  0.00    -0.000 C 
BRANCH  51  52
ATOM     52  C   UNL     1       4.569   5.182  23.235  0.00  0.00    -0.000 C 
BRANCH  52  53
ATOM     53  C   UNL     1       4.146   5.608  24.638  0.00  0.00    -0.000 C 
BRANCH  53  54
ATOM     54  C   UNL     1       5.321   6.193  25.417  0.00  0.00    -0.003 C 
ATOM     55  C   UNL     1       5.466   5.527  26.776  0.00  0.00    +0.004 C 
ENDBRANCH  53  54
ENDBRANCH  52  53
ENDBRANCH  51  52
ENDBRANCH  50  51
ENDBRANCH  49  50
ENDBRANCH  48  49
ENDBRANCH  47  48
ENDBRANCH  46  47
ENDBRANCH  45  46
ENDBRANCH  44  45
ENDBRANCH  43  44
ENDBRANCH  42  43
ENDBRANCH  41  42
ENDBRANCH  40  41
ENDBRANCH  39  40
ENDBRANCH  37  39
ENDBRANCH  36  37
ENDBRANCH   1  36
TORSDOF 45
ENDMDL
MODEL 2
REMARK VINA RESULT:      -3.8      2.705      5.841
REMARK  Name = 
REMARK  50 active torsions:
REMARK  status: ('A' for Active; 'I' for Inactive)
REMARK    1  A    between atoms: C_1  and  C_2
REMARK    2  A    between atoms: C_2  and  C_3
REMARK    3  A    between atoms: C_3  and  C_4
REMARK    4  A    between atoms: C_4  and  C_5
REMARK    5  A    between atoms: C_5  and  C_6
REMARK    6  A    between atoms: C_6  and  C_7
REMARK    7  A    between atoms: C_7  and  C_8
REMARK    8  A    between atoms: C_8  and  C_9
REMARK    9  A    between atoms: C_9  and  C_10
REMARK   10  A    between atoms: C_10  and  C_11
REMARK   11  A    between atoms: C_11  and  C_12
REMARK   12  A    between atoms: C_12  and  C_13
REMARK   13  A    between atoms: C_13  and  C_14
REMARK   14  A    between atoms: C_14  and  C_15
REMARK   15  A    between atoms: C_15  and  C_16
REMARK   16  A    between atoms: C_16  and  C_17
REMARK   17  A    between atoms: C_17  and  C_18
REMARK   18  A    between atoms: C_18  and  O_20
REMARK   19  A    between atoms: O_20  and  C_21
REMARK   20  A    between atoms: C_21  and  C_22
REMARK   21  A    between atoms: C_22  and  C_24
REMARK   22  A    between atoms: C_22  and  O_36
REMARK   23  A    between atoms: C_24  and  O_25
REMARK   24  A    between atoms: O_25  and  P_26
REMARK   25  A    between atoms: P_26  and  O_27
REMARK   26  A    between atoms: P_26  and  O_29
REMARK   27  A    between atoms: O_29  and  C_30
REMARK   28  A    between atoms: C_30  and  C_31
REMARK   29  A    between atoms: C_31  and  N_32
REMARK   30  A    between atoms: N_32  and  C_33
REMARK   31  A    between atoms: N_32  and  C_34
REMARK   32  A    between atoms: N_32  and  C_35
REMARK   33  A    between atoms: O_36  and  C_37
REMARK   34  A    between atoms: C_37  and  C_39
REMARK   35  A    between atoms: C_39  and  C_40
REMARK   36  A    between atoms: C_40  and  C_41
REMARK   37  A    between atoms: C_41  and  C_42
REMARK   38  A    between atoms: C_42  and  C_43
REMARK   39  A    between atoms: C_43  and  C_44
REMARK   40  A    between atoms: C_44  and  C_45
REMARK   41  A    between atoms: C_45  and  C_46
REMARK   42  A    between atoms: C_46  and  C_47
REMARK   43  A    between atoms: C_47  and  C_48
REMARK   44  A    between atoms: C_48  and  C_49
REMARK   45  A    between atoms: C_49  and  C_50
REMARK   46  A    between atoms: C_50  and  C_51
REMARK   47  A    between atoms: C_51  and  C_52
REMARK   48  A    between atoms: C_52  and  C_53
REMARK   49  A    between atoms: C_53  and  C_54
REMARK   50  A    between atoms: C_54  and  C_55
REMARK                            x       y       z     vdW  Elec       q    Type
REMARK                         _______ _______ _______ _____ _____    ______ ____
ROOT
ATOM      1  C   UNL     1       6.174  -0.165  24.186  0.00  0.00    +0.240 C 
ENDROOT
BRANCH   1   2
ATOM      2  C   UNL     1       5.818   1.183  24.819  0.00  0.00    +0.220 C 
BRANCH   2   3
ATOM      3  O   UNL     1       4.823   1.888  24.071  0.00  0.00    -0.283 OA
BRANCH   3   4
ATOM      4  P   UNL     1       3.866   2.803  24.973  0.00  0.00    +0.475 P 
ATOM      5  O   UNL     1       2.415   2.771  24.622  0.00  0.00    -0.227 OA
BRANCH   4   6
ATOM      6  O   UNL     1       4.529   4.252  24.838  0.00  0.00    -0.302 OA
ATOM      7  H   UNL     1       5.477   4.242  25.064  0.00  0.00    +0.222 HD
ENDBRANCH   4   6
BRANCH   4   8
ATOM      8  O   UNL     1       4.171   2.435  26.508  0.00  0.00    -0.281 OA
BRANCH   8   9
ATOM      9  C   UNL     1       4.541   3.505  27.378  0.00  0.00    +0.223 C 
BRANCH   9  10
ATOM     10  C   UNL     1       5.959   3.338  27.961  0.00  0.00    +0.161 C 
BRANCH  10  11
ATOM     11  N   UNL     1       6.081   2.311  29.106  0.00  0.00    +0.239 N 
ATOM     12  C   UNL     1       4.756   2.332  29.883  0.00  0.00    +0.192 C 
ATOM     13  C   UNL     1       7.193   2.700  30.075  0.00  0.00    +0.192 C 
ATOM     14  C   UNL     1       6.304   0.904  28.580  0.00  0.00    +0.192 C 
ENDBRANCH  10  11
ENDBRANCH   9  10
ENDBRANCH   8   9
ENDBRANCH   4   8
ENDBRANCH   3   4
ENDBRANCH   2   3
ENDBRANCH   1   2
BRANCH   1  15
ATOM     15  C   UNL     1       5.480  -1.337  24.896  0.00  0.00    +0.279 C 
BRANCH  15  16
ATOM     16  O   UNL     1       4.377  -0.977  25.732  0.00  0.00    -0.461 OA
BRANCH  16  17
ATOM     17  C   UNL     1       3.913  -2.018  26.466  0.00  0.00    +0.307 C 
ATOM     18  O   UNL     1       3.743  -1.978  27.675  0.00  0.00    -0.251 OA
BRANCH  17  19
ATOM     19  C   UNL     1       3.567  -3.167  25.557  0.00  0.00    +0.120 C 
BRANCH  19  20
ATOM     20  C   UNL     1       2.224  -3.748  25.975  0.00  0.00    +0.011 C 
BRANCH  20  21
ATOM     21  C   UNL     1       1.405  -4.193  24.772  0.00  0.00    +0.001 C 
BRANCH  21  22
ATOM     22  C   UNL     1       2.179  -5.238  23.976  0.00  0.00    +0.000 C 
BRANCH  22  23
ATOM     23  C   UNL     1       2.364  -6.515  24.782  0.00  0.00    +0.000 C 
BRANCH  23  24
ATOM     24  C   UNL     1       3.705  -7.159  24.453  0.00  0.00    +0.000 C 
BRANCH  24  25
ATOM     25  C   UNL     1       4.762  -6.747  25.469  0.00  0.00    -0.000 C 
BRANCH  25  26
ATOM     26  C   UNL     1       4.169  -6.693  26.871  0.00  0.00    -0.000 C 
BRANCH  26  27
ATOM     27  C   UNL     1       5.008  -5.797  27.772  0.00  0.00    -0.000 C 
BRANCH  27  28
ATOM     28  C   UNL     1       6.404  -5.603  27.193  0.00  0.00    -0.000 C 
BRANCH  28  29
ATOM     29  C   UNL     1       6.774  -4.125  27.169  0.00  0.00    -0.000 C 
BRANCH  29  30
ATOM     30  C   UNL     1       8.020  -3.895  26.323  0.00  0.00    -0.000 C 
BRANCH  30  31
ATOM     31  C   UNL     1       8.311  -5.110  25.447  0.00  0.00    -0.000 C 
BRANCH  31  32
ATOM     32  C   UNL     1       8.299  -4.729  23.969  0.00  0.00    -0.000 C 
BRANCH  32  33
ATOM     33  C   UNL     1       6.947  -5.044  23.336  0.00  0.00    -0.000 C 
BRANCH  33  35
ATOM     34  C   UNL     1       6.143  -5.813  21.086  0.00  0.00    +0.004 C 
ATOM     35  C   UNL     1       7.084  -6.100  22.242  0.00  0.00    -0.003 C 
ENDBRANCH  33  35
ENDBRANCH  32  33
ENDBRANCH  31  32
ENDBRANCH  30  31
ENDBRANCH  29  30
ENDBRANCH  28  29
ENDBRANCH  27  28
ENDBRANCH  26  27
ENDBRANCH  25  26
ENDBRANCH  24  25
ENDBRANCH  23  24
ENDBRANCH  22  23
ENDBRANCH  21  22
ENDBRANCH  20  21
ENDBRANCH  19  20
ENDBRANCH  17  19
ENDBRANCH  16  17
ENDBRANCH  15  16
ENDBRANCH   1  15
BRANCH   1  36
ATOM     36  O   UNL     1       7.604  -0.403  24.111  0.00  0.00    -0.456 OA
BRANCH  36  37
ATOM     37  C   UNL     1       8.084  -1.200  23.123  0.00  0.00    +0.308 C 
ATOM     38  O   UNL     1       7.409  -1.742  22.256  0.00  0.00    -0.251 OA
BRANCH  37  39
ATOM     39  C   UNL     1       9.580  -1.314  23.191  0.00  0.00    +0.120 C 
BRANCH  39  40
ATOM     40  C   UNL     1      10.098  -1.203  24.618  0.00  0.00    +0.011 C 
BRANCH  40  41
ATOM     41  C   UNL     1      10.193   0.250  25.085  0.00  0.00    +0.001 C 
BRANCH  41  42
ATOM     42  C   UNL     1      11.143   1.036  24.191  0.00  0.00    +0.000 C 
BRANCH  42  43
ATOM     43  C   UNL     1      10.487   2.316  23.686  0.00  0.00    +0.000 C 
BRANCH  43  44
ATOM     44  C   UNL     1      10.117   2.180  22.213  0.00  0.00    +0.000 C 
BRANCH  44  45
ATOM     45  C   UNL     1       8.610   2.300  22.019  0.00  0.00    -0.000 C 
BRANCH  45  46
ATOM     46  C   UNL     1       8.040   3.407  22.900  0.00  0.00    -0.000 C 
BRANCH  46  47
ATOM     47  C   UNL     1       6.890   4.117  22.195  0.00  0.00    -0.000 C 
BRANCH  47  48
ATOM     48  C   UNL     1       6.932   5.618  22.464  0.00  0.00    -0.000 C 
BRANCH  48  49
ATOM     49  C   UNL     1       8.370   6.096  22.630  0.00  0.00    -0.000 C 
BRANCH  49  50
ATOM     50  C   UNL     1       8.539   6.876  23.930  0.00  0.00    -0.000 C 
BRANCH  50  51
ATOM     51  C   UNL     1       9.877   6.551  24.589  0.00  0.00    -0.000 C 
BRANCH  51  52
ATOM     52  C   UNL     1      10.855   5.958  23.577  0.00  0.00    -0.000 C 
BRANCH  52  53
ATOM     53  C   UNL     1      12.244   5.800  24.191  0.00  0.00    -0.000 C 
BRANCH  53  54
ATOM     54  C   UNL     1      13.174   5.022  23.264  0.00  0.00    -0.003 C 
ATOM     55  C   UNL     1      13.050   5.508  21.829  0.00  0.00    +0.004 C 
ENDBRANCH  53  54
ENDBRANCH  52  53
ENDBRANCH  51  52
ENDBRANCH  50  51
ENDBRANCH  49  50
ENDBRANCH  48  49
ENDBRANCH  47  48
ENDBRANCH  46  47
ENDBRANCH  45  46
ENDBRANCH  44  45
ENDBRANCH  43  44
ENDBRANCH  42  43
ENDBRANCH  41  42
ENDBRANCH  40  41
ENDBRANCH  39  40
ENDBRANCH  37  39
ENDBRANCH  36  37
ENDBRANCH   1  36
TORSDOF 45
ENDMDL
MODEL 3
REMARK VINA RESULT:      -3.8      4.008      8.833
REMARK  Name = 
REMARK  50 active torsions:
REMARK  status: ('A' for Active; 'I' for Inactive)
REMARK    1  A    between atoms: C_1  and  C_2
REMARK    2  A    between atoms: C_2  and  C_3
REMARK    3  A    between atoms: C_3  and  C_4
REMARK    4  A    between atoms: C_4  and  C_5
REMARK    5  A    between atoms: C_5  and  C_6
REMARK    6  A    between atoms: C_6  and  C_7
REMARK    7  A    between atoms: C_7  and  C_8
REMARK    8  A    between atoms: C_8  and  C_9
REMARK    9  A    between atoms: C_9  and  C_10
REMARK   10  A    between atoms: C_10  and  C_11
REMARK   11  A    between atoms: C_11  and  C_12
REMARK   12  A    between atoms: C_12  and  C_13
REMARK   13  A    between atoms: C_13  and  C_14
REMARK   14  A    between atoms: C_14  and  C_15
REMARK   15  A    between atoms: C_15  and  C_16
REMARK   16  A    between atoms: C_16  and  C_17
REMARK   17  A    between atoms: C_17  and  C_18
REMARK   18  A    between atoms: C_18  and  O_20
REMARK   19  A    between atoms: O_20  and  C_21
REMARK   20  A    between atoms: C_21  and  C_22
REMARK   21  A    between atoms: C_22  and  C_24
REMARK   22  A    between atoms: C_22  and  O_36
REMARK   23  A    between atoms: C_24  and  O_25
REMARK   24  A    between atoms: O_25  and  P_26
REMARK   25  A    between atoms: P_26  and  O_27
REMARK   26  A    between atoms: P_26  and  O_29
REMARK   27  A    between atoms: O_29  and  C_30
REMARK   28  A    between atoms: C_30  and  C_31
REMARK   29  A    between atoms: C_31  and  N_32
REMARK   30  A    between atoms: N_32  and  C_33
REMARK   31  A    between atoms: N_32  and  C_34
REMARK   32  A    between atoms: N_32  and  C_35
REMARK   33  A    between atoms: O_36  and  C_37
REMARK   34  A    between atoms: C_37  and  C_39
REMARK   35  A    between atoms: C_39  and  C_40
REMARK   36  A    between atoms: C_40  and  C_41
REMARK   37  A    between atoms: C_41  and  C_42
REMARK   38  A    between atoms: C_42  and  C_43
REMARK   39  A    between atoms: C_43  and  C_44
REMARK   40  A    between atoms: C_44  and  C_45
REMARK   41  A    between atoms: C_45  and  C_46
REMARK   42  A    between atoms: C_46  and  C_47
REMARK   43  A    between atoms: C_47  and  C_48
REMARK   44  A    between atoms: C_48  and  C_49
REMARK   45  A    between atoms: C_49  and  C_50
REMARK   46  A    between atoms: C_50  and  C_51
REMARK   47  A    between atoms: C_51  and  C_52
REMARK   48  A    between atoms: C_52  and  C_53
REMARK   49  A    between atoms: C_53  and  C_54
REMARK   50  A    between atoms: C_54  and  C_55
REMARK                            x       y       z     vdW  Elec       q    Type
REMARK                         _______ _______ _______ _____ _____    ______ ____
ROOT
ATOM      1  C   UNL     1       2.375  -6.254  27.636  0.00  0.00    +0.240 C 
ENDROOT
BRANCH   1   2
ATOM      2  C   UNL     1       1.704  -7.366  26.827  0.00  0.00    +0.220 C 
BRANCH   2   3
ATOM      3  O   UNL     1       1.543  -7.014  25.450  0.00  0.00    -0.283 OA
BRANCH   3   4
ATOM      4  P   UNL     1       2.369  -7.948  24.444  0.00  0.00    +0.475 P 
ATOM      5  O   UNL     1       1.813  -8.070  23.064  0.00  0.00    -0.227 OA
BRANCH   4   6
ATOM      6  O   UNL     1       2.446  -9.337  25.232  0.00  0.00    -0.302 OA
ATOM      7  H   UNL     1       3.366  -9.603  25.413  0.00  0.00    +0.222 HD
ENDBRANCH   4   6
BRANCH   4   8
ATOM      8  O   UNL     1       3.897  -7.452  24.487  0.00  0.00    -0.281 OA
BRANCH   8   9
ATOM      9  C   UNL     1       4.219  -6.255  23.776  0.00  0.00    +0.223 C 
BRANCH   9  10
ATOM     10  C   UNL     1       5.739  -6.038  23.628  0.00  0.00    +0.161 C 
BRANCH  10  11
ATOM     11  N   UNL     1       6.152  -4.986  22.577  0.00  0.00    +0.239 N 
ATOM     12  C   UNL     1       6.101  -5.669  21.202  0.00  0.00    +0.192 C 
ATOM     13  C   UNL     1       7.584  -4.514  22.808  0.00  0.00    +0.192 C 
ATOM     14  C   UNL     1       5.201  -3.803  22.559  0.00  0.00    +0.192 C 
ENDBRANCH  10  11
ENDBRANCH   9  10
ENDBRANCH   8   9
ENDBRANCH   4   8
ENDBRANCH   3   4
ENDBRANCH   2   3
ENDBRANCH   1   2
BRANCH   1  15
ATOM     15  C   UNL     1       1.946  -4.857  27.164  0.00  0.00    +0.279 C 
BRANCH  15  16
ATOM     16  O   UNL     1       2.998  -3.895  27.070  0.00  0.00    -0.461 OA
BRANCH  16  17
ATOM     17  C   UNL     1       3.081  -3.325  25.842  0.00  0.00    +0.307 C 
ATOM     18  O   UNL     1       2.315  -3.573  24.924  0.00  0.00    -0.251 OA
BRANCH  17  19
ATOM     19  C   UNL     1       4.184  -2.301  25.829  0.00  0.00    +0.120 C 
BRANCH  19  20
ATOM     20  C   UNL     1       4.424  -1.806  27.248  0.00  0.00    +0.011 C 
BRANCH  20  21
ATOM     21  C   UNL     1       5.192  -0.492  27.263  0.00  0.00    +0.001 C 
BRANCH  21  22
ATOM     22  C   UNL     1       5.296   0.063  25.847  0.00  0.00    +0.000 C 
BRANCH  22  23
ATOM     23  C   UNL     1       5.786   1.504  25.858  0.00  0.00    +0.000 C 
BRANCH  23  24
ATOM     24  C   UNL     1       6.904   1.676  26.879  0.00  0.00    +0.000 C 
BRANCH  24  25
ATOM     25  C   UNL     1       7.156   3.152  27.156  0.00  0.00    -0.000 C 
BRANCH  25  26
ATOM     26  C   UNL     1       7.469   3.896  25.864  0.00  0.00    -0.000 C 
BRANCH  26  27
ATOM     27  C   UNL     1       7.824   5.348  26.156  0.00  0.00    -0.000 C 
BRANCH  27  28
ATOM     28  C   UNL     1       6.942   6.293  25.351  0.00  0.00    -0.000 C 
BRANCH  28  29
ATOM     29  C   UNL     1       7.669   6.768  24.098  0.00  0.00    -0.000 C 
BRANCH  29  30
ATOM     30  C   UNL     1       9.169   6.862  24.349  0.00  0.00    -0.000 C 
BRANCH  30  31
ATOM     31  C   UNL     1       9.939   5.993  23.360  0.00  0.00    -0.000 C 
BRANCH  31  32
ATOM     32  C   UNL     1      10.655   4.855  24.081  0.00  0.00    -0.000 C 
BRANCH  32  33
ATOM     33  C   UNL     1      11.784   4.292  23.222  0.00  0.00    -0.000 C 
BRANCH  33  35
ATOM     34  C   UNL     1      13.345   5.772  21.927  0.00  0.00    +0.004 C 
ATOM     35  C   UNL     1      13.022   5.182  23.289  0.00  0.00    -0.003 C 
ENDBRANCH  33  35
ENDBRANCH  32  33
ENDBRANCH  31  32
ENDBRANCH  30  31
ENDBRANCH  29  30
ENDBRANCH  28  29
ENDBRANCH  27  28
ENDBRANCH  26  27
ENDBRANCH  25  26
ENDBRANCH  24  25
ENDBRANCH  23  24
ENDBRANCH  22  23
ENDBRANCH  21  22
ENDBRANCH  20  21
ENDBRANCH  19  20
ENDBRANCH  17  19
ENDBRANCH  16  17
ENDBRANCH  15  16
ENDBRANCH   1  15
BRANCH   1  36
ATOM     36  O   UNL     1       3.823  -6.352  27.654  0.00  0.00    -0.456 OA
BRANCH  36  37
ATOM     37  C   UNL     1       4.438  -6.766  28.792  0.00  0.00    +0.308 C 
ATOM     38  O   UNL     1       3.926  -7.454  29.665  0.00  0.00    -0.251 OA
BRANCH  37  39
ATOM     39  C   UNL     1       5.867  -6.305  28.838  0.00  0.00    +0.120 C 
BRANCH  39  40
ATOM     40  C   UNL     1       6.081  -5.024  28.045  0.00  0.00    +0.011 C 
BRANCH  40  41
ATOM     41  C   UNL     1       7.200  -5.167  27.011  0.00  0.00    +0.001 C 
BRANCH  41  42
ATOM     42  C   UNL     1       7.339  -3.886  26.198  0.00  0.00    +0.000 C 
BRANCH  42  43
ATOM     43  C   UNL     1       8.695  -3.232  26.434  0.00  0.00    +0.000 C 
BRANCH  43  44
ATOM     44  C   UNL     1       8.568  -1.713  26.389  0.00  0.00    +0.000 C 
BRANCH  44  45
ATOM     45  C   UNL     1       8.798  -1.191  24.976  0.00  0.00    -0.000 C 
BRANCH  45  46
ATOM     46  C   UNL     1      10.108  -0.415  24.896  0.00  0.00    -0.000 C 
BRANCH  46  47
ATOM     47  C   UNL     1       9.846   1.056  24.591  0.00  0.00    -0.000 C 
BRANCH  47  48
ATOM     48  C   UNL     1       8.650   1.212  23.658  0.00  0.00    -0.000 C 
BRANCH  48  49
ATOM     49  C   UNL     1       9.030   2.022  22.424  0.00  0.00    -0.000 C 
BRANCH  49  50
ATOM     50  C   UNL     1       7.799   2.334  21.577  0.00  0.00    -0.000 C 
BRANCH  50  51
ATOM     51  C   UNL     1       7.104   3.598  22.075  0.00  0.00    -0.000 C 
BRANCH  51  52
ATOM     52  C   UNL     1       5.799   3.258  22.793  0.00  0.00    -0.000 C 
BRANCH  52  53
ATOM     53  C   UNL     1       4.918   4.497  22.935  0.00  0.00    -0.000 C 
BRANCH  53  54
ATOM     54  C   UNL     1       3.933   4.344  24.092  0.00  0.00    -0.003 C 
ATOM     55  C   UNL     1       2.870   5.430  24.054  0.00  0.00    +0.004 C 
ENDBRANCH  53  54
ENDBRANCH  52  53
ENDBRANCH  51  52
ENDBRANCH  50  51
ENDBRANCH  49  50
ENDBRANCH  48  49
ENDBRANCH  47  48
ENDBRANCH  46  47
ENDBRANCH  45  46
ENDBRANCH  44  45
ENDBRANCH  43  44
ENDBRANCH  42  43
ENDBRANCH  41  42
ENDBRANCH  40  41
ENDBRANCH  39  40
ENDBRANCH  37  39
ENDBRANCH  36  37
ENDBRANCH   1  36
TORSDOF 45
ENDMDL
MODEL 4
REMARK VINA RESULT:      -3.7      1.968      5.112
REMARK  Name = 
REMARK  50 active torsions:
REMARK  status: ('A' for Active; 'I' for Inactive)
REMARK    1  A    between atoms: C_1  and  C_2
REMARK    2  A    between atoms: C_2  and  C_3
REMARK    3  A    between atoms: C_3  and  C_4
REMARK    4  A    between atoms: C_4  and  C_5
REMARK    5  A    between atoms: C_5  and  C_6
REMARK    6  A    between atoms: C_6  and  C_7
REMARK    7  A    between atoms: C_7  and  C_8
REMARK    8  A    between atoms: C_8  and  C_9
REMARK    9  A    between atoms: C_9  and  C_10
REMARK   10  A    between atoms: C_10  and  C_11
REMARK   11  A    between atoms: C_11  and  C_12
REMARK   12  A    between atoms: C_12  and  C_13
REMARK   13  A    between atoms: C_13  and  C_14
REMARK   14  A    between atoms: C_14  and  C_15
REMARK   15  A    between atoms: C_15  and  C_16
REMARK   16  A    between atoms: C_16  and  C_17
REMARK   17  A    between atoms: C_17  and  C_18
REMARK   18  A    between atoms: C_18  and  O_20
REMARK   19  A    between atoms: O_20  and  C_21
REMARK   20  A    between atoms: C_21  and  C_22
REMARK   21  A    between atoms: C_22  and  C_24
REMARK   22  A    between atoms: C_22  and  O_36
REMARK   23  A    between atoms: C_24  and  O_25
REMARK   24  A    between atoms: O_25  and  P_26
REMARK   25  A    between atoms: P_26  and  O_27
REMARK   26  A    between atoms: P_26  and  O_29
REMARK   27  A    between atoms: O_29  and  C_30
REMARK   28  A    between atoms: C_30  and  C_31
REMARK   29  A    between atoms: C_31  and  N_32
REMARK   30  A    between atoms: N_32  and  C_33
REMARK   31  A    between atoms: N_32  and  C_34
REMARK   32  A    between atoms: N_32  and  C_35
REMARK   33  A    between atoms: O_36  and  C_37
REMARK   34  A    between atoms: C_37  and  C_39
REMARK   35  A    between atoms: C_39  and  C_40
REMARK   36  A    between atoms: C_40  and  C_41
REMARK   37  A    between atoms: C_41  and  C_42
REMARK   38  A    between atoms: C_42  and  C_43
REMARK   39  A    between atoms: C_43  and  C_44
REMARK   40  A    between atoms: C_44  and  C_45
REMARK   41  A    between atoms: C_45  and  C_46
REMARK   42  A    between atoms: C_46  and  C_47
REMARK   43  A    between atoms: C_47  and  C_48
REMARK   44  A    between atoms: C_48  and  C_49
REMARK   45  A    between atoms: C_49  and  C_50
REMARK   46  A    between atoms: C_50  and  C_51
REMARK   47  A    between atoms: C_51  and  C_52
REMARK   48  A    between atoms: C_52  and  C_53
REMARK   49  A    between atoms: C_53  and  C_54
REMARK   50  A    between atoms: C_54  and  C_55
REMARK                            x       y       z     vdW  Elec       q    Type
REMARK                         _______ _______ _______ _____ _____    ______ ____
ROOT
ATOM      1  C   UNL     1       8.481   1.603  22.439  0.00  0.00    +0.240 C 
ENDROOT
BRANCH   1   2
ATOM      2  C   UNL     1       6.970   1.597  22.198  0.00  0.00    +0.220 C 
BRANCH   2   3
ATOM      3  O   UNL     1       6.420   2.918  22.169  0.00  0.00    -0.283 OA
BRANCH   3   4
ATOM      4  P   UNL     1       5.152   3.110  23.129  0.00  0.00    +0.475 P 
ATOM      5  O   UNL     1       5.090   2.206  24.315  0.00  0.00    -0.227 OA
BRANCH   4   6
ATOM      6  O   UNL     1       3.918   2.941  22.126  0.00  0.00    -0.302 OA
ATOM      7  H   UNL     1       3.679   3.783  21.697  0.00  0.00    +0.222 HD
ENDBRANCH   4   6
BRANCH   4   8
ATOM      8  O   UNL     1       5.073   4.672  23.499  0.00  0.00    -0.281 OA
BRANCH   8   9
ATOM      9  C   UNL     1       5.507   5.060  24.803  0.00  0.00    +0.223 C 
BRANCH   9  10
ATOM     10  C   UNL     1       6.699   6.039  24.771  0.00  0.00    +0.161 C 
BRANCH  10  11
ATOM     11  N   UNL     1       8.079   5.400  25.033  0.00  0.00    +0.239 N 
ATOM     12  C   UNL     1       7.837   4.073  25.769  0.00  0.00    +0.192 C 
ATOM     13  C   UNL     1       8.928   6.285  25.940  0.00  0.00    +0.192 C 
ATOM     14  C   UNL     1       8.818   5.103  23.741  0.00  0.00    +0.192 C 
ENDBRANCH  10  11
ENDBRANCH   9  10
ENDBRANCH   8   9
ENDBRANCH   4   8
ENDBRANCH   3   4
ENDBRANCH   2   3
ENDBRANCH   1   2
BRANCH   1  15
ATOM     15  C   UNL     1       9.214   0.601  21.534  0.00  0.00    +0.279 C 
BRANCH  15  16
ATOM     16  O   UNL     1       8.655  -0.714  21.501  0.00  0.00    -0.461 OA
BRANCH  16  17
ATOM     17  C   UNL     1       9.436  -1.632  22.122  0.00  0.00    +0.307 C 
ATOM     18  O   UNL     1      10.657  -1.589  22.137  0.00  0.00    -0.251 OA
BRANCH  17  19
ATOM     19  C   UNL     1       8.572  -2.630  22.845  0.00  0.00    +0.120 C 
BRANCH  19  20
ATOM     20  C   UNL     1       7.108  -2.308  22.583  0.00  0.00    +0.011 C 
BRANCH  20  21
ATOM     21  C   UNL     1       6.290  -3.567  22.337  0.00  0.00    +0.001 C 
BRANCH  21  22
ATOM     22  C   UNL     1       7.215  -4.774  22.239  0.00  0.00    +0.000 C 
BRANCH  22  23
ATOM     23  C   UNL     1       6.420  -6.070  22.178  0.00  0.00    +0.000 C 
BRANCH  23  24
ATOM     24  C   UNL     1       4.930  -5.786  22.326  0.00  0.00    +0.000 C 
BRANCH  24  25
ATOM     25  C   UNL     1       4.396  -6.379  23.623  0.00  0.00    -0.000 C 
BRANCH  25  26
ATOM     26  C   UNL     1       3.486  -5.386  24.334  0.00  0.00    -0.000 C 
BRANCH  26  27
ATOM     27  C   UNL     1       2.142  -6.028  24.653  0.00  0.00    -0.000 C 
BRANCH  27  28
ATOM     28  C   UNL     1       1.786  -5.837  26.122  0.00  0.00    -0.000 C 
BRANCH  28  29
ATOM     29  C   UNL     1       2.188  -7.063  26.935  0.00  0.00    -0.000 C 
BRANCH  29  30
ATOM     30  C   UNL     1       3.160  -6.679  28.044  0.00  0.00    -0.000 C 
BRANCH  30  31
ATOM     31  C   UNL     1       4.598  -6.710  27.537  0.00  0.00    -0.000 C 
BRANCH  31  32
ATOM     32  C   UNL     1       5.543  -6.068  28.548  0.00  0.00    -0.000 C 
BRANCH  32  33
ATOM     33  C   UNL     1       6.809  -5.560  27.864  0.00  0.00    -0.000 C 
BRANCH  33  35
ATOM     34  C   UNL     1       7.903  -5.029  25.666  0.00  0.00    +0.004 C 
ATOM     35  C   UNL     1       6.649  -5.551  26.346  0.00  0.00    -0.003 C 
ENDBRANCH  33  35
ENDBRANCH  32  33
ENDBRANCH  31  32
ENDBRANCH  30  31
ENDBRANCH  29  30
ENDBRANCH  28  29
ENDBRANCH  27  28
ENDBRANCH  26  27
ENDBRANCH  25  26
ENDBRANCH  24  25
ENDBRANCH  23  24
ENDBRANCH  22  23
ENDBRANCH  21  22
ENDBRANCH  20  21
ENDBRANCH  19  20
ENDBRANCH  17  19
ENDBRANCH  16  17
ENDBRANCH  15  16
ENDBRANCH   1  15
BRANCH   1  36
ATOM     36  O   UNL     1       8.840   1.376  23.828  0.00  0.00    -0.456 OA
BRANCH  36  37
ATOM     37  C   UNL     1      10.145   1.472  24.191  0.00  0.00    +0.308 C 
ATOM     38  O   UNL     1      10.925   2.338  23.816  0.00  0.00    -0.251 OA
BRANCH  37  39
ATOM     39  C   UNL     1      10.521   0.389  25.162  0.00  0.00    +0.120 C 
BRANCH  39  40
ATOM     40  C   UNL     1       9.373  -0.577  25.415  0.00  0.00    +0.011 C 
BRANCH  40  41
ATOM     41  C   UNL     1       8.956  -0.604  26.886  0.00  0.00    +0.001 C 
BRANCH  41  42
ATOM     42  C   UNL     1       7.582   0.030  27.061  0.00  0.00    +0.000 C 
BRANCH  42  43
ATOM     43  C   UNL     1       6.599  -0.494  26.020  0.00  0.00    +0.000 C 
BRANCH  43  44
ATOM     44  C   UNL     1       6.125  -1.894  26.395  0.00  0.00    +0.000 C 
BRANCH  44  45
ATOM     45  C   UNL     1       4.882  -2.276  25.601  0.00  0.00    -0.000 C 
BRANCH  45  46
ATOM     46  C   UNL     1       3.784  -2.783  26.531  0.00  0.00    -0.000 C 
BRANCH  46  47
ATOM     47  C   UNL     1       4.244  -2.737  27.983  0.00  0.00    -0.000 C 
BRANCH  47  48
ATOM     48  C   UNL     1       3.128  -3.186  28.921  0.00  0.00    -0.000 C 
BRANCH  48  49
ATOM     49  C   UNL     1       1.780  -2.652  28.450  0.00  0.00    -0.000 C 
BRANCH  49  50
ATOM     50  C   UNL     1       1.113  -1.821  29.542  0.00  0.00    -0.000 C 
BRANCH  50  51
ATOM     51  C   UNL     1       0.444  -0.583  28.950  0.00  0.00    -0.000 C 
BRANCH  51  52
ATOM     52  C   UNL     1       1.444   0.562  28.802  0.00  0.00    -0.000 C 
BRANCH  52  53
ATOM     53  C   UNL     1       1.815   0.776  27.337  0.00  0.00    -0.000 C 
BRANCH  53  54
ATOM     54  C   UNL     1       3.329   0.816  27.150  0.00  0.00    -0.003 C 
ATOM     55  C   UNL     1       4.045   0.915  28.487  0.00  0.00    +0.004 C 
ENDBRANCH  53  54
ENDBRANCH  52  53
ENDBRANCH  51  52
ENDBRANCH  50  51
ENDBRANCH  49  50
ENDBRANCH  48  49
ENDBRANCH  47  48
ENDBRANCH  46  47
ENDBRANCH  45  46
ENDBRANCH  44  45
ENDBRANCH  43  44
ENDBRANCH  42  43
ENDBRANCH  41  42
ENDBRANCH  40  41
ENDBRANCH  39  40
ENDBRANCH  37  39
ENDBRANCH  36  37
ENDBRANCH   1  36
TORSDOF 45
ENDMDL
MODEL 5
REMARK VINA RESULT:      -3.7      1.648      3.876
REMARK  Name = 
REMARK  50 active torsions:
REMARK  status: ('A' for Active; 'I' for Inactive)
REMARK    1  A    between atoms: C_1  and  C_2
REMARK    2  A    between atoms: C_2  and  C_3
REMARK    3  A    between atoms: C_3  and  C_4
REMARK    4  A    between atoms: C_4  and  C_5
REMARK    5  A    between atoms: C_5  and  C_6
REMARK    6  A    between atoms: C_6  and  C_7
REMARK    7  A    between atoms: C_7  and  C_8
REMARK    8  A    between atoms: C_8  and  C_9
REMARK    9  A    between atoms: C_9  and  C_10
REMARK   10  A    between atoms: C_10  and  C_11
REMARK   11  A    between atoms: C_11  and  C_12
REMARK   12  A    between atoms: C_12  and  C_13
REMARK   13  A    between atoms: C_13  and  C_14
REMARK   14  A    between atoms: C_14  and  C_15
REMARK   15  A    between atoms: C_15  and  C_16
REMARK   16  A    between atoms: C_16  and  C_17
REMARK   17  A    between atoms: C_17  and  C_18
REMARK   18  A    between atoms: C_18  and  O_20
REMARK   19  A    between atoms: O_20  and  C_21
REMARK   20  A    between atoms: C_21  and  C_22
REMARK   21  A    between atoms: C_22  and  C_24
REMARK   22  A    between atoms: C_22  and  O_36
REMARK   23  A    between atoms: C_24  and  O_25
REMARK   24  A    between atoms: O_25  and  P_26
REMARK   25  A    between atoms: P_26  and  O_27
REMARK   26  A    between atoms: P_26  and  O_29
REMARK   27  A    between atoms: O_29  and  C_30
REMARK   28  A    between atoms: C_30  and  C_31
REMARK   29  A    between atoms: C_31  and  N_32
REMARK   30  A    between atoms: N_32  and  C_33
REMARK   31  A    between atoms: N_32  and  C_34
REMARK   32  A    between atoms: N_32  and  C_35
REMARK   33  A    between atoms: O_36  and  C_37
REMARK   34  A    between atoms: C_37  and  C_39
REMARK   35  A    between atoms: C_39  and  C_40
REMARK   36  A    between atoms: C_40  and  C_41
REMARK   37  A    between atoms: C_41  and  C_42
REMARK   38  A    between atoms: C_42  and  C_43
REMARK   39  A    between atoms: C_43  and  C_44
REMARK   40  A    between atoms: C_44  and  C_45
REMARK   41  A    between atoms: C_45  and  C_46
REMARK   42  A    between atoms: C_46  and  C_47
REMARK   43  A    between atoms: C_47  and  C_48
REMARK   44  A    between atoms: C_48  and  C_49
REMARK   45  A    between atoms: C_49  and  C_50
REMARK   46  A    between atoms: C_50  and  C_51
REMARK   47  A    between atoms: C_51  and  C_52
REMARK   48  A    between atoms: C_52  and  C_53
REMARK   49  A    between atoms: C_53  and  C_54
REMARK   50  A    between atoms: C_54  and  C_55
REMARK                            x       y       z     vdW  Elec       q    Type
REMARK                         _______ _______ _______ _____ _____    ______ ____
ROOT
ATOM      1  C   UNL     1       9.058  -1.790  23.477  0.00  0.00    +0.240 C 
ENDROOT
BRANCH   1   2
ATOM      2  C   UNL     1      10.106  -0.907  22.795  0.00  0.00    +0.220 C 
BRANCH   2   3
ATOM      3  O   UNL     1       9.812   0.486  22.930  0.00  0.00    -0.283 OA
BRANCH   3   4
ATOM      4  P   UNL     1      10.476   1.163  24.221  0.00  0.00    +0.475 P 
ATOM      5  O   UNL     1      11.867   0.727  24.544  0.00  0.00    -0.227 OA
BRANCH   4   6
ATOM      6  O   UNL     1       9.417   0.843  25.375  0.00  0.00    -0.302 OA
ATOM      7  H   UNL     1       9.852   0.631  26.222  0.00  0.00    +0.222 HD
ENDBRANCH   4   6
BRANCH   4   8
ATOM      8  O   UNL     1      10.319   2.755  24.053  0.00  0.00    -0.281 OA
BRANCH   8   9
ATOM      9  C   UNL     1       9.004   3.299  24.169  0.00  0.00    +0.223 C 
BRANCH   9  10
ATOM     10  C   UNL     1       8.918   4.762  23.687  0.00  0.00    +0.161 C 
BRANCH  10  11
ATOM     11  N   UNL     1       7.573   5.163  23.046  0.00  0.00    +0.239 N 
ATOM     12  C   UNL     1       6.592   5.464  24.190  0.00  0.00    +0.192 C 
ATOM     13  C   UNL     1       6.992   4.015  22.227  0.00  0.00    +0.192 C 
ATOM     14  C   UNL     1       7.706   6.410  22.190  0.00  0.00    +0.192 C 
ENDBRANCH  10  11
ENDBRANCH   9  10
ENDBRANCH   8   9
ENDBRANCH   4   8
ENDBRANCH   3   4
ENDBRANCH   2   3
ENDBRANCH   1   2
BRANCH   1  15
ATOM     15  C   UNL     1       9.676  -3.066  24.069  0.00  0.00    +0.279 C 
BRANCH  15  16
ATOM     16  O   UNL     1       9.181  -3.442  25.356  0.00  0.00    -0.461 OA
BRANCH  16  17
ATOM     17  C   UNL     1       8.990  -4.779  25.474  0.00  0.00    +0.307 C 
ATOM     18  O   UNL     1       9.646  -5.617  24.874  0.00  0.00    -0.251 OA
BRANCH  17  19
ATOM     19  C   UNL     1       7.928  -5.053  26.505  0.00  0.00    +0.120 C 
BRANCH  19  20
ATOM     20  C   UNL     1       6.940  -3.896  26.524  0.00  0.00    +0.011 C 
BRANCH  20  21
ATOM     21  C   UNL     1       5.503  -4.385  26.633  0.00  0.00    +0.001 C 
BRANCH  21  22
ATOM     22  C   UNL     1       5.342  -5.248  27.879  0.00  0.00    +0.000 C 
BRANCH  22  23
ATOM     23  C   UNL     1       4.130  -6.160  27.762  0.00  0.00    +0.000 C 
BRANCH  23  24
ATOM     24  C   UNL     1       3.012  -5.675  28.677  0.00  0.00    +0.000 C 
BRANCH  24  25
ATOM     25  C   UNL     1       1.655  -5.861  28.011  0.00  0.00    -0.000 C 
BRANCH  25  26
ATOM     26  C   UNL     1       1.135  -4.536  27.468  0.00  0.00    -0.000 C 
BRANCH  26  27
ATOM     27  C   UNL     1       1.032  -4.585  25.950  0.00  0.00    -0.000 C 
BRANCH  27  28
ATOM     28  C   UNL     1       2.043  -3.643  25.308  0.00  0.00    -0.000 C 
BRANCH  28  29
ATOM     29  C   UNL     1       2.820  -4.359  24.210  0.00  0.00    -0.000 C 
BRANCH  29  30
ATOM     30  C   UNL     1       2.639  -5.868  24.317  0.00  0.00    -0.000 C 
BRANCH  30  31
ATOM     31  C   UNL     1       3.969  -6.588  24.117  0.00  0.00    -0.000 C 
BRANCH  31  32
ATOM     32  C   UNL     1       4.783  -5.927  23.010  0.00  0.00    -0.000 C 
BRANCH  32  33
ATOM     33  C   UNL     1       6.275  -5.969  23.330  0.00  0.00    -0.000 C 
BRANCH  33  35
ATOM     34  C   UNL     1       6.257  -5.659  20.839  0.00  0.00    +0.004 C 
ATOM     35  C   UNL     1       7.113  -5.658  22.093  0.00  0.00    -0.003 C 
ENDBRANCH  33  35
ENDBRANCH  32  33
ENDBRANCH  31  32
ENDBRANCH  30  31
ENDBRANCH  29  30
ENDBRANCH  28  29
ENDBRANCH  27  28
ENDBRANCH  26  27
ENDBRANCH  25  26
ENDBRANCH  24  25
ENDBRANCH  23  24
ENDBRANCH  22  23
ENDBRANCH  21  22
ENDBRANCH  20  21
ENDBRANCH  19  20
ENDBRANCH  17  19
ENDBRANCH  16  17
ENDBRANCH  15  16
ENDBRANCH   1  15
BRANCH   1  36
ATOM     36  O   UNL     1       7.945  -2.131  22.610  0.00  0.00    -0.456 OA
BRANCH  36  37
ATOM     37  C   UNL     1       6.679  -1.939  23.063  0.00  0.00    +0.308 C 
ATOM     38  O   UNL     1       5.682  -2.518  22.652  0.00  0.00    -0.251 OA
BRANCH  37  39
ATOM     39  C   UNL     1       6.647  -0.940  24.185  0.00  0.00    +0.120 C 
BRANCH  39  40
ATOM     40  C   UNL     1       6.284   0.455  23.698  0.00  0.00    +0.011 C 
BRANCH  40  41
ATOM     41  C   UNL     1       5.933   1.396  24.851  0.00  0.00    +0.001 C 
BRANCH  41  42
ATOM     42  C   UNL     1       4.731   2.258  24.488  0.00  0.00    +0.000 C 
BRANCH  42  43
ATOM     43  C   UNL     1       4.205   3.007  25.707  0.00  0.00    +0.000 C 
BRANCH  43  44
ATOM     44  C   UNL     1       2.923   2.359  26.217  0.00  0.00    +0.000 C 
BRANCH  44  45
ATOM     45  C   UNL     1       2.734   2.627  27.705  0.00  0.00    -0.000 C 
BRANCH  45  46
ATOM     46  C   UNL     1       1.830   1.570  28.332  0.00  0.00    -0.000 C 
BRANCH  46  47
ATOM     47  C   UNL     1       1.071   0.803  27.255  0.00  0.00    -0.000 C 
BRANCH  47  48
ATOM     48  C   UNL     1       1.247  -0.701  27.434  0.00  0.00    -0.000 C 
BRANCH  48  49
ATOM     49  C   UNL     1       2.119  -1.002  28.647  0.00  0.00    -0.000 C 
BRANCH  49  50
ATOM     50  C   UNL     1       3.357  -1.798  28.244  0.00  0.00    -0.000 C 
BRANCH  50  51
ATOM     51  C   UNL     1       4.167  -1.046  27.191  0.00  0.00    -0.000 C 
BRANCH  51  52
ATOM     52  C   UNL     1       5.565  -0.714  27.710  0.00  0.00    -0.000 C 
BRANCH  52  53
ATOM     53  C   UNL     1       5.562   0.605  28.478  0.00  0.00    -0.000 C 
BRANCH  53  54
ATOM     54  C   UNL     1       6.939   1.263  28.452  0.00  0.00    -0.003 C 
ATOM     55  C   UNL     1       6.824   2.771  28.298  0.00  0.00    +0.004 C 
ENDBRANCH  53  54
ENDBRANCH  52  53
ENDBRANCH  51  52
ENDBRANCH  50  51
ENDBRANCH  49  50
ENDBRANCH  48  49
ENDBRANCH  47  48
ENDBRANCH  46  47
ENDBRANCH  45  46
ENDBRANCH  44  45
ENDBRANCH  43  44
ENDBRANCH  42  43
ENDBRANCH  41  42
ENDBRANCH  40  41
ENDBRANCH  39  40
ENDBRANCH  37  39
ENDBRANCH  36  37
ENDBRANCH   1  36
TORSDOF 45
ENDMDL
MODEL 6
REMARK VINA RESULT:      -3.6      1.396      3.656
REMARK  Name = 
REMARK  50 active torsions:
REMARK  status: ('A' for Active; 'I' for Inactive)
REMARK    1  A    between atoms: C_1  and  C_2
REMARK    2  A    between atoms: C_2  and  C_3
REMARK    3  A    between atoms: C_3  and  C_4
REMARK    4  A    between atoms: C_4  and  C_5
REMARK    5  A    between atoms: C_5  and  C_6
REMARK    6  A    between atoms: C_6  and  C_7
REMARK    7  A    between atoms: C_7  and  C_8
REMARK    8  A    between atoms: C_8  and  C_9
REMARK    9  A    between atoms: C_9  and  C_10
REMARK   10  A    between atoms: C_10  and  C_11
REMARK   11  A    between atoms: C_11  and  C_12
REMARK   12  A    between atoms: C_12  and  C_13
REMARK   13  A    between atoms: C_13  and  C_14
REMARK   14  A    between atoms: C_14  and  C_15
REMARK   15  A    between atoms: C_15  and  C_16
REMARK   16  A    between atoms: C_16  and  C_17
REMARK   17  A    between atoms: C_17  and  C_18
REMARK   18  A    between atoms: C_18  and  O_20
REMARK   19  A    between atoms: O_20  and  C_21
REMARK   20  A    between atoms: C_21  and  C_22
REMARK   21  A    between atoms: C_22  and  C_24
REMARK   22  A    between atoms: C_22  and  O_36
REMARK   23  A    between atoms: C_24  and  O_25
REMARK   24  A    between atoms: O_25  and  P_26
REMARK   25  A    between atoms: P_26  and  O_27
REMARK   26  A    between atoms: P_26  and  O_29
REMARK   27  A    between atoms: O_29  and  C_30
REMARK   28  A    between atoms: C_30  and  C_31
REMARK   29  A    between atoms: C_31  and  N_32
REMARK   30  A    between atoms: N_32  and  C_33
REMARK   31  A    between atoms: N_32  and  C_34
REMARK   32  A    between atoms: N_32  and  C_35
REMARK   33  A    between atoms: O_36  and  C_37
REMARK   34  A    between atoms: C_37  and  C_39
REMARK   35  A    between atoms: C_39  and  C_40
REMARK   36  A    between atoms: C_40  and  C_41
REMARK   37  A    between atoms: C_41  and  C_42
REMARK   38  A    between atoms: C_42  and  C_43
REMARK   39  A    between atoms: C_43  and  C_44
REMARK   40  A    between atoms: C_44  and  C_45
REMARK   41  A    between atoms: C_45  and  C_46
REMARK   42  A    between atoms: C_46  and  C_47
REMARK   43  A    between atoms: C_47  and  C_48
REMARK   44  A    between atoms: C_48  and  C_49
REMARK   45  A    between atoms: C_49  and  C_50
REMARK   46  A    between atoms: C_50  and  C_51
REMARK   47  A    between atoms: C_51  and  C_52
REMARK   48  A    between atoms: C_52  and  C_53
REMARK   49  A    between atoms: C_53  and  C_54
REMARK   50  A    between atoms: C_54  and  C_55
REMARK                            x       y       z     vdW  Elec       q    Type
REMARK                         _______ _______ _______ _____ _____    ______ ____
ROOT
ATOM      1  C   UNL     1       9.320  -2.265  22.640  0.00  0.00    +0.240 C 
ENDROOT
BRANCH   1   2
ATOM      2  C   UNL     1       9.818  -1.008  21.923  0.00  0.00    +0.220 C 
BRANCH   2   3
ATOM      3  O   UNL     1       9.900   0.120  22.799  0.00  0.00    -0.283 OA
BRANCH   3   4
ATOM      4  P   UNL     1       9.200   1.440  22.219  0.00  0.00    +0.475 P 
ATOM      5  O   UNL     1       8.237   1.228  21.100  0.00  0.00    -0.227 OA
BRANCH   4   6
ATOM      6  O   UNL     1      10.448   2.361  21.829  0.00  0.00    -0.302 OA
ATOM      7  H   UNL     1      11.104   1.880  21.292  0.00  0.00    +0.222 HD
ENDBRANCH   4   6
BRANCH   4   8
ATOM      8  O   UNL     1       8.576   2.232  23.472  0.00  0.00    -0.281 OA
BRANCH   8   9
ATOM      9  C   UNL     1       9.424   3.161  24.148  0.00  0.00    +0.223 C 
BRANCH   9  10
ATOM     10  C   UNL     1       8.690   4.459  24.546  0.00  0.00    +0.161 C 
BRANCH  10  11
ATOM     11  N   UNL     1       9.472   5.762  24.278  0.00  0.00    +0.239 N 
ATOM     12  C   UNL     1       9.638   6.481  25.625  0.00  0.00    +0.192 C 
ATOM     13  C   UNL     1       8.691   6.688  23.351  0.00  0.00    +0.192 C 
ATOM     14  C   UNL     1      10.852   5.485  23.709  0.00  0.00    +0.192 C 
ENDBRANCH  10  11
ENDBRANCH   9  10
ENDBRANCH   8   9
ENDBRANCH   4   8
ENDBRANCH   3   4
ENDBRANCH   2   3
ENDBRANCH   1   2
BRANCH   1  15
ATOM     15  C   UNL     1       7.877  -2.620  22.249  0.00  0.00    +0.279 C 
BRANCH  15  16
ATOM     16  O   UNL     1       7.565  -4.014  22.273  0.00  0.00    -0.461 OA
BRANCH  16  17
ATOM     17  C   UNL     1       6.342  -4.286  21.753  0.00  0.00    +0.307 C 
ATOM     18  O   UNL     1       5.667  -3.475  21.138  0.00  0.00    -0.251 OA
BRANCH  17  19
ATOM     19  C   UNL     1       6.007  -5.737  21.973  0.00  0.00    +0.120 C 
BRANCH  19  20
ATOM     20  C   UNL     1       4.736  -5.836  22.805  0.00  0.00    +0.011 C 
BRANCH  20  21
ATOM     21  C   UNL     1       4.942  -6.688  24.048  0.00  0.00    +0.001 C 
BRANCH  21  22
ATOM     22  C   UNL     1       3.592  -7.079  24.638  0.00  0.00    +0.000 C 
BRANCH  22  23
ATOM     23  C   UNL     1       2.538  -6.022  24.343  0.00  0.00    +0.000 C 
BRANCH  23  24
ATOM     24  C   UNL     1       1.400  -6.111  25.353  0.00  0.00    +0.000 C 
BRANCH  24  25
ATOM     25  C   UNL     1       1.473  -7.420  26.128  0.00  0.00    -0.000 C 
BRANCH  25  26
ATOM     26  C   UNL     1       1.332  -7.167  27.624  0.00  0.00    -0.000 C 
BRANCH  26  27
ATOM     27  C   UNL     1       2.226  -6.013  28.057  0.00  0.00    -0.000 C 
BRANCH  27  28
ATOM     28  C   UNL     1       3.633  -6.506  28.371  0.00  0.00    -0.000 C 
BRANCH  28  29
ATOM     29  C   UNL     1       4.263  -5.662  29.473  0.00  0.00    -0.000 C 
BRANCH  29  30
ATOM     30  C   UNL     1       3.279  -4.616  29.980  0.00  0.00    -0.000 C 
BRANCH  30  31
ATOM     31  C   UNL     1       3.992  -3.301  30.279  0.00  0.00    -0.000 C 
BRANCH  31  32
ATOM     32  C   UNL     1       3.559  -2.214  29.301  0.00  0.00    -0.000 C 
BRANCH  32  33
ATOM     33  C   UNL     1       2.136  -2.461  28.807  0.00  0.00    -0.000 C 
BRANCH  33  35
ATOM     34  C   UNL     1       2.286  -0.379  27.412  0.00  0.00    +0.004 C 
ATOM     35  C   UNL     1       1.920  -1.852  27.424  0.00  0.00    -0.003 C 
ENDBRANCH  33  35
ENDBRANCH  32  33
ENDBRANCH  31  32
ENDBRANCH  30  31
ENDBRANCH  29  30
ENDBRANCH  28  29
ENDBRANCH  27  28
ENDBRANCH  26  27
ENDBRANCH  25  26
ENDBRANCH  24  25
ENDBRANCH  23  24
ENDBRANCH  22  23
ENDBRANCH  21  22
ENDBRANCH  20  21
ENDBRANCH  19  20
ENDBRANCH  17  19
ENDBRANCH  16  17
ENDBRANCH  15  16
ENDBRANCH   1  15
BRANCH   1  36
ATOM     36  O   UNL     1       9.442  -2.186  24.085  0.00  0.00    -0.456 OA
BRANCH  36  37
ATOM     37  C   UNL     1       9.477  -3.338  24.803  0.00  0.00    +0.308 C 
ATOM     38  O   UNL     1      10.127  -4.335  24.515  0.00  0.00    -0.251 OA
BRANCH  37  39
ATOM     39  C   UNL     1       8.638  -3.232  26.045  0.00  0.00    +0.120 C 
BRANCH  39  40
ATOM     40  C   UNL     1       7.436  -4.163  26.004  0.00  0.00    +0.011 C 
BRANCH  40  41
ATOM     41  C   UNL     1       6.331  -3.721  26.965  0.00  0.00    +0.001 C 
BRANCH  41  42
ATOM     42  C   UNL     1       4.973  -3.781  26.278  0.00  0.00    +0.000 C 
BRANCH  42  43
ATOM     43  C   UNL     1       4.972  -2.964  24.992  0.00  0.00    +0.000 C 
BRANCH  43  44
ATOM     44  C   UNL     1       4.929  -1.473  25.309  0.00  0.00    +0.000 C 
BRANCH  44  45
ATOM     45  C   UNL     1       6.004  -0.722  24.533  0.00  0.00    -0.000 C 
BRANCH  45  46
ATOM     46  C   UNL     1       6.999  -0.068  25.487  0.00  0.00    -0.000 C 
BRANCH  46  47
ATOM     47  C   UNL     1       6.380   0.113  26.869  0.00  0.00    -0.000 C 
BRANCH  47  48
ATOM     48  C   UNL     1       7.461   0.322  27.924  0.00  0.00    -0.000 C 
BRANCH  48  49
ATOM     49  C   UNL     1       6.958   1.231  29.039  0.00  0.00    -0.000 C 
BRANCH  49  50
ATOM     50  C   UNL     1       5.437   1.173  29.145  0.00  0.00    -0.000 C 
BRANCH  50  51
ATOM     51  C   UNL     1       4.845   2.578  29.226  0.00  0.00    -0.000 C 
BRANCH  51  52
ATOM     52  C   UNL     1       3.816   2.803  28.121  0.00  0.00    -0.000 C 
BRANCH  52  53
ATOM     53  C   UNL     1       4.484   3.330  26.853  0.00  0.00    -0.000 C 
BRANCH  53  54
ATOM     54  C   UNL     1       3.959   2.613  25.613  0.00  0.00    -0.003 C 
ATOM     55  C   UNL     1       4.902   2.790  24.435  0.00  0.00    +0.004 C 
ENDBRANCH  53  54
ENDBRANCH  52  53
ENDBRANCH  51  52
ENDBRANCH  50  51
ENDBRANCH  49  50
ENDBRANCH  48  49
ENDBRANCH  47  48
ENDBRANCH  46  47
ENDBRANCH  45  46
ENDBRANCH  44  45
ENDBRANCH  43  44
ENDBRANCH  42  43
ENDBRANCH  41  42
ENDBRANCH  40  41
ENDBRANCH  39  40
ENDBRANCH  37  39
ENDBRANCH  36  37
ENDBRANCH   1  36
TORSDOF 45
ENDMDL
MODEL 7
REMARK VINA RESULT:      -3.6      3.774      7.962
REMARK  Name = 
REMARK  50 active torsions:
REMARK  status: ('A' for Active; 'I' for Inactive)
REMARK    1  A    between atoms: C_1  and  C_2
REMARK    2  A    between atoms: C_2  and  C_3
REMARK    3  A    between atoms: C_3  and  C_4
REMARK    4  A    between atoms: C_4  and  C_5
REMARK    5  A    between atoms: C_5  and  C_6
REMARK    6  A    between atoms: C_6  and  C_7
REMARK    7  A    between atoms: C_7  and  C_8
REMARK    8  A    between atoms: C_8  and  C_9
REMARK    9  A    between atoms: C_9  and  C_10
REMARK   10  A    between atoms: C_10  and  C_11
REMARK   11  A    between atoms: C_11  and  C_12
REMARK   12  A    between atoms: C_12  and  C_13
REMARK   13  A    between atoms: C_13  and  C_14
REMARK   14  A    between atoms: C_14  and  C_15
REMARK   15  A    between atoms: C_15  and  C_16
REMARK   16  A    between atoms: C_16  and  C_17
REMARK   17  A    between atoms: C_17  and  C_18
REMARK   18  A    between atoms: C_18  and  O_20
REMARK   19  A    between atoms: O_20  and  C_21
REMARK   20  A    between atoms: C_21  and  C_22
REMARK   21  A    between atoms: C_22  and  C_24
REMARK   22  A    between atoms: C_22  and  O_36
REMARK   23  A    between atoms: C_24  and  O_25
REMARK   24  A    between atoms: O_25  and  P_26
REMARK   25  A    between atoms: P_26  and  O_27
REMARK   26  A    between atoms: P_26  and  O_29
REMARK   27  A    between atoms: O_29  and  C_30
REMARK   28  A    between atoms: C_30  and  C_31
REMARK   29  A    between atoms: C_31  and  N_32
REMARK   30  A    between atoms: N_32  and  C_33
REMARK   31  A    between atoms: N_32  and  C_34
REMARK   32  A    between atoms: N_32  and  C_35
REMARK   33  A    between atoms: O_36  and  C_37
REMARK   34  A    between atoms: C_37  and  C_39
REMARK   35  A    between atoms: C_39  and  C_40
REMARK   36  A    between atoms: C_40  and  C_41
REMARK   37  A    between atoms: C_41  and  C_42
REMARK   38  A    between atoms: C_42  and  C_43
REMARK   39  A    between atoms: C_43  and  C_44
REMARK   40  A    between atoms: C_44  and  C_45
REMARK   41  A    between atoms: C_45  and  C_46
REMARK   42  A    between atoms: C_46  and  C_47
REMARK   43  A    between atoms: C_47  and  C_48
REMARK   44  A    between atoms: C_48  and  C_49
REMARK   45  A    between atoms: C_49  and  C_50
REMARK   46  A    between atoms: C_50  and  C_51
REMARK   47  A    between atoms: C_51  and  C_52
REMARK   48  A    between atoms: C_52  and  C_53
REMARK   49  A    between atoms: C_53  and  C_54
REMARK   50  A    between atoms: C_54  and  C_55
REMARK                            x       y       z     vdW  Elec       q    Type
REMARK                         _______ _______ _______ _____ _____    ______ ____
ROOT
ATOM      1  C   UNL     1       2.525  -6.288  27.424  0.00  0.00    +0.240 C 
ENDROOT
BRANCH   1   2
ATOM      2  C   UNL     1       2.053  -7.219  26.305  0.00  0.00    +0.220 C 
BRANCH   2   3
ATOM      3  O   UNL     1       1.619  -6.500  25.147  0.00  0.00    -0.283 OA
BRANCH   3   4
ATOM      4  P   UNL     1       2.621  -6.614  23.903  0.00  0.00    +0.475 P 
ATOM      5  O   UNL     1       1.988  -6.582  22.552  0.00  0.00    -0.227 OA
BRANCH   4   6
ATOM      6  O   UNL     1       3.416  -7.967  24.210  0.00  0.00    -0.302 OA
ATOM      7  H   UNL     1       3.767  -8.376  23.398  0.00  0.00    +0.222 HD
ENDBRANCH   4   6
BRANCH   4   8
ATOM      8  O   UNL     1       3.761  -5.499  24.112  0.00  0.00    -0.281 OA
BRANCH   8   9
ATOM      9  C   UNL     1       4.052  -4.643  23.006  0.00  0.00    +0.223 C 
BRANCH   9  10
ATOM     10  C   UNL     1       5.371  -3.864  23.185  0.00  0.00    +0.161 C 
BRANCH  10  11
ATOM     11  N   UNL     1       6.574  -4.422  22.396  0.00  0.00    +0.239 N 
ATOM     12  C   UNL     1       7.594  -3.283  22.249  0.00  0.00    +0.192 C 
ATOM     13  C   UNL     1       6.157  -4.856  20.994  0.00  0.00    +0.192 C 
ATOM     14  C   UNL     1       7.244  -5.572  23.128  0.00  0.00    +0.192 C 
ENDBRANCH  10  11
ENDBRANCH   9  10
ENDBRANCH   8   9
ENDBRANCH   4   8
ENDBRANCH   3   4
ENDBRANCH   2   3
ENDBRANCH   1   2
BRANCH   1  15
ATOM     15  C   UNL     1       2.055  -4.841  27.208  0.00  0.00    +0.279 C 
BRANCH  15  16
ATOM     16  O   UNL     1       3.081  -3.849  27.286  0.00  0.00    -0.461 OA
BRANCH  16  17
ATOM     17  C   UNL     1       3.021  -2.951  26.272  0.00  0.00    +0.307 C 
ATOM     18  O   UNL     1       2.062  -2.831  25.524  0.00  0.00    -0.251 OA
BRANCH  17  19
ATOM     19  C   UNL     1       4.256  -2.092  26.278  0.00  0.00    +0.120 C 
BRANCH  19  20
ATOM     20  C   UNL     1       4.642  -1.781  27.716  0.00  0.00    +0.011 C 
BRANCH  20  21
ATOM     21  C   UNL     1       5.171  -0.362  27.863  0.00  0.00    +0.001 C 
BRANCH  21  22
ATOM     22  C   UNL     1       4.299   0.601  27.065  0.00  0.00    +0.000 C 
BRANCH  22  23
ATOM     23  C   UNL     1       4.741   2.042  27.273  0.00  0.00    +0.000 C 
BRANCH  23  24
ATOM     24  C   UNL     1       6.227   2.098  27.608  0.00  0.00    +0.000 C 
BRANCH  24  25
ATOM     25  C   UNL     1       6.768   3.508  27.416  0.00  0.00    -0.000 C 
BRANCH  25  26
ATOM     26  C   UNL     1       7.558   3.609  26.117  0.00  0.00    -0.000 C 
BRANCH  26  27
ATOM     27  C   UNL     1       8.138   5.008  25.953  0.00  0.00    -0.000 C 
BRANCH  27  28
ATOM     28  C   UNL     1       8.006   5.483  24.512  0.00  0.00    -0.000 C 
BRANCH  28  29
ATOM     29  C   UNL     1       8.769   4.558  23.571  0.00  0.00    -0.000 C 
BRANCH  29  30
ATOM     30  C   UNL     1      10.272   4.696  23.781  0.00  0.00    -0.000 C 
BRANCH  30  31
ATOM     31  C   UNL     1      10.981   3.377  23.491  0.00  0.00    -0.000 C 
BRANCH  31  32
ATOM     32  C   UNL     1      10.031   2.197  23.674  0.00  0.00    -0.000 C 
BRANCH  32  33
ATOM     33  C   UNL     1      10.796   0.939  24.073  0.00  0.00    -0.000 C 
BRANCH  33  35
ATOM     34  C   UNL     1       9.711   0.248  21.916  0.00  0.00    +0.004 C 
ATOM     35  C   UNL     1      10.452  -0.230  23.153  0.00  0.00    -0.003 C 
ENDBRANCH  33  35
ENDBRANCH  32  33
ENDBRANCH  31  32
ENDBRANCH  30  31
ENDBRANCH  29  30
ENDBRANCH  28  29
ENDBRANCH  27  28
ENDBRANCH  26  27
ENDBRANCH  25  26
ENDBRANCH  24  25
ENDBRANCH  23  24
ENDBRANCH  22  23
ENDBRANCH  21  22
ENDBRANCH  20  21
ENDBRANCH  19  20
ENDBRANCH  17  19
ENDBRANCH  16  17
ENDBRANCH  15  16
ENDBRANCH   1  15
BRANCH   1  36
ATOM     36  O   UNL     1       3.962  -6.322  27.629  0.00  0.00    -0.456 OA
BRANCH  36  37
ATOM     37  C   UNL     1       4.444  -6.778  28.813  0.00  0.00    +0.308 C 
ATOM     38  O   UNL     1       3.826  -7.469  29.613  0.00  0.00    -0.251 OA
BRANCH  37  39
ATOM     39  C   UNL     1       5.873  -6.361  29.018  0.00  0.00    +0.120 C 
BRANCH  39  40
ATOM     40  C   UNL     1       6.207  -5.077  28.272  0.00  0.00    +0.011 C 
BRANCH  40  41
ATOM     41  C   UNL     1       7.332  -5.277  27.256  0.00  0.00    +0.001 C 
BRANCH  41  42
ATOM     42  C   UNL     1       7.431  -4.072  26.328  0.00  0.00    +0.000 C 
BRANCH  42  43
ATOM     43  C   UNL     1       8.731  -3.310  26.557  0.00  0.00    +0.000 C 
BRANCH  43  44
ATOM     44  C   UNL     1       8.503  -1.811  26.406  0.00  0.00    +0.000 C 
BRANCH  44  45
ATOM     45  C   UNL     1       7.652  -1.512  25.177  0.00  0.00    -0.000 C 
BRANCH  45  46
ATOM     46  C   UNL     1       7.407  -0.012  25.043  0.00  0.00    -0.000 C 
BRANCH  46  47
ATOM     47  C   UNL     1       6.234   0.261  24.109  0.00  0.00    -0.000 C 
BRANCH  47  48
ATOM     48  C   UNL     1       6.446   1.558  23.336  0.00  0.00    -0.000 C 
BRANCH  48  49
ATOM     49  C   UNL     1       5.277   2.512  23.550  0.00  0.00    -0.000 C 
BRANCH  49  50
ATOM     50  C   UNL     1       5.322   3.663  22.550  0.00  0.00    -0.000 C 
BRANCH  50  51
ATOM     51  C   UNL     1       4.154   4.620  22.771  0.00  0.00    -0.000 C 
BRANCH  51  52
ATOM     52  C   UNL     1       4.651   6.043  23.019  0.00  0.00    -0.000 C 
BRANCH  52  53
ATOM     53  C   UNL     1       4.048   6.615  24.300  0.00  0.00    -0.000 C 
BRANCH  53  54
ATOM     54  C   UNL     1       4.513   5.835  25.527  0.00  0.00    -0.003 C 
ATOM     55  C   UNL     1       3.340   5.192  26.247  0.00  0.00    +0.004 C 
ENDBRANCH  53  54
ENDBRANCH  52  53
ENDBRANCH  51  52
ENDBRANCH  50  51
ENDBRANCH  49  50
ENDBRANCH  48  49
ENDBRANCH  47  48
ENDBRANCH  46  47
ENDBRANCH  45  46
ENDBRANCH  44  45
ENDBRANCH  43  44
ENDBRANCH  42  43
ENDBRANCH  41  42
ENDBRANCH  40  41
ENDBRANCH  39  40
ENDBRANCH  37  39
ENDBRANCH  36  37
ENDBRANCH   1  36
TORSDOF 45
ENDMDL
MODEL 8
REMARK VINA RESULT:      -3.6      2.455      5.882
REMARK  Name = 
REMARK  50 active torsions:
REMARK  status: ('A' for Active; 'I' for Inactive)
REMARK    1  A    between atoms: C_1  and  C_2
REMARK    2  A    between atoms: C_2  and  C_3
REMARK    3  A    between atoms: C_3  and  C_4
REMARK    4  A    between atoms: C_4  and  C_5
REMARK    5  A    between atoms: C_5  and  C_6
REMARK    6  A    between atoms: C_6  and  C_7
REMARK    7  A    between atoms: C_7  and  C_8
REMARK    8  A    between atoms: C_8  and  C_9
REMARK    9  A    between atoms: C_9  and  C_10
REMARK   10  A    between atoms: C_10  and  C_11
REMARK   11  A    between atoms: C_11  and  C_12
REMARK   12  A    between atoms: C_12  and  C_13
REMARK   13  A    between atoms: C_13  and  C_14
REMARK   14  A    between atoms: C_14  and  C_15
REMARK   15  A    between atoms: C_15  and  C_16
REMARK   16  A    between atoms: C_16  and  C_17
REMARK   17  A    between atoms: C_17  and  C_18
REMARK   18  A    between atoms: C_18  and  O_20
REMARK   19  A    between atoms: O_20  and  C_21
REMARK   20  A    between atoms: C_21  and  C_22
REMARK   21  A    between atoms: C_22  and  C_24
REMARK   22  A    between atoms: C_22  and  O_36
REMARK   23  A    between atoms: C_24  and  O_25
REMARK   24  A    between atoms: O_25  and  P_26
REMARK   25  A    between atoms: P_26  and  O_27
REMARK   26  A    between atoms: P_26  and  O_29
REMARK   27  A    between atoms: O_29  and  C_30
REMARK   28  A    between atoms: C_30  and  C_31
REMARK   29  A    between atoms: C_31  and  N_32
REMARK   30  A    between atoms: N_32  and  C_33
REMARK   31  A    between atoms: N_32  and  C_34
REMARK   32  A    between atoms: N_32  and  C_35
REMARK   33  A    between atoms: O_36  and  C_37
REMARK   34  A    between atoms: C_37  and  C_39
REMARK   35  A    between atoms: C_39  and  C_40
REMARK   36  A    between atoms: C_40  and  C_41
REMARK   37  A    between atoms: C_41  and  C_42
REMARK   38  A    between atoms: C_42  and  C_43
REMARK   39  A    between atoms: C_43  and  C_44
REMARK   40  A    between atoms: C_44  and  C_45
REMARK   41  A    between atoms: C_45  and  C_46
REMARK   42  A    between atoms: C_46  and  C_47
REMARK   43  A    between atoms: C_47  and  C_48
REMARK   44  A    between atoms: C_48  and  C_49
REMARK   45  A    between atoms: C_49  and  C_50
REMARK   46  A    between atoms: C_50  and  C_51
REMARK   47  A    between atoms: C_51  and  C_52
REMARK   48  A    between atoms: C_52  and  C_53
REMARK   49  A    between atoms: C_53  and  C_54
REMARK   50  A    between atoms: C_54  and  C_55
REMARK                            x       y       z     vdW  Elec       q    Type
REMARK                         _______ _______ _______ _____ _____    ______ ____
ROOT
ATOM      1  C   UNL     1       9.299   1.940  23.078  0.00  0.00    +0.240 C 
ENDROOT
BRANCH   1   2
ATOM      2  C   UNL     1       8.226   2.958  22.688  0.00  0.00    +0.220 C 
BRANCH   2   3
ATOM      3  O   UNL     1       7.279   3.178  23.737  0.00  0.00    -0.283 OA
BRANCH   3   4
ATOM      4  P   UNL     1       5.799   2.673  23.387  0.00  0.00    +0.475 P 
ATOM      5  O   UNL     1       4.973   2.223  24.546  0.00  0.00    -0.227 OA
BRANCH   4   6
ATOM      6  O   UNL     1       6.061   1.530  22.301  0.00  0.00    -0.302 OA
ATOM      7  H   UNL     1       6.351   1.898  21.446  0.00  0.00    +0.222 HD
ENDBRANCH   4   6
BRANCH   4   8
ATOM      8  O   UNL     1       5.105   3.823  22.504  0.00  0.00    -0.281 OA
BRANCH   8   9
ATOM      9  C   UNL     1       3.698   4.013  22.662  0.00  0.00    +0.223 C 
BRANCH   9  10
ATOM     10  C   UNL     1       2.865   3.103  21.737  0.00  0.00    +0.161 C 
BRANCH  10  11
ATOM     11  N   UNL     1       1.347   3.381  21.736  0.00  0.00    +0.239 N 
ATOM     12  C   UNL     1       0.844   3.180  23.173  0.00  0.00    +0.192 C 
ATOM     13  C   UNL     1       0.609   2.390  20.842  0.00  0.00    +0.192 C 
ATOM     14  C   UNL     1       1.036   4.807  21.314  0.00  0.00    +0.192 C 
ENDBRANCH  10  11
ENDBRANCH   9  10
ENDBRANCH   8   9
ENDBRANCH   4   8
ENDBRANCH   3   4
ENDBRANCH   2   3
ENDBRANCH   1   2
BRANCH   1  15
ATOM     15  C   UNL     1       9.521   0.887  21.981  0.00  0.00    +0.279 C 
BRANCH  15  16
ATOM     16  O   UNL     1       8.565  -0.174  21.952  0.00  0.00    -0.461 OA
BRANCH  16  17
ATOM     17  C   UNL     1       9.142  -1.401  21.968  0.00  0.00    +0.307 C 
ATOM     18  O   UNL     1      10.349  -1.586  22.007  0.00  0.00    -0.251 OA
BRANCH  17  19
ATOM     19  C   UNL     1       8.077  -2.464  22.019  0.00  0.00    +0.120 C 
BRANCH  19  20
ATOM     20  C   UNL     1       6.916  -1.969  22.868  0.00  0.00    +0.011 C 
BRANCH  20  21
ATOM     21  C   UNL     1       5.777  -2.977  22.907  0.00  0.00    +0.001 C 
BRANCH  21  22
ATOM     22  C   UNL     1       6.028  -4.081  21.887  0.00  0.00    +0.000 C 
BRANCH  22  23
ATOM     23  C   UNL     1       5.614  -5.439  22.435  0.00  0.00    +0.000 C 
BRANCH  23  24
ATOM     24  C   UNL     1       4.585  -5.270  23.547  0.00  0.00    +0.000 C 
BRANCH  24  25
ATOM     25  C   UNL     1       3.240  -5.846  23.126  0.00  0.00    -0.000 C 
BRANCH  25  26
ATOM     26  C   UNL     1       2.428  -6.266  24.345  0.00  0.00    -0.000 C 
BRANCH  26  27
ATOM     27  C   UNL     1       3.303  -7.028  25.332  0.00  0.00    -0.000 C 
BRANCH  27  28
ATOM     28  C   UNL     1       2.726  -6.950  26.739  0.00  0.00    -0.000 C 
BRANCH  28  29
ATOM     29  C   UNL     1       3.800  -6.532  27.736  0.00  0.00    -0.000 C 
BRANCH  29  30
ATOM     30  C   UNL     1       5.147  -6.376  27.043  0.00  0.00    -0.000 C 
BRANCH  30  31
ATOM     31  C   UNL     1       6.025  -5.373  27.785  0.00  0.00    -0.000 C 
BRANCH  31  32
ATOM     32  C   UNL     1       7.426  -5.329  27.184  0.00  0.00    -0.000 C 
BRANCH  32  33
ATOM     33  C   UNL     1       7.428  -4.567  25.862  0.00  0.00    -0.000 C 
BRANCH  33  35
ATOM     34  C   UNL     1       9.648  -4.225  24.740  0.00  0.00    +0.004 C 
ATOM     35  C   UNL     1       8.453  -5.150  24.892  0.00  0.00    -0.003 C 
ENDBRANCH  33  35
ENDBRANCH  32  33
ENDBRANCH  31  32
ENDBRANCH  30  31
ENDBRANCH  29  30
ENDBRANCH  28  29
ENDBRANCH  27  28
ENDBRANCH  26  27
ENDBRANCH  25  26
ENDBRANCH  24  25
ENDBRANCH  23  24
ENDBRANCH  22  23
ENDBRANCH  21  22
ENDBRANCH  20  21
ENDBRANCH  19  20
ENDBRANCH  17  19
ENDBRANCH  16  17
ENDBRANCH  15  16
ENDBRANCH   1  15
BRANCH   1  36
ATOM     36  O   UNL     1       9.037   1.290  24.349  0.00  0.00    -0.456 OA
BRANCH  36  37
ATOM     37  C   UNL     1       9.986   0.474  24.876  0.00  0.00    +0.308 C 
ATOM     38  O   UNL     1      11.187   0.712  24.910  0.00  0.00    -0.251 OA
BRANCH  37  39
ATOM     39  C   UNL     1       9.375  -0.766  25.464  0.00  0.00    +0.120 C 
BRANCH  39  40
ATOM     40  C   UNL     1       8.419  -0.447  26.604  0.00  0.00    +0.011 C 
BRANCH  40  41
ATOM     41  C   UNL     1       6.965  -0.378  26.134  0.00  0.00    +0.001 C 
BRANCH  41  42
ATOM     42  C   UNL     1       6.103  -1.353  26.925  0.00  0.00    +0.000 C 
BRANCH  42  43
ATOM     43  C   UNL     1       4.677  -1.385  26.386  0.00  0.00    +0.000 C 
BRANCH  43  44
ATOM     44  C   UNL     1       4.211  -2.825  26.200  0.00  0.00    +0.000 C 
BRANCH  44  45
ATOM     45  C   UNL     1       2.767  -2.870  25.718  0.00  0.00    -0.000 C 
BRANCH  45  46
ATOM     46  C   UNL     1       1.860  -3.465  26.790  0.00  0.00    -0.000 C 
BRANCH  46  47
ATOM     47  C   UNL     1       1.274  -2.367  27.670  0.00  0.00    -0.000 C 
BRANCH  47  48
ATOM     48  C   UNL     1       1.436  -2.710  29.147  0.00  0.00    -0.000 C 
BRANCH  48  49
ATOM     49  C   UNL     1       2.827  -3.273  29.420  0.00  0.00    -0.000 C 
BRANCH  49  50
ATOM     50  C   UNL     1       3.762  -2.184  29.938  0.00  0.00    -0.000 C 
BRANCH  50  51
ATOM     51  C   UNL     1       2.974  -0.949  30.365  0.00  0.00    -0.000 C 
BRANCH  51  52
ATOM     52  C   UNL     1       3.544   0.314  29.723  0.00  0.00    -0.000 C 
BRANCH  52  53
ATOM     53  C   UNL     1       5.001   0.522  30.129  0.00  0.00    -0.000 C 
BRANCH  53  54
ATOM     54  C   UNL     1       5.711   1.474  29.171  0.00  0.00    -0.003 C 
ATOM     55  C   UNL     1       7.197   1.558  29.481  0.00  0.00    +0.004 C 
ENDBRANCH  53  54
ENDBRANCH  52  53
ENDBRANCH  51  52
ENDBRANCH  50  51
ENDBRANCH  49  50
ENDBRANCH  48  49
ENDBRANCH  47  48
ENDBRANCH  46  47
ENDBRANCH  45  46
ENDBRANCH  44  45
ENDBRANCH  43  44
ENDBRANCH  42  43
ENDBRANCH  41  42
ENDBRANCH  40  41
ENDBRANCH  39  40
ENDBRANCH  37  39
ENDBRANCH  36  37
ENDBRANCH   1  36
TORSDOF 45
ENDMDL
MODEL 9
REMARK VINA RESULT:      -3.6      1.543      6.267
REMARK  Name = 
REMARK  50 active torsions:
REMARK  status: ('A' for Active; 'I' for Inactive)
REMARK    1  A    between atoms: C_1  and  C_2
REMARK    2  A    between atoms: C_2  and  C_3
REMARK    3  A    between atoms: C_3  and  C_4
REMARK    4  A    between atoms: C_4  and  C_5
REMARK    5  A    between atoms: C_5  and  C_6
REMARK    6  A    between atoms: C_6  and  C_7
REMARK    7  A    between atoms: C_7  and  C_8
REMARK    8  A    between atoms: C_8  and  C_9
REMARK    9  A    between atoms: C_9  and  C_10
REMARK   10  A    between atoms: C_10  and  C_11
REMARK   11  A    between atoms: C_11  and  C_12
REMARK   12  A    between atoms: C_12  and  C_13
REMARK   13  A    between atoms: C_13  and  C_14
REMARK   14  A    between atoms: C_14  and  C_15
REMARK   15  A    between atoms: C_15  and  C_16
REMARK   16  A    between atoms: C_16  and  C_17
REMARK   17  A    between atoms: C_17  and  C_18
REMARK   18  A    between atoms: C_18  and  O_20
REMARK   19  A    between atoms: O_20  and  C_21
REMARK   20  A    between atoms: C_21  and  C_22
REMARK   21  A    between atoms: C_22  and  C_24
REMARK   22  A    between atoms: C_22  and  O_36
REMARK   23  A    between atoms: C_24  and  O_25
REMARK   24  A    between atoms: O_25  and  P_26
REMARK   25  A    between atoms: P_26  and  O_27
REMARK   26  A    between atoms: P_26  and  O_29
REMARK   27  A    between atoms: O_29  and  C_30
REMARK   28  A    between atoms: C_30  and  C_31
REMARK   29  A    between atoms: C_31  and  N_32
REMARK   30  A    between atoms: N_32  and  C_33
REMARK   31  A    between atoms: N_32  and  C_34
REMARK   32  A    between atoms: N_32  and  C_35
REMARK   33  A    between atoms: O_36  and  C_37
REMARK   34  A    between atoms: C_37  and  C_39
REMARK   35  A    between atoms: C_39  and  C_40
REMARK   36  A    between atoms: C_40  and  C_41
REMARK   37  A    between atoms: C_41  and  C_42
REMARK   38  A    between atoms: C_42  and  C_43
REMARK   39  A    between atoms: C_43  and  C_44
REMARK   40  A    between atoms: C_44  and  C_45
REMARK   41  A    between atoms: C_45  and  C_46
REMARK   42  A    between atoms: C_46  and  C_47
REMARK   43  A    between atoms: C_47  and  C_48
REMARK   44  A    between atoms: C_48  and  C_49
REMARK   45  A    between atoms: C_49  and  C_50
REMARK   46  A    between atoms: C_50  and  C_51
REMARK   47  A    between atoms: C_51  and  C_52
REMARK   48  A    between atoms: C_52  and  C_53
REMARK   49  A    between atoms: C_53  and  C_54
REMARK   50  A    between atoms: C_54  and  C_55
REMARK                            x       y       z     vdW  Elec       q    Type
REMARK                         _______ _______ _______ _____ _____    ______ ____
ROOT
ATOM      1  C   UNL     1       9.627  -2.158  23.497  0.00  0.00    +0.240 C 
ENDROOT
BRANCH   1   2
ATOM      2  C   UNL     1      10.251  -0.769  23.646  0.00  0.00    +0.220 C 
BRANCH   2   3
ATOM      3  O   UNL     1      10.218  -0.024  22.425  0.00  0.00    -0.283 OA
BRANCH   3   4
ATOM      4  P   UNL     1       9.483   1.394  22.554  0.00  0.00    +0.475 P 
ATOM      5  O   UNL     1       8.011   1.389  22.311  0.00  0.00    -0.227 OA
BRANCH   4   6
ATOM      6  O   UNL     1      10.302   2.312  21.531  0.00  0.00    -0.302 OA
ATOM      7  H   UNL     1      10.460   1.860  20.682  0.00  0.00    +0.222 HD
ENDBRANCH   4   6
BRANCH   4   8
ATOM      8  O   UNL     1       9.904   2.016  23.975  0.00  0.00    -0.281 OA
BRANCH   8   9
ATOM      9  C   UNL     1       9.060   3.028  24.524  0.00  0.00    +0.223 C 
BRANCH   9  10
ATOM     10  C   UNL     1       9.414   4.442  24.017  0.00  0.00    +0.161 C 
BRANCH  10  11
ATOM     11  N   UNL     1       8.433   5.555  24.440  0.00  0.00    +0.239 N 
ATOM     12  C   UNL     1       7.012   5.048  24.149  0.00  0.00    +0.192 C 
ATOM     13  C   UNL     1       8.652   6.820  23.617  0.00  0.00    +0.192 C 
ATOM     14  C   UNL     1       8.536   5.864  25.923  0.00  0.00    +0.192 C 
ENDBRANCH  10  11
ENDBRANCH   9  10
ENDBRANCH   8   9
ENDBRANCH   4   8
ENDBRANCH   3   4
ENDBRANCH   2   3
ENDBRANCH   1   2
BRANCH   1  15
ATOM     15  C   UNL     1       8.608  -2.213  22.348  0.00  0.00    +0.279 C 
BRANCH  15  16
ATOM     16  O   UNL     1       7.558  -3.168  22.509  0.00  0.00    -0.461 OA
BRANCH  16  17
ATOM     17  C   UNL     1       6.325  -2.616  22.396  0.00  0.00    +0.307 C 
ATOM     18  O   UNL     1       5.501  -2.952  21.559  0.00  0.00    -0.251 OA
BRANCH  17  19
ATOM     19  C   UNL     1       6.112  -1.614  23.499  0.00  0.00    +0.120 C 
BRANCH  19  20
ATOM     20  C   UNL     1       5.436  -2.300  24.676  0.00  0.00    +0.011 C 
BRANCH  20  21
ATOM     21  C   UNL     1       5.133  -1.322  25.801  0.00  0.00    +0.001 C 
BRANCH  21  22
ATOM     22  C   UNL     1       6.029  -1.615  26.998  0.00  0.00    +0.000 C 
BRANCH  22  23
ATOM     23  C   UNL     1       7.300  -0.779  26.950  0.00  0.00    +0.000 C 
BRANCH  23  24
ATOM     24  C   UNL     1       6.971   0.697  27.141  0.00  0.00    +0.000 C 
BRANCH  24  25
ATOM     25  C   UNL     1       7.092   1.089  28.608  0.00  0.00    -0.000 C 
BRANCH  25  26
ATOM     26  C   UNL     1       6.917   2.592  28.780  0.00  0.00    -0.000 C 
BRANCH  26  27
ATOM     27  C   UNL     1       6.466   3.230  27.472  0.00  0.00    -0.000 C 
BRANCH  27  28
ATOM     28  C   UNL     1       5.447   4.332  27.732  0.00  0.00    -0.000 C 
BRANCH  28  29
ATOM     29  C   UNL     1       4.028   3.788  27.617  0.00  0.00    -0.000 C 
BRANCH  29  30
ATOM     30  C   UNL     1       3.954   2.694  26.559  0.00  0.00    -0.000 C 
BRANCH  30  31
ATOM     31  C   UNL     1       3.201   1.478  27.089  0.00  0.00    -0.000 C 
BRANCH  31  32
ATOM     32  C   UNL     1       3.330   1.379  28.606  0.00  0.00    -0.000 C 
BRANCH  32  33
ATOM     33  C   UNL     1       2.336   0.370  29.173  0.00  0.00    -0.000 C 
BRANCH  33  35
ATOM     34  C   UNL     1       3.747  -1.601  29.828  0.00  0.00    +0.004 C 
ATOM     35  C   UNL     1       2.744  -1.059  28.825  0.00  0.00    -0.003 C 
ENDBRANCH  33  35
ENDBRANCH  32  33
ENDBRANCH  31  32
ENDBRANCH  30  31
ENDBRANCH  29  30
ENDBRANCH  28  29
ENDBRANCH  27  28
ENDBRANCH  26  27
ENDBRANCH  25  26
ENDBRANCH  24  25
ENDBRANCH  23  24
ENDBRANCH  22  23
ENDBRANCH  21  22
ENDBRANCH  20  21
ENDBRANCH  19  20
ENDBRANCH  17  19
ENDBRANCH  16  17
ENDBRANCH  15  16
ENDBRANCH   1  15
BRANCH   1  36
ATOM     36  O   UNL     1       9.024  -2.650  24.723  0.00  0.00    -0.456 OA
BRANCH  36  37
ATOM     37  C   UNL     1       9.345  -3.896  25.156  0.00  0.00    +0.308 C 
ATOM     38  O   UNL     1      10.066  -4.690  24.565  0.00  0.00    -0.251 OA
BRANCH  37  39
ATOM     39  C   UNL     1       8.732  -4.181  26.498  0.00  0.00    +0.120 C 
BRANCH  39  40
ATOM     40  C   UNL     1       7.647  -5.244  26.417  0.00  0.00    +0.011 C 
BRANCH  40  41
ATOM     41  C   UNL     1       6.780  -5.281  27.676  0.00  0.00    +0.001 C 
BRANCH  41  42
ATOM     42  C   UNL     1       5.371  -5.752  27.339  0.00  0.00    +0.000 C 
BRANCH  42  43
ATOM     43  C   UNL     1       4.327  -4.958  28.115  0.00  0.00    +0.000 C 
BRANCH  43  44
ATOM     44  C   UNL     1       3.379  -4.247  27.156  0.00  0.00    +0.000 C 
BRANCH  44  45
ATOM     45  C   UNL     1       1.945  -4.722  27.358  0.00  0.00    -0.000 C 
BRANCH  45  46
ATOM     46  C   UNL     1       1.872  -5.753  28.480  0.00  0.00    -0.000 C 
BRANCH  46  47
ATOM     47  C   UNL     1       1.486  -7.122  27.929  0.00  0.00    -0.000 C 
BRANCH  47  48
ATOM     48  C   UNL     1       0.772  -6.986  26.589  0.00  0.00    -0.000 C 
BRANCH  48  49
ATOM     49  C   UNL     1       1.346  -7.963  25.570  0.00  0.00    -0.000 C 
BRANCH  49  50
ATOM     50  C   UNL     1       2.826  -7.687  25.324  0.00  0.00    -0.000 C 
BRANCH  50  51
ATOM     51  C   UNL     1       3.051  -7.149  23.913  0.00  0.00    -0.000 C 
BRANCH  51  52
ATOM     52  C   UNL     1       3.694  -5.765  23.951  0.00  0.00    -0.000 C 
BRANCH  52  53
ATOM     53  C   UNL     1       5.199  -5.857  23.714  0.00  0.00    -0.000 C 
BRANCH  53  54
ATOM     54  C   UNL     1       5.509  -6.227  22.265  0.00  0.00    -0.003 C 
ATOM     55  C   UNL     1       7.008  -6.313  22.029  0.00  0.00    +0.004 C 
ENDBRANCH  53  54
ENDBRANCH  52  53
ENDBRANCH  51  52
ENDBRANCH  50  51
ENDBRANCH  49  50
ENDBRANCH  48  49
ENDBRANCH  47  48
ENDBRANCH  46  47
ENDBRANCH  45  46
ENDBRANCH  44  45
ENDBRANCH  43  44
ENDBRANCH  42  43
ENDBRANCH  41  42
ENDBRANCH  40  41
ENDBRANCH  39  40
ENDBRANCH  37  39
ENDBRANCH  36  37
ENDBRANCH   1  36
TORSDOF 45
ENDMDL
