MODEL 1
REMARK VINA RESULT:      -7.0      0.000      0.000
REMARK  Name = 
REMARK  11 active torsions:
REMARK  status: ('A' for Active; 'I' for Inactive)
REMARK    1  A    between atoms: C_1  and  C_2
REMARK    2  A    between atoms: C_7  and  C_8
REMARK    3  A    between atoms: C_13  and  C_33
REMARK    4  A    between atoms: C_19  and  O_21
REMARK    5  A    between atoms: C_22  and  C_23
REMARK    6  A    between atoms: C_22  and  C_24
REMARK    7  A    between atoms: C_27  and  C_29
REMARK    8  A    between atoms: C_30  and  O_32
REMARK    9  A    between atoms: C_33  and  C_34
REMARK   10  A    between atoms: C_35  and  C_36
REMARK   11  A    between atoms: C_39  and  C_40
REMARK                            x       y       z     vdW  Elec       q    Type
REMARK                         _______ _______ _______ _____ _____    ______ ____
ROOT
ATOM      1  C   UNL     1       4.632  -6.955  25.152  0.00  0.00    +0.010 C 
ATOM      2  C   UNL     1       4.969  -5.539  24.654  0.00  0.00    +0.015 C 
ATOM      3  C   UNL     1       3.696  -4.630  24.603  0.00  0.00    +0.127 C 
ATOM      4  C   UNL     1       3.200  -4.313  26.043  0.00  0.00    +0.081 C 
ATOM      5  C   UNL     1       1.995  -5.127  26.512  0.00  0.00    +0.018 C 
ATOM      6  C   UNL     1       2.863  -2.848  26.318  0.00  0.00    +0.147 C 
ATOM      7  O   UNL     1       1.980  -2.273  25.671  0.00  0.00    -0.296 OA
ATOM      8  C   UNL     1       3.628  -2.081  27.426  0.00  0.00    +0.050 C 
ATOM      9  C   UNL     1       4.514  -2.994  28.300  0.00  0.00    +0.021 C 
ATOM     10  C   UNL     1       2.567  -1.460  28.353  0.00  0.00    +0.021 C 
ATOM     11  C   UNL     1       4.471  -0.978  26.715  0.00  0.00    +0.136 C 
ATOM     12  C   UNL     1       5.472  -0.288  27.660  0.00  0.00    +0.128 C 
ATOM     13  C   UNL     1       6.547   0.543  26.995  0.00  0.00    +0.216 C 
ATOM     14  O   UNL     1       6.837   1.661  27.404  0.00  0.00    -0.276 OA
ATOM     15  N   UNL     1       7.235  -0.160  26.030  0.00  0.00    -0.309 N 
ATOM     16  H   UNL     1       6.788  -1.009  25.696  0.00  0.00    +0.149 HD
ATOM     17  C   UNL     1       8.459   0.268  25.399  0.00  0.00    +0.102 C 
ATOM     18  C   UNL     1       9.111  -0.848  24.521  0.00  0.00    +0.061 C 
ATOM     19  C   UNL     1       9.272  -2.268  25.048  0.00  0.00    +0.153 C 
ATOM     20  C   UNL     1       9.037  -3.774  24.472  0.00  0.00    +0.093 C 
ATOM     21  C   UNL     1       9.760  -4.955  25.093  0.00  0.00    +0.044 C 
ATOM     22  C   UNL     1       7.929  -4.108  23.470  0.00  0.00    +0.037 C 
ATOM     23  C   UNL     1       7.307  -5.530  23.631  0.00  0.00    +0.003 C 
ATOM     24  O   UNL     1      10.029  -2.900  23.989  0.00  0.00    -0.365 OA
ATOM     25  C   UNL     1       5.791  -5.626  23.337  0.00  0.00    +0.006 C 
ENDROOT
BRANCH  17  26
ATOM     26  C   UNL     1       8.158   1.530  24.566  0.00  0.00    -0.050 C 
ATOM     27  C   UNL     1       8.756   2.704  24.864  0.00  0.00    +0.029 C 
ATOM     28  C   UNL     1       7.181   1.359  23.424  0.00  0.00    +0.041 C 
BRANCH  27  29
ATOM     29  C   UNL     1       8.549   4.026  24.361  0.00  0.00    +0.071 A 
ATOM     30  N   UNL     1       7.368   4.699  24.564  0.00  0.00    -0.245 NA
ATOM     31  C   UNL     1       7.483   5.937  24.131  0.00  0.00    +0.076 A 
ATOM     32  C   UNL     1       6.419   6.977  24.247  0.00  0.00    +0.073 C 
ATOM     33  S   UNL     1       9.021   6.358  23.477  0.00  0.00    -0.080 S 
ATOM     34  C   UNL     1       9.560   4.764  23.781  0.00  0.00    +0.074 A 
ENDBRANCH  27  29
ENDBRANCH  17  26
BRANCH   3  35
ATOM     35  O   UNL     1       4.036  -3.424  23.912  0.00  0.00    -0.391 OA
ATOM     36  H   UNL     1       4.802  -3.024  24.359  0.00  0.00    +0.210 HD
ENDBRANCH   3  35
BRANCH  11  37
ATOM     37  O   UNL     1       5.170  -1.605  25.619  0.00  0.00    -0.390 OA
ATOM     38  H   UNL     1       5.257  -2.547  25.894  0.00  0.00    +0.210 HD
ENDBRANCH  11  37
TORSDOF 4
ENDMDL
MODEL 2
REMARK VINA RESULT:      -6.8      3.490      8.495
REMARK  Name = 
REMARK  11 active torsions:
REMARK  status: ('A' for Active; 'I' for Inactive)
REMARK    1  A    between atoms: C_1  and  C_2
REMARK    2  A    between atoms: C_7  and  C_8
REMARK    3  A    between atoms: C_13  and  C_33
REMARK    4  A    between atoms: C_19  and  O_21
REMARK    5  A    between atoms: C_22  and  C_23
REMARK    6  A    between atoms: C_22  and  C_24
REMARK    7  A    between atoms: C_27  and  C_29
REMARK    8  A    between atoms: C_30  and  O_32
REMARK    9  A    between atoms: C_33  and  C_34
REMARK   10  A    between atoms: C_35  and  C_36
REMARK   11  A    between atoms: C_39  and  C_40
REMARK                            x       y       z     vdW  Elec       q    Type
REMARK                         _______ _______ _______ _____ _____    ______ ____
ROOT
ATOM      1  C   UNL     1       7.804   4.085  23.552  0.00  0.00    +0.010 C 
ATOM      2  C   UNL     1       6.997   2.786  23.716  0.00  0.00    +0.015 C 
ATOM      3  C   UNL     1       7.353   1.744  22.605  0.00  0.00    +0.127 C 
ATOM      4  C   UNL     1       8.799   1.207  22.811  0.00  0.00    +0.081 C 
ATOM      5  C   UNL     1       9.857   1.811  21.890  0.00  0.00    +0.018 C 
ATOM      6  C   UNL     1       8.960  -0.310  22.714  0.00  0.00    +0.147 C 
ATOM      7  O   UNL     1       8.671  -0.909  21.671  0.00  0.00    -0.296 OA
ATOM      8  C   UNL     1       9.502  -1.103  23.930  0.00  0.00    +0.050 C 
ATOM      9  C   UNL     1      10.044  -0.196  25.056  0.00  0.00    +0.021 C 
ATOM     10  C   UNL     1      10.684  -1.948  23.422  0.00  0.00    +0.021 C 
ATOM     11  C   UNL     1       8.338  -2.008  24.437  0.00  0.00    +0.136 C 
ATOM     12  C   UNL     1       8.645  -2.678  25.789  0.00  0.00    +0.128 C 
ATOM     13  C   UNL     1       7.465  -3.293  26.508  0.00  0.00    +0.216 C 
ATOM     14  O   UNL     1       7.532  -4.408  27.011  0.00  0.00    -0.276 OA
ATOM     15  N   UNL     1       6.420  -2.407  26.661  0.00  0.00    -0.309 N 
ATOM     16  H   UNL     1       6.446  -1.584  26.064  0.00  0.00    +0.149 HD
ATOM     17  C   UNL     1       5.270  -2.611  27.505  0.00  0.00    +0.102 C 
ATOM     18  C   UNL     1       4.383  -1.331  27.640  0.00  0.00    +0.061 C 
ATOM     19  C   UNL     1       5.004   0.028  27.935  0.00  0.00    +0.153 C 
ATOM     20  C   UNL     1       4.825   1.552  27.385  0.00  0.00    +0.093 C 
ATOM     21  C   UNL     1       5.253   2.731  28.238  0.00  0.00    +0.044 C 
ATOM     22  C   UNL     1       4.457   1.863  25.932  0.00  0.00    +0.037 C 
ATOM     23  C   UNL     1       5.087   3.173  25.364  0.00  0.00    +0.003 C 
ATOM     24  O   UNL     1       3.835   0.863  28.112  0.00  0.00    -0.365 OA
ATOM     25  C   UNL     1       5.487   3.120  23.870  0.00  0.00    +0.006 C 
ENDROOT
BRANCH  17  26
ATOM     26  C   UNL     1       4.460  -3.795  26.942  0.00  0.00    -0.050 C 
ATOM     27  C   UNL     1       4.241  -3.902  25.613  0.00  0.00    +0.029 C 
ATOM     28  C   UNL     1       3.951  -4.798  27.953  0.00  0.00    +0.041 C 
BRANCH  27  29
ATOM     29  C   UNL     1       3.418  -4.794  24.858  0.00  0.00    +0.071 A 
ATOM     30  N   UNL     1       2.204  -4.400  24.348  0.00  0.00    -0.245 NA
ATOM     31  C   UNL     1       1.716  -5.351  23.580  0.00  0.00    +0.076 A 
ATOM     32  C   UNL     1       0.443  -5.246  22.808  0.00  0.00    +0.073 C 
ATOM     33  S   UNL     1       2.700  -6.757  23.418  0.00  0.00    -0.080 S 
ATOM     34  C   UNL     1       3.849  -6.044  24.464  0.00  0.00    +0.074 A 
ENDBRANCH  27  29
ENDBRANCH  17  26
BRANCH   3  35
ATOM     35  O   UNL     1       6.406   0.674  22.675  0.00  0.00    -0.391 OA
ATOM     36  H   UNL     1       6.703   0.051  23.361  0.00  0.00    +0.210 HD
ENDBRANCH   3  35
BRANCH  11  37
ATOM     37  O   UNL     1       7.160  -1.181  24.546  0.00  0.00    -0.390 OA
ATOM     38  H   UNL     1       6.667  -1.561  25.310  0.00  0.00    +0.210 HD
ENDBRANCH  11  37
TORSDOF 4
ENDMDL
MODEL 3
REMARK VINA RESULT:      -6.6      3.815      5.674
REMARK  Name = 
REMARK  11 active torsions:
REMARK  status: ('A' for Active; 'I' for Inactive)
REMARK    1  A    between atoms: C_1  and  C_2
REMARK    2  A    between atoms: C_7  and  C_8
REMARK    3  A    between atoms: C_13  and  C_33
REMARK    4  A    between atoms: C_19  and  O_21
REMARK    5  A    between atoms: C_22  and  C_23
REMARK    6  A    between atoms: C_22  and  C_24
REMARK    7  A    between atoms: C_27  and  C_29
REMARK    8  A    between atoms: C_30  and  O_32
REMARK    9  A    between atoms: C_33  and  C_34
REMARK   10  A    between atoms: C_35  and  C_36
REMARK   11  A    between atoms: C_39  and  C_40
REMARK                            x       y       z     vdW  Elec       q    Type
REMARK                         _______ _______ _______ _____ _____    ______ ____
ROOT
ATOM      1  C   UNL     1      10.185  -2.374  23.396  0.00  0.00    +0.010 C 
ATOM      2  C   UNL     1       8.991  -1.463  23.064  0.00  0.00    +0.015 C 
ATOM      3  C   UNL     1       7.638  -2.247  23.114  0.00  0.00    +0.127 C 
ATOM      4  C   UNL     1       7.295  -2.642  24.579  0.00  0.00    +0.081 C 
ATOM      5  C   UNL     1       7.582  -4.096  24.948  0.00  0.00    +0.018 C 
ATOM      6  C   UNL     1       5.858  -2.362  25.018  0.00  0.00    +0.147 C 
ATOM      7  O   UNL     1       4.906  -2.899  24.439  0.00  0.00    -0.296 OA
ATOM      8  C   UNL     1       5.593  -1.406  26.209  0.00  0.00    +0.050 C 
ATOM      9  C   UNL     1       6.875  -1.016  26.975  0.00  0.00    +0.021 C 
ATOM     10  C   UNL     1       4.689  -2.165  27.198  0.00  0.00    +0.021 C 
ATOM     11  C   UNL     1       4.869  -0.152  25.632  0.00  0.00    +0.136 C 
ATOM     12  C   UNL     1       4.754   0.996  26.652  0.00  0.00    +0.128 C 
ATOM     13  C   UNL     1       4.377   2.348  26.089  0.00  0.00    +0.216 C 
ATOM     14  O   UNL     1       3.526   3.049  26.625  0.00  0.00    -0.276 OA
ATOM     15  N   UNL     1       5.198   2.736  25.052  0.00  0.00    -0.309 N 
ATOM     16  H   UNL     1       5.748   1.997  24.622  0.00  0.00    +0.149 HD
ATOM     17  C   UNL     1       5.250   4.057  24.478  0.00  0.00    +0.102 C 
ATOM     18  C   UNL     1       6.439   4.238  23.480  0.00  0.00    +0.061 C 
ATOM     19  C   UNL     1       7.845   3.777  23.841  0.00  0.00    +0.153 C 
ATOM     20  C   UNL     1       9.053   2.975  23.097  0.00  0.00    +0.093 C 
ATOM     21  C   UNL     1      10.483   3.119  23.581  0.00  0.00    +0.044 C 
ATOM     22  C   UNL     1       8.794   1.878  22.060  0.00  0.00    +0.037 C 
ATOM     23  C   UNL     1       9.841   0.722  22.056  0.00  0.00    +0.003 C 
ATOM     24  O   UNL     1       8.620   4.261  22.720  0.00  0.00    -0.365 OA
ATOM     25  C   UNL     1       9.272  -0.684  21.749  0.00  0.00    +0.006 C 
ENDROOT
BRANCH  17  26
ATOM     26  C   UNL     1       3.898   4.341  23.794  0.00  0.00    -0.050 C 
ATOM     27  C   UNL     1       3.523   3.636  22.704  0.00  0.00    +0.029 C 
ATOM     28  C   UNL     1       3.049   5.427  24.415  0.00  0.00    +0.041 C 
BRANCH  27  29
ATOM     29  C   UNL     1       2.420   3.792  21.809  0.00  0.00    +0.071 A 
ATOM     30  N   UNL     1       2.291   4.901  21.008  0.00  0.00    -0.245 NA
ATOM     31  C   UNL     1       1.278   4.737  20.183  0.00  0.00    +0.076 A 
ATOM     32  C   UNL     1       0.882   5.712  19.125  0.00  0.00    +0.073 C 
ATOM     33  S   UNL     1       0.444   3.235  20.316  0.00  0.00    -0.080 S 
ATOM     34  C   UNL     1       1.505   2.785  21.579  0.00  0.00    +0.074 A 
ENDBRANCH  27  29
ENDBRANCH  17  26
BRANCH   3  35
ATOM     35  O   UNL     1       6.615  -1.410  22.566  0.00  0.00    -0.391 OA
ATOM     36  H   UNL     1       6.377  -1.757  21.689  0.00  0.00    +0.210 HD
ENDBRANCH   3  35
BRANCH  11  37
ATOM     37  O   UNL     1       5.612   0.283  24.473  0.00  0.00    -0.390 OA
ATOM     38  H   UNL     1       5.846   1.219  24.673  0.00  0.00    +0.210 HD
ENDBRANCH  11  37
TORSDOF 4
ENDMDL
MODEL 4
REMARK VINA RESULT:      -6.3      3.840      9.150
REMARK  Name = 
REMARK  11 active torsions:
REMARK  status: ('A' for Active; 'I' for Inactive)
REMARK    1  A    between atoms: C_1  and  C_2
REMARK    2  A    between atoms: C_7  and  C_8
REMARK    3  A    between atoms: C_13  and  C_33
REMARK    4  A    between atoms: C_19  and  O_21
REMARK    5  A    between atoms: C_22  and  C_23
REMARK    6  A    between atoms: C_22  and  C_24
REMARK    7  A    between atoms: C_27  and  C_29
REMARK    8  A    between atoms: C_30  and  O_32
REMARK    9  A    between atoms: C_33  and  C_34
REMARK   10  A    between atoms: C_35  and  C_36
REMARK   11  A    between atoms: C_39  and  C_40
REMARK                            x       y       z     vdW  Elec       q    Type
REMARK                         _______ _______ _______ _____ _____    ______ ____
ROOT
ATOM      1  C   UNL     1       8.190   4.090  24.364  0.00  0.00    +0.010 C 
ATOM      2  C   UNL     1       7.321   2.853  24.082  0.00  0.00    +0.015 C 
ATOM      3  C   UNL     1       7.724   2.163  22.737  0.00  0.00    +0.127 C 
ATOM      4  C   UNL     1       9.126   1.500  22.867  0.00  0.00    +0.081 C 
ATOM      5  C   UNL     1      10.278   2.282  22.238  0.00  0.00    +0.018 C 
ATOM      6  C   UNL     1       9.233   0.072  22.334  0.00  0.00    +0.147 C 
ATOM      7  O   UNL     1       9.005  -0.175  21.143  0.00  0.00    -0.296 OA
ATOM      8  C   UNL     1       9.643  -1.075  23.292  0.00  0.00    +0.050 C 
ATOM      9  C   UNL     1      10.129  -0.574  24.670  0.00  0.00    +0.021 C 
ATOM     10  C   UNL     1      10.828  -1.805  22.634  0.00  0.00    +0.021 C 
ATOM     11  C   UNL     1       8.407  -2.015  23.430  0.00  0.00    +0.136 C 
ATOM     12  C   UNL     1       8.577  -3.070  24.539  0.00  0.00    +0.128 C 
ATOM     13  C   UNL     1       7.320  -3.794  24.964  0.00  0.00    +0.216 C 
ATOM     14  O   UNL     1       7.302  -5.010  25.117  0.00  0.00    -0.276 OA
ATOM     15  N   UNL     1       6.302  -2.929  25.306  0.00  0.00    -0.309 N 
ATOM     16  H   UNL     1       6.409  -1.971  24.984  0.00  0.00    +0.149 HD
ATOM     17  C   UNL     1       5.081  -3.300  25.975  0.00  0.00    +0.102 C 
ATOM     18  C   UNL     1       4.237  -2.064  26.426  0.00  0.00    +0.061 C 
ATOM     19  C   UNL     1       4.886  -0.892  27.151  0.00  0.00    +0.153 C 
ATOM     20  C   UNL     1       4.813   0.734  27.068  0.00  0.00    +0.093 C 
ATOM     21  C   UNL     1       5.218   1.582  28.259  0.00  0.00    +0.044 C 
ATOM     22  C   UNL     1       4.576   1.480  25.753  0.00  0.00    +0.037 C 
ATOM     23  C   UNL     1       5.301   2.857  25.642  0.00  0.00    +0.003 C 
ATOM     24  O   UNL     1       3.742  -0.076  27.492  0.00  0.00    -0.365 OA
ATOM     25  C   UNL     1       5.818   3.221  24.229  0.00  0.00    +0.006 C 
ENDROOT
BRANCH  17  26
ATOM     26  C   UNL     1       4.272  -4.214  25.033  0.00  0.00    -0.050 C 
ATOM     27  C   UNL     1       3.479  -5.184  25.538  0.00  0.00    +0.029 C 
ATOM     28  C   UNL     1       4.423  -3.949  23.552  0.00  0.00    +0.041 C 
BRANCH  27  29
ATOM     29  C   UNL     1       2.755  -6.241  24.904  0.00  0.00    +0.071 A 
ATOM     30  N   UNL     1       2.738  -7.515  25.419  0.00  0.00    -0.245 NA
ATOM     31  C   UNL     1       1.893  -8.258  24.736  0.00  0.00    +0.076 A 
ATOM     32  C   UNL     1       1.568  -9.680  25.054  0.00  0.00    +0.073 C 
ATOM     33  S   UNL     1       1.064  -7.459  23.454  0.00  0.00    -0.080 S 
ATOM     34  C   UNL     1       1.913  -6.024  23.833  0.00  0.00    +0.074 A 
ENDBRANCH  27  29
ENDBRANCH  17  26
BRANCH   3  35
ATOM     35  O   UNL     1       6.732   1.180  22.423  0.00  0.00    -0.391 OA
ATOM     36  H   UNL     1       5.881   1.482  22.786  0.00  0.00    +0.210 HD
ENDBRANCH   3  35
BRANCH  11  37
ATOM     37  O   UNL     1       7.258  -1.185  23.703  0.00  0.00    -0.390 OA
ATOM     38  H   UNL     1       6.642  -1.370  22.957  0.00  0.00    +0.210 HD
ENDBRANCH  11  37
TORSDOF 4
ENDMDL
MODEL 5
REMARK VINA RESULT:      -6.3      3.472      8.684
REMARK  Name = 
REMARK  11 active torsions:
REMARK  status: ('A' for Active; 'I' for Inactive)
REMARK    1  A    between atoms: C_1  and  C_2
REMARK    2  A    between atoms: C_7  and  C_8
REMARK    3  A    between atoms: C_13  and  C_33
REMARK    4  A    between atoms: C_19  and  O_21
REMARK    5  A    between atoms: C_22  and  C_23
REMARK    6  A    between atoms: C_22  and  C_24
REMARK    7  A    between atoms: C_27  and  C_29
REMARK    8  A    between atoms: C_30  and  O_32
REMARK    9  A    between atoms: C_33  and  C_34
REMARK   10  A    between atoms: C_35  and  C_36
REMARK   11  A    between atoms: C_39  and  C_40
REMARK                            x       y       z     vdW  Elec       q    Type
REMARK                         _______ _______ _______ _____ _____    ______ ____
ROOT
ATOM      1  C   UNL     1       5.094   6.461  24.712  0.00  0.00    +0.010 C 
ATOM      2  C   UNL     1       4.977   4.931  24.613  0.00  0.00    +0.015 C 
ATOM      3  C   UNL     1       5.465   4.406  23.222  0.00  0.00    +0.127 C 
ATOM      4  C   UNL     1       7.005   4.580  23.087  0.00  0.00    +0.081 C 
ATOM      5  C   UNL     1       7.456   5.771  22.243  0.00  0.00    +0.018 C 
ATOM      6  C   UNL     1       7.763   3.364  22.557  0.00  0.00    +0.147 C 
ATOM      7  O   UNL     1       7.516   2.908  21.434  0.00  0.00    -0.296 OA
ATOM      8  C   UNL     1       8.861   2.705  23.430  0.00  0.00    +0.050 C 
ATOM      9  C   UNL     1       9.220   3.531  24.684  0.00  0.00    +0.021 C 
ATOM     10  C   UNL     1      10.132   2.625  22.564  0.00  0.00    +0.021 C 
ATOM     11  C   UNL     1       8.347   1.284  23.809  0.00  0.00    +0.136 C 
ATOM     12  C   UNL     1       9.220   0.595  24.875  0.00  0.00    +0.128 C 
ATOM     13  C   UNL     1       8.619  -0.623  25.540  0.00  0.00    +0.216 C 
ATOM     14  O   UNL     1       9.269  -1.649  25.704  0.00  0.00    -0.276 OA
ATOM     15  N   UNL     1       7.367  -0.376  26.061  0.00  0.00    -0.309 N 
ATOM     16  H   UNL     1       6.900   0.458  25.716  0.00  0.00    +0.149 HD
ATOM     17  C   UNL     1       6.648  -1.249  26.955  0.00  0.00    +0.102 C 
ATOM     18  C   UNL     1       5.363  -0.585  27.547  0.00  0.00    +0.061 C 
ATOM     19  C   UNL     1       5.402   0.825  28.124  0.00  0.00    +0.153 C 
ATOM     20  C   UNL     1       4.471   2.159  28.042  0.00  0.00    +0.093 C 
ATOM     21  C   UNL     1       4.550   3.218  29.126  0.00  0.00    +0.044 C 
ATOM     22  C   UNL     1       3.672   2.529  26.790  0.00  0.00    +0.037 C 
ATOM     23  C   UNL     1       3.534   4.061  26.530  0.00  0.00    +0.003 C 
ATOM     24  O   UNL     1       4.069   0.965  28.670  0.00  0.00    -0.365 OA
ATOM     25  C   UNL     1       3.551   4.483  25.041  0.00  0.00    +0.006 C 
ENDROOT
BRANCH  17  26
ATOM     26  C   UNL     1       6.306  -2.545  26.193  0.00  0.00    -0.050 C 
ATOM     27  C   UNL     1       5.620  -2.494  25.031  0.00  0.00    +0.029 C 
ATOM     28  C   UNL     1       6.784  -3.835  26.822  0.00  0.00    +0.041 C 
BRANCH  27  29
ATOM     29  C   UNL     1       5.056  -3.525  24.218  0.00  0.00    +0.071 A 
ATOM     30  N   UNL     1       5.791  -4.163  23.247  0.00  0.00    -0.245 NA
ATOM     31  C   UNL     1       5.092  -5.158  22.744  0.00  0.00    +0.076 A 
ATOM     32  C   UNL     1       5.597  -6.111  21.712  0.00  0.00    +0.073 C 
ATOM     33  S   UNL     1       3.526  -5.389  23.426  0.00  0.00    -0.080 S 
ATOM     34  C   UNL     1       3.802  -4.050  24.452  0.00  0.00    +0.074 A 
ENDBRANCH  27  29
ENDBRANCH  17  26
BRANCH   3  35
ATOM     35  O   UNL     1       5.105   3.025  23.113  0.00  0.00    -0.391 OA
ATOM     36  H   UNL     1       4.627   2.902  22.274  0.00  0.00    +0.210 HD
ENDBRANCH   3  35
BRANCH  11  37
ATOM     37  O   UNL     1       6.993   1.426  24.290  0.00  0.00    -0.390 OA
ATOM     38  H   UNL     1       7.052   1.203  25.248  0.00  0.00    +0.210 HD
ENDBRANCH  11  37
TORSDOF 4
ENDMDL
MODEL 6
REMARK VINA RESULT:      -6.1      3.238      4.251
REMARK  Name = 
REMARK  11 active torsions:
REMARK  status: ('A' for Active; 'I' for Inactive)
REMARK    1  A    between atoms: C_1  and  C_2
REMARK    2  A    between atoms: C_7  and  C_8
REMARK    3  A    between atoms: C_13  and  C_33
REMARK    4  A    between atoms: C_19  and  O_21
REMARK    5  A    between atoms: C_22  and  C_23
REMARK    6  A    between atoms: C_22  and  C_24
REMARK    7  A    between atoms: C_27  and  C_29
REMARK    8  A    between atoms: C_30  and  O_32
REMARK    9  A    between atoms: C_33  and  C_34
REMARK   10  A    between atoms: C_35  and  C_36
REMARK   11  A    between atoms: C_39  and  C_40
REMARK                            x       y       z     vdW  Elec       q    Type
REMARK                         _______ _______ _______ _____ _____    ______ ____
ROOT
ATOM      1  C   UNL     1       8.537  -4.827  24.171  0.00  0.00    +0.010 C 
ATOM      2  C   UNL     1       7.714  -3.563  23.873  0.00  0.00    +0.015 C 
ATOM      3  C   UNL     1       6.186  -3.882  23.766  0.00  0.00    +0.127 C 
ATOM      4  C   UNL     1       5.615  -4.269  25.161  0.00  0.00    +0.081 C 
ATOM      5  C   UNL     1       5.408  -5.765  25.390  0.00  0.00    +0.018 C 
ATOM      6  C   UNL     1       4.303  -3.589  25.549  0.00  0.00    +0.147 C 
ATOM      7  O   UNL     1       3.285  -3.748  24.865  0.00  0.00    -0.296 OA
ATOM      8  C   UNL     1       4.246  -2.700  26.817  0.00  0.00    +0.050 C 
ATOM      9  C   UNL     1       5.516  -2.799  27.689  0.00  0.00    +0.021 C 
ATOM     10  C   UNL     1       3.072  -3.215  27.670  0.00  0.00    +0.021 C 
ATOM     11  C   UNL     1       3.995  -1.239  26.337  0.00  0.00    +0.136 C 
ATOM     12  C   UNL     1       4.154  -0.202  27.465  0.00  0.00    +0.128 C 
ATOM     13  C   UNL     1       4.261   1.242  27.028  0.00  0.00    +0.216 C 
ATOM     14  O   UNL     1       3.626   2.129  27.587  0.00  0.00    -0.276 OA
ATOM     15  N   UNL     1       5.246   1.436  26.084  0.00  0.00    -0.309 N 
ATOM     16  H   UNL     1       5.576   0.600  25.609  0.00  0.00    +0.149 HD
ATOM     17  C   UNL     1       5.751   2.717  25.656  0.00  0.00    +0.102 C 
ATOM     18  C   UNL     1       7.018   2.596  24.749  0.00  0.00    +0.061 C 
ATOM     19  C   UNL     1       8.178   1.688  25.135  0.00  0.00    +0.153 C 
ATOM     20  C   UNL     1       9.138   0.611  24.377  0.00  0.00    +0.093 C 
ATOM     21  C   UNL     1      10.497   0.256  24.950  0.00  0.00    +0.044 C 
ATOM     22  C   UNL     1       8.642  -0.258  23.218  0.00  0.00    +0.037 C 
ATOM     23  C   UNL     1       9.279  -1.681  23.148  0.00  0.00    +0.003 C 
ATOM     24  O   UNL     1       9.156   1.995  24.115  0.00  0.00    -0.365 OA
ATOM     25  C   UNL     1       8.332  -2.805  22.664  0.00  0.00    +0.006 C 
ENDROOT
BRANCH  17  26
ATOM     26  C   UNL     1       4.616   3.468  24.933  0.00  0.00    -0.050 C 
ATOM     27  C   UNL     1       3.889   2.850  23.976  0.00  0.00    +0.029 C 
ATOM     28  C   UNL     1       4.379   4.898  25.364  0.00  0.00    +0.041 C 
BRANCH  27  29
ATOM     29  C   UNL     1       2.905   3.346  23.067  0.00  0.00    +0.071 A 
ATOM     30  N   UNL     1       3.172   3.505  21.728  0.00  0.00    -0.245 NA
ATOM     31  C   UNL     1       2.069   3.836  21.091  0.00  0.00    +0.076 A 
ATOM     32  C   UNL     1       1.969   4.027  19.614  0.00  0.00    +0.073 C 
ATOM     33  S   UNL     1       0.652   3.954  22.065  0.00  0.00    -0.080 S 
ATOM     34  C   UNL     1       1.591   3.551  23.436  0.00  0.00    +0.074 A 
ENDBRANCH  27  29
ENDBRANCH  17  26
BRANCH   3  35
ATOM     35  O   UNL     1       5.521  -2.723  23.255  0.00  0.00    -0.391 OA
ATOM     36  H   UNL     1       6.191  -2.037  23.093  0.00  0.00    +0.210 HD
ENDBRANCH   3  35
BRANCH  11  37
ATOM     37  O   UNL     1       4.931  -0.965  25.273  0.00  0.00    -0.390 OA
ATOM     38  H   UNL     1       5.171  -1.856  24.926  0.00  0.00    +0.210 HD
ENDBRANCH  11  37
TORSDOF 4
ENDMDL
MODEL 7
REMARK VINA RESULT:      -6.0      3.814      8.997
REMARK  Name = 
REMARK  11 active torsions:
REMARK  status: ('A' for Active; 'I' for Inactive)
REMARK    1  A    between atoms: C_1  and  C_2
REMARK    2  A    between atoms: C_7  and  C_8
REMARK    3  A    between atoms: C_13  and  C_33
REMARK    4  A    between atoms: C_19  and  O_21
REMARK    5  A    between atoms: C_22  and  C_23
REMARK    6  A    between atoms: C_22  and  C_24
REMARK    7  A    between atoms: C_27  and  C_29
REMARK    8  A    between atoms: C_30  and  O_32
REMARK    9  A    between atoms: C_33  and  C_34
REMARK   10  A    between atoms: C_35  and  C_36
REMARK   11  A    between atoms: C_39  and  C_40
REMARK                            x       y       z     vdW  Elec       q    Type
REMARK                         _______ _______ _______ _____ _____    ______ ____
ROOT
ATOM      1  C   UNL     1       7.906   3.872  23.278  0.00  0.00    +0.010 C 
ATOM      2  C   UNL     1       6.972   2.680  23.551  0.00  0.00    +0.015 C 
ATOM      3  C   UNL     1       7.226   1.509  22.545  0.00  0.00    +0.127 C 
ATOM      4  C   UNL     1       8.610   0.852  22.817  0.00  0.00    +0.081 C 
ATOM      5  C   UNL     1       9.727   1.261  21.858  0.00  0.00    +0.018 C 
ATOM      6  C   UNL     1       8.618  -0.675  22.862  0.00  0.00    +0.147 C 
ATOM      7  O   UNL     1       8.275  -1.337  21.875  0.00  0.00    -0.296 OA
ATOM      8  C   UNL     1       9.074  -1.402  24.153  0.00  0.00    +0.050 C 
ATOM      9  C   UNL     1       9.700  -0.453  25.198  0.00  0.00    +0.021 C 
ATOM     10  C   UNL     1      10.167  -2.404  23.741  0.00  0.00    +0.021 C 
ATOM     11  C   UNL     1       7.823  -2.136  24.725  0.00  0.00    +0.136 C 
ATOM     12  C   UNL     1       8.057  -2.705  26.137  0.00  0.00    +0.128 C 
ATOM     13  C   UNL     1       6.818  -3.130  26.894  0.00  0.00    +0.216 C 
ATOM     14  O   UNL     1       6.772  -4.195  27.499  0.00  0.00    -0.276 OA
ATOM     15  N   UNL     1       5.867  -2.134  26.952  0.00  0.00    -0.309 N 
ATOM     16  H   UNL     1       5.977  -1.377  26.283  0.00  0.00    +0.149 HD
ATOM     17  C   UNL     1       4.699  -2.144  27.797  0.00  0.00    +0.102 C 
ATOM     18  C   UNL     1       3.944  -0.776  27.802  0.00  0.00    +0.061 C 
ATOM     19  C   UNL     1       4.697   0.537  27.978  0.00  0.00    +0.153 C 
ATOM     20  C   UNL     1       4.673   2.013  27.288  0.00  0.00    +0.093 C 
ATOM     21  C   UNL     1       5.214   3.218  28.035  0.00  0.00    +0.044 C 
ATOM     22  C   UNL     1       4.344   2.224  25.808  0.00  0.00    +0.037 C 
ATOM     23  C   UNL     1       5.104   3.406  25.130  0.00  0.00    +0.003 C 
ATOM     24  O   UNL     1       3.617   1.496  28.063  0.00  0.00    -0.365 OA
ATOM     25  C   UNL     1       5.502   3.176  23.653  0.00  0.00    +0.006 C 
ENDROOT
BRANCH  17  26
ATOM     26  C   UNL     1       3.776  -3.289  27.334  0.00  0.00    -0.050 C 
ATOM     27  C   UNL     1       3.148  -4.069  28.240  0.00  0.00    +0.029 C 
ATOM     28  C   UNL     1       3.628  -3.465  25.839  0.00  0.00    +0.041 C 
BRANCH  27  29
ATOM     29  C   UNL     1       2.375  -5.261  28.089  0.00  0.00    +0.071 A 
ATOM     30  N   UNL     1       2.647  -6.395  28.817  0.00  0.00    -0.245 NA
ATOM     31  C   UNL     1       1.713  -7.296  28.600  0.00  0.00    +0.076 A 
ATOM     32  C   UNL     1       1.648  -8.627  29.273  0.00  0.00    +0.073 C 
ATOM     33  S   UNL     1       0.452  -6.820  27.526  0.00  0.00    -0.080 S 
ATOM     34  C   UNL     1       1.226  -5.308  27.327  0.00  0.00    +0.074 A 
ENDBRANCH  27  29
ENDBRANCH  17  26
BRANCH   3  35
ATOM     35  O   UNL     1       6.176   0.549  22.700  0.00  0.00    -0.391 OA
ATOM     36  H   UNL     1       5.718   0.735  23.538  0.00  0.00    +0.210 HD
ENDBRANCH   3  35
BRANCH  11  37
ATOM     37  O   UNL     1       6.734  -1.189  24.743  0.00  0.00    -0.390 OA
ATOM     38  H   UNL     1       7.035  -0.485  25.363  0.00  0.00    +0.210 HD
ENDBRANCH  11  37
TORSDOF 4
ENDMDL
MODEL 8
REMARK VINA RESULT:      -5.7      1.486      1.653
REMARK  Name = 
REMARK  11 active torsions:
REMARK  status: ('A' for Active; 'I' for Inactive)
REMARK    1  A    between atoms: C_1  and  C_2
REMARK    2  A    between atoms: C_7  and  C_8
REMARK    3  A    between atoms: C_13  and  C_33
REMARK    4  A    between atoms: C_19  and  O_21
REMARK    5  A    between atoms: C_22  and  C_23
REMARK    6  A    between atoms: C_22  and  C_24
REMARK    7  A    between atoms: C_27  and  C_29
REMARK    8  A    between atoms: C_30  and  O_32
REMARK    9  A    between atoms: C_33  and  C_34
REMARK   10  A    between atoms: C_35  and  C_36
REMARK   11  A    between atoms: C_39  and  C_40
REMARK                            x       y       z     vdW  Elec       q    Type
REMARK                         _______ _______ _______ _____ _____    ______ ____
ROOT
ATOM      1  C   UNL     1       4.769  -6.935  24.816  0.00  0.00    +0.010 C 
ATOM      2  C   UNL     1       5.036  -5.471  24.429  0.00  0.00    +0.015 C 
ATOM      3  C   UNL     1       3.725  -4.618  24.464  0.00  0.00    +0.127 C 
ATOM      4  C   UNL     1       3.236  -4.438  25.931  0.00  0.00    +0.081 C 
ATOM      5  C   UNL     1       2.074  -5.339  26.347  0.00  0.00    +0.018 C 
ATOM      6  C   UNL     1       2.840  -3.016  26.325  0.00  0.00    +0.147 C 
ATOM      7  O   UNL     1       1.923  -2.431  25.736  0.00  0.00    -0.296 OA
ATOM      8  C   UNL     1       3.587  -2.305  27.482  0.00  0.00    +0.050 C 
ATOM      9  C   UNL     1       4.525  -3.245  28.270  0.00  0.00    +0.021 C 
ATOM     10  C   UNL     1       2.514  -1.808  28.467  0.00  0.00    +0.021 C 
ATOM     11  C   UNL     1       4.370  -1.113  26.852  0.00  0.00    +0.136 C 
ATOM     12  C   UNL     1       5.354  -0.456  27.837  0.00  0.00    +0.128 C 
ATOM     13  C   UNL     1       6.382   0.472  27.228  0.00  0.00    +0.216 C 
ATOM     14  O   UNL     1       6.629   1.566  27.722  0.00  0.00    -0.276 OA
ATOM     15  N   UNL     1       7.086  -0.121  26.202  0.00  0.00    -0.309 N 
ATOM     16  H   UNL     1       6.671  -0.961  25.807  0.00  0.00    +0.149 HD
ATOM     17  C   UNL     1       8.280   0.410  25.594  0.00  0.00    +0.102 C 
ATOM     18  C   UNL     1       8.967  -0.603  24.623  0.00  0.00    +0.061 C 
ATOM     19  C   UNL     1       9.198  -2.053  25.033  0.00  0.00    +0.153 C 
ATOM     20  C   UNL     1       9.021  -3.517  24.341  0.00  0.00    +0.093 C 
ATOM     21  C   UNL     1       9.803  -4.710  24.858  0.00  0.00    +0.044 C 
ATOM     22  C   UNL     1       7.913  -3.820  23.329  0.00  0.00    +0.037 C 
ATOM     23  C   UNL     1       7.356  -5.276  23.383  0.00  0.00    +0.003 C 
ATOM     24  O   UNL     1       9.966  -2.564  23.919  0.00  0.00    -0.365 OA
ATOM     25  C   UNL     1       5.841  -5.416  23.100  0.00  0.00    +0.006 C 
ENDROOT
BRANCH  17  26
ATOM     26  C   UNL     1       7.912   1.719  24.867  0.00  0.00    -0.050 C 
ATOM     27  C   UNL     1       6.621   2.013  24.603  0.00  0.00    +0.029 C 
ATOM     28  C   UNL     1       9.066   2.621  24.490  0.00  0.00    +0.041 C 
BRANCH  27  29
ATOM     29  C   UNL     1       6.028   3.058  23.830  0.00  0.00    +0.071 A 
ATOM     30  N   UNL     1       4.868   2.862  23.118  0.00  0.00    -0.245 NA
ATOM     31  C   UNL     1       4.458   4.006  22.614  0.00  0.00    +0.076 A 
ATOM     32  C   UNL     1       3.197   4.185  21.836  0.00  0.00    +0.073 C 
ATOM     33  S   UNL     1       5.433   5.378  22.987  0.00  0.00    -0.080 S 
ATOM     34  C   UNL     1       6.486   4.360  23.868  0.00  0.00    +0.074 A 
ENDBRANCH  27  29
ENDBRANCH  17  26
BRANCH   3  35
ATOM     35  O   UNL     1       4.001  -3.347  23.868  0.00  0.00    -0.391 OA
ATOM     36  H   UNL     1       4.835  -3.013  24.240  0.00  0.00    +0.210 HD
ENDBRANCH   3  35
BRANCH  11  37
ATOM     37  O   UNL     1       5.080  -1.620  25.701  0.00  0.00    -0.390 OA
ATOM     38  H   UNL     1       4.445  -1.506  24.956  0.00  0.00    +0.210 HD
ENDBRANCH  11  37
TORSDOF 4
ENDMDL
MODEL 9
REMARK VINA RESULT:      -5.7      3.912      7.126
REMARK  Name = 
REMARK  11 active torsions:
REMARK  status: ('A' for Active; 'I' for Inactive)
REMARK    1  A    between atoms: C_1  and  C_2
REMARK    2  A    between atoms: C_7  and  C_8
REMARK    3  A    between atoms: C_13  and  C_33
REMARK    4  A    between atoms: C_19  and  O_21
REMARK    5  A    between atoms: C_22  and  C_23
REMARK    6  A    between atoms: C_22  and  C_24
REMARK    7  A    between atoms: C_27  and  C_29
REMARK    8  A    between atoms: C_30  and  O_32
REMARK    9  A    between atoms: C_33  and  C_34
REMARK   10  A    between atoms: C_35  and  C_36
REMARK   11  A    between atoms: C_39  and  C_40
REMARK                            x       y       z     vdW  Elec       q    Type
REMARK                         _______ _______ _______ _____ _____    ______ ____
ROOT
ATOM      1  C   UNL     1      11.318   0.908  24.485  0.00  0.00    +0.010 C 
ATOM      2  C   UNL     1       9.991   1.460  23.938  0.00  0.00    +0.015 C 
ATOM      3  C   UNL     1       9.056   0.312  23.432  0.00  0.00    +0.127 C 
ATOM      4  C   UNL     1       8.538  -0.532  24.632  0.00  0.00    +0.081 C 
ATOM      5  C   UNL     1       9.244  -1.871  24.842  0.00  0.00    +0.018 C 
ATOM      6  C   UNL     1       7.039  -0.832  24.630  0.00  0.00    +0.147 C 
ATOM      7  O   UNL     1       6.525  -1.468  23.703  0.00  0.00    -0.296 OA
ATOM      8  C   UNL     1       6.159  -0.345  25.809  0.00  0.00    +0.050 C 
ATOM      9  C   UNL     1       6.979   0.210  26.994  0.00  0.00    +0.021 C 
ATOM     10  C   UNL     1       5.389  -1.572  26.329  0.00  0.00    +0.021 C 
ATOM     11  C   UNL     1       5.186   0.730  25.235  0.00  0.00    +0.136 C 
ATOM     12  C   UNL     1       4.411   1.483  26.332  0.00  0.00    +0.128 C 
ATOM     13  C   UNL     1       3.709   2.750  25.897  0.00  0.00    +0.216 C 
ATOM     14  O   UNL     1       2.557   2.993  26.237  0.00  0.00    -0.276 OA
ATOM     15  N   UNL     1       4.554   3.625  25.248  0.00  0.00    -0.309 N 
ATOM     16  H   UNL     1       5.425   3.229  24.905  0.00  0.00    +0.149 HD
ATOM     17  C   UNL     1       4.251   4.999  24.934  0.00  0.00    +0.102 C 
ATOM     18  C   UNL     1       5.493   5.788  24.407  0.00  0.00    +0.061 C 
ATOM     19  C   UNL     1       6.837   5.706  25.119  0.00  0.00    +0.153 C 
ATOM     20  C   UNL     1       8.397   5.535  24.680  0.00  0.00    +0.093 C 
ATOM     21  C   UNL     1       9.509   5.983  25.610  0.00  0.00    +0.044 C 
ATOM     22  C   UNL     1       8.822   4.718  23.458  0.00  0.00    +0.037 C 
ATOM     23  C   UNL     1      10.190   3.983  23.606  0.00  0.00    +0.003 C 
ATOM     24  O   UNL     1       7.625   6.677  24.391  0.00  0.00    -0.365 OA
ATOM     25  C   UNL     1      10.275   2.599  22.918  0.00  0.00    +0.006 C 
ENDROOT
BRANCH  17  26
ATOM     26  C   UNL     1       3.100   5.019  23.909  0.00  0.00    -0.050 C 
ATOM     27  C   UNL     1       3.226   4.376  22.728  0.00  0.00    +0.029 C 
ATOM     28  C   UNL     1       1.858   5.781  24.313  0.00  0.00    +0.041 C 
BRANCH  27  29
ATOM     29  C   UNL     1       2.395   4.359  21.566  0.00  0.00    +0.071 A 
ATOM     30  N   UNL     1       2.296   5.447  20.732  0.00  0.00    -0.245 NA
ATOM     31  C   UNL     1       1.587   5.129  19.670  0.00  0.00    +0.076 A 
ATOM     32  C   UNL     1       1.327   6.045  18.520  0.00  0.00    +0.073 C 
ATOM     33  S   UNL     1       1.021   3.503  19.610  0.00  0.00    -0.080 S 
ATOM     34  C   UNL     1       1.765   3.214  21.123  0.00  0.00    +0.074 A 
ENDBRANCH  27  29
ENDBRANCH  17  26
BRANCH   3  35
ATOM     35  O   UNL     1       7.961   0.905  22.726  0.00  0.00    -0.391 OA
ATOM     36  H   UNL     1       7.352   1.289  23.380  0.00  0.00    +0.210 HD
ENDBRANCH   3  35
BRANCH  11  37
ATOM     37  O   UNL     1       5.973   1.655  24.455  0.00  0.00    -0.390 OA
ATOM     38  H   UNL     1       5.663   2.544  24.748  0.00  0.00    +0.210 HD
ENDBRANCH  11  37
TORSDOF 4
ENDMDL
