MODEL 1
REMARK VINA RESULT:      -7.8      0.000      0.000
REMARK  Name = 
REMARK  4 active torsions:
REMARK  status: ('A' for Active; 'I' for Inactive)
REMARK    1  A    between atoms: C_3  and  C_4
REMARK    2  A    between atoms: C_7  and  N_8
REMARK    3  A    between atoms: N_8  and  C_9
REMARK    4  A    between atoms: N_14  and  C_15
REMARK                            x       y       z     vdW  Elec       q    Type
REMARK                         _______ _______ _______ _____ _____    ______ ____
ROOT
ATOM      1  C   UNL     1       7.529  -5.188  25.972  0.00  0.00    +0.129 A 
ATOM      2  N   UNL     1       8.534  -4.312  25.746  0.00  0.00    -0.199 NA
ATOM      3  C   UNL     1       8.428  -3.484  24.690  0.00  0.00    +0.221 A 
ATOM      4  N   UNL     1       9.489  -2.604  24.489  0.00  0.00    -0.284 N 
ATOM      5  H   UNL     1      10.254  -2.811  25.111  0.00  0.00    +0.155 HD
ATOM      6  N   UNL     1       7.383  -3.499  23.851  0.00  0.00    -0.223 NA
ATOM      7  C   UNL     1       6.405  -4.381  24.088  0.00  0.00    +0.118 A 
ATOM      8  C   UNL     1       6.424  -5.250  25.145  0.00  0.00    +0.063 A 
ENDROOT
BRANCH   4   9
ATOM      9  C   UNL     1       9.607  -1.445  23.704  0.00  0.00    +0.036 A 
ATOM     10  C   UNL     1       9.489  -1.457  22.306  0.00  0.00    +0.025 A 
ATOM     11  C   UNL     1       9.657  -0.311  21.515  0.00  0.00    +0.029 A 
ATOM     12  C   UNL     1       9.960   0.866  22.191  0.00  0.00    +0.066 A 
ATOM     13  N   UNL     1      10.193   2.145  21.758  0.00  0.00    -0.344 N 
ATOM     14  H   UNL     1      10.184   2.456  20.798  0.00  0.00    +0.167 HD
ATOM     15  C   UNL     1      10.444   2.918  22.856  0.00  0.00    +0.197 A 
ATOM     16  N   UNL     1      10.393   2.218  23.967  0.00  0.00    -0.236 NA
ATOM     17  C   UNL     1      10.088   0.937  23.572  0.00  0.00    +0.091 A 
ATOM     18  C   UNL     1       9.919  -0.228  24.339  0.00  0.00    +0.053 A 
ENDBRANCH   4   9
BRANCH   1  19
ATOM     19  N   UNL     1       7.540  -6.020  27.118  0.00  0.00    -0.285 N 
ATOM     20  H   UNL     1       8.407  -6.530  27.240  0.00  0.00    +0.155 HD
BRANCH  19  23
ATOM     21  C   UNL     1       5.139  -5.565  29.687  0.00  0.00    +0.068 A 
ATOM     22  C   UNL     1       5.788  -5.012  28.563  0.00  0.00    +0.068 A 
ATOM     23  C   UNL     1       6.661  -5.989  28.147  0.00  0.00    +0.120 A 
ATOM     24  N   UNL     1       6.494  -7.028  29.025  0.00  0.00    -0.264 N 
ATOM     25  H   UNL     1       6.986  -7.915  29.002  0.00  0.00    +0.190 HD
ATOM     26  N   UNL     1       5.566  -6.799  29.972  0.00  0.00    -0.177 NA
BRANCH  21  28
ATOM     27  C   UNL     1       2.621  -5.043  30.115  0.00  0.00    +0.010 C 
ATOM     28  C   UNL     1       4.075  -4.825  30.485  0.00  0.00    +0.040 C 
ATOM     29  C   UNL     1       3.269  -3.739  29.801  0.00  0.00    +0.010 C 
ENDBRANCH  21  28
ENDBRANCH  19  23
ENDBRANCH   1  19
TORSDOF 4
ENDMDL
MODEL 2
REMARK VINA RESULT:      -7.7      1.568      2.323
REMARK  Name = 
REMARK  4 active torsions:
REMARK  status: ('A' for Active; 'I' for Inactive)
REMARK    1  A    between atoms: C_3  and  C_4
REMARK    2  A    between atoms: C_7  and  N_8
REMARK    3  A    between atoms: N_8  and  C_9
REMARK    4  A    between atoms: N_14  and  C_15
REMARK                            x       y       z     vdW  Elec       q    Type
REMARK                         _______ _______ _______ _____ _____    ______ ____
ROOT
ATOM      1  C   UNL     1       8.019  -4.198  24.037  0.00  0.00    +0.129 A 
ATOM      2  N   UNL     1       8.759  -3.147  24.459  0.00  0.00    -0.199 NA
ATOM      3  C   UNL     1       8.753  -2.028  23.714  0.00  0.00    +0.221 A 
ATOM      4  N   UNL     1       9.535  -0.973  24.180  0.00  0.00    -0.284 N 
ATOM      5  H   UNL     1      10.101  -1.261  24.963  0.00  0.00    +0.155 HD
ATOM      6  N   UNL     1       8.061  -1.913  22.572  0.00  0.00    -0.223 NA
ATOM      7  C   UNL     1       7.344  -2.968  22.169  0.00  0.00    +0.118 A 
ATOM      8  C   UNL     1       7.282  -4.141  22.871  0.00  0.00    +0.063 A 
ENDROOT
BRANCH   4   9
ATOM      9  C   UNL     1       9.559   0.392  23.851  0.00  0.00    +0.036 A 
ATOM     10  C   UNL     1      10.185   0.885  22.695  0.00  0.00    +0.025 A 
ATOM     11  C   UNL     1      10.254   2.252  22.389  0.00  0.00    +0.029 A 
ATOM     12  C   UNL     1       9.668   3.120  23.303  0.00  0.00    +0.066 A 
ATOM     13  N   UNL     1       9.552   4.485  23.336  0.00  0.00    -0.344 N 
ATOM     14  H   UNL     1       9.908   5.127  22.644  0.00  0.00    +0.167 HD
ATOM     15  C   UNL     1       8.874   4.819  24.474  0.00  0.00    +0.197 A 
ATOM     16  N   UNL     1       8.551   3.757  25.178  0.00  0.00    -0.236 NA
ATOM     17  C   UNL     1       9.035   2.689  24.461  0.00  0.00    +0.091 A 
ATOM     18  C   UNL     1       8.984   1.313  24.745  0.00  0.00    +0.053 A 
ENDBRANCH   4   9
BRANCH   1  19
ATOM     19  N   UNL     1       7.913  -5.370  24.826  0.00  0.00    -0.285 N 
ATOM     20  H   UNL     1       8.550  -6.106  24.545  0.00  0.00    +0.155 HD
BRANCH  19  23
ATOM     21  C   UNL     1       5.904  -5.550  27.743  0.00  0.00    +0.068 A 
ATOM     22  C   UNL     1       5.971  -5.230  26.371  0.00  0.00    +0.068 A 
ATOM     23  C   UNL     1       7.274  -5.489  26.013  0.00  0.00    +0.120 A 
ATOM     24  N   UNL     1       7.888  -5.922  27.159  0.00  0.00    -0.264 N 
ATOM     25  H   UNL     1       8.859  -6.204  27.246  0.00  0.00    +0.190 HD
ATOM     26  N   UNL     1       7.074  -5.976  28.229  0.00  0.00    -0.177 NA
BRANCH  21  28
ATOM     27  C   UNL     1       4.328  -4.068  29.197  0.00  0.00    +0.010 C 
ATOM     28  C   UNL     1       4.636  -5.414  28.572  0.00  0.00    +0.040 C 
ATOM     29  C   UNL     1       4.756  -5.199  30.067  0.00  0.00    +0.010 C 
ENDBRANCH  21  28
ENDBRANCH  19  23
ENDBRANCH   1  19
TORSDOF 4
ENDMDL
MODEL 3
REMARK VINA RESULT:      -7.7      4.149      9.171
REMARK  Name = 
REMARK  4 active torsions:
REMARK  status: ('A' for Active; 'I' for Inactive)
REMARK    1  A    between atoms: C_3  and  C_4
REMARK    2  A    between atoms: C_7  and  N_8
REMARK    3  A    between atoms: N_8  and  C_9
REMARK    4  A    between atoms: N_14  and  C_15
REMARK                            x       y       z     vdW  Elec       q    Type
REMARK                         _______ _______ _______ _____ _____    ______ ____
ROOT
ATOM      1  C   UNL     1       9.671   0.043  22.731  0.00  0.00    +0.129 A 
ATOM      2  N   UNL     1       8.782  -0.712  22.048  0.00  0.00    -0.199 NA
ATOM      3  C   UNL     1       8.432  -1.903  22.565  0.00  0.00    +0.221 A 
ATOM      4  N   UNL     1       7.520  -2.653  21.825  0.00  0.00    -0.284 N 
ATOM      5  H   UNL     1       7.350  -2.231  20.926  0.00  0.00    +0.155 HD
ATOM      6  N   UNL     1       8.932  -2.377  23.715  0.00  0.00    -0.223 NA
ATOM      7  C   UNL     1       9.817  -1.616  24.370  0.00  0.00    +0.118 A 
ATOM      8  C   UNL     1      10.220  -0.387  23.923  0.00  0.00    +0.063 A 
ENDROOT
BRANCH   4   9
ATOM      9  C   UNL     1       6.728  -3.763  22.162  0.00  0.00    +0.036 A 
ATOM     10  C   UNL     1       7.186  -5.086  22.050  0.00  0.00    +0.025 A 
ATOM     11  C   UNL     1       6.381  -6.198  22.338  0.00  0.00    +0.029 A 
ATOM     12  C   UNL     1       5.078  -5.930  22.741  0.00  0.00    +0.066 A 
ATOM     13  N   UNL     1       4.033  -6.745  23.089  0.00  0.00    -0.344 N 
ATOM     14  H   UNL     1       4.049  -7.754  23.104  0.00  0.00    +0.167 HD
ATOM     15  C   UNL     1       2.970  -5.949  23.408  0.00  0.00    +0.197 A 
ATOM     16  N   UNL     1       3.261  -4.674  23.281  0.00  0.00    -0.236 NA
ATOM     17  C   UNL     1       4.573  -4.643  22.871  0.00  0.00    +0.091 A 
ATOM     18  C   UNL     1       5.400  -3.547  22.572  0.00  0.00    +0.053 A 
ENDBRANCH   4   9
BRANCH   1  19
ATOM     19  N   UNL     1      10.009   1.344  22.283  0.00  0.00    -0.285 N 
ATOM     20  H   UNL     1      10.511   1.352  21.403  0.00  0.00    +0.155 HD
BRANCH  19  23
ATOM     21  C   UNL     1       9.032   4.409  23.776  0.00  0.00    +0.068 A 
ATOM     22  C   UNL     1       9.961   3.347  23.753  0.00  0.00    +0.068 A 
ATOM     23  C   UNL     1       9.516   2.513  22.754  0.00  0.00    +0.120 A 
ATOM     24  N   UNL     1       8.380   3.103  22.265  0.00  0.00    -0.264 N 
ATOM     25  H   UNL     1       7.799   2.748  21.512  0.00  0.00    +0.190 HD
ATOM     26  N   UNL     1       8.064   4.265  22.866  0.00  0.00    -0.177 NA
BRANCH  21  28
ATOM     27  C   UNL     1       9.163   6.983  24.164  0.00  0.00    +0.010 C 
ATOM     28  C   UNL     1       9.128   5.582  24.741  0.00  0.00    +0.040 C 
ATOM     29  C   UNL     1      10.398   6.408  24.767  0.00  0.00    +0.010 C 
ENDBRANCH  21  28
ENDBRANCH  19  23
ENDBRANCH   1  19
TORSDOF 4
ENDMDL
MODEL 4
REMARK VINA RESULT:      -7.4      3.077      9.047
REMARK  Name = 
REMARK  4 active torsions:
REMARK  status: ('A' for Active; 'I' for Inactive)
REMARK    1  A    between atoms: C_3  and  C_4
REMARK    2  A    between atoms: C_7  and  N_8
REMARK    3  A    between atoms: N_8  and  C_9
REMARK    4  A    between atoms: N_14  and  C_15
REMARK                            x       y       z     vdW  Elec       q    Type
REMARK                         _______ _______ _______ _____ _____    ______ ____
ROOT
ATOM      1  C   UNL     1       8.866  -3.544  24.539  0.00  0.00    +0.129 A 
ATOM      2  N   UNL     1       7.925  -4.094  23.737  0.00  0.00    -0.199 NA
ATOM      3  C   UNL     1       6.868  -4.690  24.316  0.00  0.00    +0.221 A 
ATOM      4  N   UNL     1       5.928  -5.251  23.455  0.00  0.00    -0.284 N 
ATOM      5  H   UNL     1       6.255  -5.232  22.501  0.00  0.00    +0.155 HD
ATOM      6  N   UNL     1       6.713  -4.774  25.645  0.00  0.00    -0.223 NA
ATOM      7  C   UNL     1       7.660  -4.231  26.419  0.00  0.00    +0.118 A 
ATOM      8  C   UNL     1       8.761  -3.594  25.915  0.00  0.00    +0.063 A 
ENDROOT
BRANCH   4   9
ATOM      9  C   UNL     1       4.608  -5.684  23.662  0.00  0.00    +0.036 A 
ATOM     10  C   UNL     1       3.497  -4.841  23.500  0.00  0.00    +0.025 A 
ATOM     11  C   UNL     1       2.182  -5.256  23.755  0.00  0.00    +0.029 A 
ATOM     12  C   UNL     1       2.021  -6.565  24.193  0.00  0.00    +0.066 A 
ATOM     13  N   UNL     1       0.912  -7.294  24.537  0.00  0.00    -0.344 N 
ATOM     14  H   UNL     1      -0.041  -6.962  24.529  0.00  0.00    +0.167 HD
ATOM     15  C   UNL     1       1.329  -8.544  24.896  0.00  0.00    +0.197 A 
ATOM     16  N   UNL     1       2.635  -8.665  24.811  0.00  0.00    -0.236 NA
ATOM     17  C   UNL     1       3.082  -7.442  24.370  0.00  0.00    +0.091 A 
ATOM     18  C   UNL     1       4.391  -6.999  24.111  0.00  0.00    +0.053 A 
ENDBRANCH   4   9
BRANCH   1  19
ATOM     19  N   UNL     1       9.953  -2.823  23.988  0.00  0.00    -0.285 N 
ATOM     20  H   UNL     1      10.831  -3.328  24.018  0.00  0.00    +0.155 HD
BRANCH  19  23
ATOM     21  C   UNL     1       9.918   0.303  22.313  0.00  0.00    +0.068 A 
ATOM     22  C   UNL     1      10.224  -0.402  23.496  0.00  0.00    +0.068 A 
ATOM     23  C   UNL     1       9.879  -1.706  23.227  0.00  0.00    +0.120 A 
ATOM     24  N   UNL     1       9.393  -1.698  21.946  0.00  0.00    -0.264 N 
ATOM     25  H   UNL     1       9.052  -2.504  21.431  0.00  0.00    +0.190 HD
ATOM     26  N   UNL     1       9.411  -0.486  21.361  0.00  0.00    -0.177 NA
BRANCH  21  28
ATOM     27  C   UNL     1      10.190   2.656  23.401  0.00  0.00    +0.010 C 
ATOM     28  C   UNL     1      10.139   1.799  22.151  0.00  0.00    +0.040 C 
ATOM     29  C   UNL     1       9.009   2.749  22.499  0.00  0.00    +0.010 C 
ENDBRANCH  21  28
ENDBRANCH  19  23
ENDBRANCH   1  19
TORSDOF 4
ENDMDL
MODEL 5
REMARK VINA RESULT:      -7.3      3.717      4.269
REMARK  Name = 
REMARK  4 active torsions:
REMARK  status: ('A' for Active; 'I' for Inactive)
REMARK    1  A    between atoms: C_3  and  C_4
REMARK    2  A    between atoms: C_7  and  N_8
REMARK    3  A    between atoms: N_8  and  C_9
REMARK    4  A    between atoms: N_14  and  C_15
REMARK                            x       y       z     vdW  Elec       q    Type
REMARK                         _______ _______ _______ _____ _____    ______ ____
ROOT
ATOM      1  C   UNL     1       7.436  -4.558  23.650  0.00  0.00    +0.129 A 
ATOM      2  N   UNL     1       7.106  -3.317  23.226  0.00  0.00    -0.199 NA
ATOM      3  C   UNL     1       7.925  -2.299  23.544  0.00  0.00    +0.221 A 
ATOM      4  N   UNL     1       7.544  -1.037  23.094  0.00  0.00    -0.284 N 
ATOM      5  H   UNL     1       6.620  -1.061  22.692  0.00  0.00    +0.155 HD
ATOM      6  N   UNL     1       9.041  -2.458  24.270  0.00  0.00    -0.223 NA
ATOM      7  C   UNL     1       9.343  -3.692  24.687  0.00  0.00    +0.118 A 
ATOM      8  C   UNL     1       8.574  -4.787  24.399  0.00  0.00    +0.063 A 
ENDROOT
BRANCH   4   9
ATOM      9  C   UNL     1       8.252   0.170  22.981  0.00  0.00    +0.036 A 
ATOM     10  C   UNL     1       9.257   0.376  22.023  0.00  0.00    +0.025 A 
ATOM     11  C   UNL     1      10.001   1.562  21.940  0.00  0.00    +0.029 A 
ATOM     12  C   UNL     1       9.699   2.547  22.874  0.00  0.00    +0.066 A 
ATOM     13  N   UNL     1      10.212   3.798  23.094  0.00  0.00    -0.344 N 
ATOM     14  H   UNL     1      10.955   4.235  22.569  0.00  0.00    +0.167 HD
ATOM     15  C   UNL     1       9.542   4.345  24.152  0.00  0.00    +0.197 A 
ATOM     16  N   UNL     1       8.635   3.522  24.630  0.00  0.00    -0.236 NA
ATOM     17  C   UNL     1       8.716   2.398  23.843  0.00  0.00    +0.091 A 
ATOM     18  C   UNL     1       7.989   1.197  23.906  0.00  0.00    +0.053 A 
ENDBRANCH   4   9
BRANCH   1  19
ATOM     19  N   UNL     1       6.662  -5.682  23.269  0.00  0.00    -0.285 N 
ATOM     20  H   UNL     1       7.214  -6.514  23.096  0.00  0.00    +0.155 HD
BRANCH  19  23
ATOM     21  C   UNL     1       3.216  -6.354  23.765  0.00  0.00    +0.068 A 
ATOM     22  C   UNL     1       4.546  -6.758  24.004  0.00  0.00    +0.068 A 
ATOM     23  C   UNL     1       5.319  -5.810  23.374  0.00  0.00    +0.120 A 
ATOM     24  N   UNL     1       4.432  -4.934  22.807  0.00  0.00    -0.264 N 
ATOM     25  H   UNL     1       4.670  -4.108  22.266  0.00  0.00    +0.190 HD
ATOM     26  N   UNL     1       3.141  -5.238  23.034  0.00  0.00    -0.177 NA
BRANCH  21  28
ATOM     27  C   UNL     1       1.560  -8.353  23.523  0.00  0.00    +0.010 C 
ATOM     28  C   UNL     1       2.005  -7.118  24.281  0.00  0.00    +0.040 C 
ATOM     29  C   UNL     1       0.732  -7.116  23.459  0.00  0.00    +0.010 C 
ENDBRANCH  21  28
ENDBRANCH  19  23
ENDBRANCH   1  19
TORSDOF 4
ENDMDL
MODEL 6
REMARK VINA RESULT:      -7.3      2.815      9.153
REMARK  Name = 
REMARK  4 active torsions:
REMARK  status: ('A' for Active; 'I' for Inactive)
REMARK    1  A    between atoms: C_3  and  C_4
REMARK    2  A    between atoms: C_7  and  N_8
REMARK    3  A    between atoms: N_8  and  C_9
REMARK    4  A    between atoms: N_14  and  C_15
REMARK                            x       y       z     vdW  Elec       q    Type
REMARK                         _______ _______ _______ _____ _____    ______ ____
ROOT
ATOM      1  C   UNL     1       9.241  -1.856  22.449  0.00  0.00    +0.129 A 
ATOM      2  N   UNL     1       8.058  -2.494  22.301  0.00  0.00    -0.199 NA
ATOM      3  C   UNL     1       7.768  -3.499  23.146  0.00  0.00    +0.221 A 
ATOM      4  N   UNL     1       6.543  -4.134  22.952  0.00  0.00    -0.284 N 
ATOM      5  H   UNL     1       6.101  -3.815  22.104  0.00  0.00    +0.155 HD
ATOM      6  N   UNL     1       8.601  -3.902  24.116  0.00  0.00    -0.223 NA
ATOM      7  C   UNL     1       9.770  -3.263  24.239  0.00  0.00    +0.118 A 
ATOM      8  C   UNL     1      10.141  -2.223  23.431  0.00  0.00    +0.063 A 
ENDROOT
BRANCH   4   9
ATOM      9  C   UNL     1       5.793  -4.993  23.773  0.00  0.00    +0.036 A 
ATOM     10  C   UNL     1       6.139  -5.265  25.106  0.00  0.00    +0.025 A 
ATOM     11  C   UNL     1       5.422  -6.161  25.913  0.00  0.00    +0.029 A 
ATOM     12  C   UNL     1       4.332  -6.788  25.320  0.00  0.00    +0.066 A 
ATOM     13  N   UNL     1       3.427  -7.704  25.789  0.00  0.00    -0.344 N 
ATOM     14  H   UNL     1       3.414  -8.103  26.716  0.00  0.00    +0.167 HD
ATOM     15  C   UNL     1       2.553  -7.984  24.777  0.00  0.00    +0.197 A 
ATOM     16  N   UNL     1       2.840  -7.310  23.686  0.00  0.00    -0.236 NA
ATOM     17  C   UNL     1       3.944  -6.556  24.007  0.00  0.00    +0.091 A 
ATOM     18  C   UNL     1       4.683  -5.657  23.221  0.00  0.00    +0.053 A 
ENDBRANCH   4   9
BRANCH   1  19
ATOM     19  N   UNL     1       9.562  -0.732  21.649  0.00  0.00    -0.285 N 
ATOM     20  H   UNL     1       9.754  -0.965  20.682  0.00  0.00    +0.155 HD
BRANCH  19  23
ATOM     21  C   UNL     1       9.363   2.619  22.793  0.00  0.00    +0.068 A 
ATOM     22  C   UNL     1       9.953   1.347  22.952  0.00  0.00    +0.068 A 
ATOM     23  C   UNL     1       9.379   0.569  21.974  0.00  0.00    +0.120 A 
ATOM     24  N   UNL     1       8.502   1.393  21.320  0.00  0.00    -0.264 N 
ATOM     25  H   UNL     1       7.912   1.135  20.535  0.00  0.00    +0.190 HD
ATOM     26  N   UNL     1       8.476   2.652  21.794  0.00  0.00    -0.177 NA
BRANCH  21  28
ATOM     27  C   UNL     1       8.766   4.149  24.816  0.00  0.00    +0.010 C 
ATOM     28  C   UNL     1       9.702   3.813  23.672  0.00  0.00    +0.040 C 
ATOM     29  C   UNL     1       8.810   5.038  23.621  0.00  0.00    +0.010 C 
ENDBRANCH  21  28
ENDBRANCH  19  23
ENDBRANCH   1  19
TORSDOF 4
ENDMDL
MODEL 7
REMARK VINA RESULT:      -7.2      3.301      5.176
REMARK  Name = 
REMARK  4 active torsions:
REMARK  status: ('A' for Active; 'I' for Inactive)
REMARK    1  A    between atoms: C_3  and  C_4
REMARK    2  A    between atoms: C_7  and  N_8
REMARK    3  A    between atoms: N_8  and  C_9
REMARK    4  A    between atoms: N_14  and  C_15
REMARK                            x       y       z     vdW  Elec       q    Type
REMARK                         _______ _______ _______ _____ _____    ______ ____
ROOT
ATOM      1  C   UNL     1       9.694  -1.977  23.390  0.00  0.00    +0.129 A 
ATOM      2  N   UNL     1      10.047  -0.882  24.101  0.00  0.00    -0.199 NA
ATOM      3  C   UNL     1      10.046   0.308  23.474  0.00  0.00    +0.221 A 
ATOM      4  N   UNL     1      10.425   1.409  24.240  0.00  0.00    -0.284 N 
ATOM      5  H   UNL     1      10.771   1.120  25.142  0.00  0.00    +0.155 HD
ATOM      6  N   UNL     1       9.725   0.454  22.181  0.00  0.00    -0.223 NA
ATOM      7  C   UNL     1       9.388  -0.644  21.495  0.00  0.00    +0.118 A 
ATOM      8  C   UNL     1       9.350  -1.892  22.055  0.00  0.00    +0.063 A 
ENDROOT
BRANCH   4   9
ATOM      9  C   UNL     1      10.276   2.790  24.032  0.00  0.00    +0.036 A 
ATOM     10  C   UNL     1      11.305   3.597  23.521  0.00  0.00    +0.025 A 
ATOM     11  C   UNL     1      11.177   4.985  23.360  0.00  0.00    +0.029 A 
ATOM     12  C   UNL     1       9.963   5.542  23.743  0.00  0.00    +0.066 A 
ATOM     13  N   UNL     1       9.494   6.829  23.735  0.00  0.00    -0.344 N 
ATOM     14  H   UNL     1      10.005   7.643  23.426  0.00  0.00    +0.167 HD
ATOM     15  C   UNL     1       8.218   6.813  24.223  0.00  0.00    +0.197 A 
ATOM     16  N   UNL     1       7.838   5.598  24.550  0.00  0.00    -0.236 NA
ATOM     17  C   UNL     1       8.911   4.792  24.254  0.00  0.00    +0.091 A 
ATOM     18  C   UNL     1       9.068   3.404  24.408  0.00  0.00    +0.053 A 
ENDBRANCH   4   9
BRANCH   1  19
ATOM     19  N   UNL     1       9.587  -3.242  24.018  0.00  0.00    -0.285 N 
ATOM     20  H   UNL     1      10.389  -3.479  24.591  0.00  0.00    +0.155 HD
BRANCH  19  23
ATOM     21  C   UNL     1       6.653  -5.231  23.917  0.00  0.00    +0.068 A 
ATOM     22  C   UNL     1       7.662  -4.573  23.183  0.00  0.00    +0.068 A 
ATOM     23  C   UNL     1       8.468  -3.993  24.135  0.00  0.00    +0.120 A 
ATOM     24  N   UNL     1       7.902  -4.320  25.340  0.00  0.00    -0.264 N 
ATOM     25  H   UNL     1       8.250  -4.052  26.255  0.00  0.00    +0.190 HD
ATOM     26  N   UNL     1       6.797  -5.080  25.237  0.00  0.00    -0.177 NA
BRANCH  21  28
ATOM     27  C   UNL     1       4.119  -5.454  23.348  0.00  0.00    +0.010 C 
ATOM     28  C   UNL     1       5.524  -6.017  23.267  0.00  0.00    +0.040 C 
ATOM     29  C   UNL     1       4.473  -6.658  24.150  0.00  0.00    +0.010 C 
ENDBRANCH  21  28
ENDBRANCH  19  23
ENDBRANCH   1  19
TORSDOF 4
ENDMDL
MODEL 8
REMARK VINA RESULT:      -7.1      2.383      8.761
REMARK  Name = 
REMARK  4 active torsions:
REMARK  status: ('A' for Active; 'I' for Inactive)
REMARK    1  A    between atoms: C_3  and  C_4
REMARK    2  A    between atoms: C_7  and  N_8
REMARK    3  A    between atoms: N_8  and  C_9
REMARK    4  A    between atoms: N_14  and  C_15
REMARK                            x       y       z     vdW  Elec       q    Type
REMARK                         _______ _______ _______ _____ _____    ______ ____
ROOT
ATOM      1  C   UNL     1       8.848   0.399  21.994  0.00  0.00    +0.129 A 
ATOM      2  N   UNL     1       7.745  -0.231  22.459  0.00  0.00    -0.199 NA
ATOM      3  C   UNL     1       7.874  -1.497  22.895  0.00  0.00    +0.221 A 
ATOM      4  N   UNL     1       6.712  -2.111  23.357  0.00  0.00    -0.284 N 
ATOM      5  H   UNL     1       5.903  -1.538  23.174  0.00  0.00    +0.155 HD
ATOM      6  N   UNL     1       9.037  -2.162  22.878  0.00  0.00    -0.223 NA
ATOM      7  C   UNL     1      10.114  -1.523  22.405  0.00  0.00    +0.118 A 
ATOM      8  C   UNL     1      10.077  -0.232  21.953  0.00  0.00    +0.063 A 
ENDROOT
BRANCH   4   9
ATOM      9  C   UNL     1       6.506  -3.268  24.126  0.00  0.00    +0.036 A 
ATOM     10  C   UNL     1       5.890  -4.421  23.615  0.00  0.00    +0.025 A 
ATOM     11  C   UNL     1       5.638  -5.560  24.393  0.00  0.00    +0.029 A 
ATOM     12  C   UNL     1       6.026  -5.496  25.726  0.00  0.00    +0.066 A 
ATOM     13  N   UNL     1       5.935  -6.392  26.759  0.00  0.00    -0.344 N 
ATOM     14  H   UNL     1       5.533  -7.316  26.708  0.00  0.00    +0.167 HD
ATOM     15  C   UNL     1       6.480  -5.809  27.868  0.00  0.00    +0.197 A 
ATOM     16  N   UNL     1       6.911  -4.593  27.616  0.00  0.00    -0.236 NA
ATOM     17  C   UNL     1       6.640  -4.382  26.285  0.00  0.00    +0.091 A 
ATOM     18  C   UNL     1       6.877  -3.253  25.483  0.00  0.00    +0.053 A 
ENDBRANCH   4   9
BRANCH   1  19
ATOM     19  N   UNL     1       8.794   1.760  21.608  0.00  0.00    -0.285 N 
ATOM     20  H   UNL     1       8.729   1.894  20.605  0.00  0.00    +0.155 HD
BRANCH  19  23
ATOM     21  C   UNL     1       8.416   4.349  24.002  0.00  0.00    +0.068 A 
ATOM     22  C   UNL     1       8.980   3.092  23.697  0.00  0.00    +0.068 A 
ATOM     23  C   UNL     1       8.561   2.820  22.416  0.00  0.00    +0.120 A 
ATOM     24  N   UNL     1       7.789   3.891  22.049  0.00  0.00    -0.264 N 
ATOM     25  H   UNL     1       7.324   4.015  21.155  0.00  0.00    +0.190 HD
ATOM     26  N   UNL     1       7.688   4.843  22.995  0.00  0.00    -0.177 NA
BRANCH  21  28
ATOM     27  C   UNL     1       7.622   4.777  26.447  0.00  0.00    +0.010 C 
ATOM     28  C   UNL     1       8.615   5.053  25.336  0.00  0.00    +0.040 C 
ATOM     29  C   UNL     1       7.611   6.103  25.768  0.00  0.00    +0.010 C 
ENDBRANCH  21  28
ENDBRANCH  19  23
ENDBRANCH   1  19
TORSDOF 4
ENDMDL
MODEL 9
REMARK VINA RESULT:      -7.1      3.349      4.686
REMARK  Name = 
REMARK  4 active torsions:
REMARK  status: ('A' for Active; 'I' for Inactive)
REMARK    1  A    between atoms: C_3  and  C_4
REMARK    2  A    between atoms: C_7  and  N_8
REMARK    3  A    between atoms: N_8  and  C_9
REMARK    4  A    between atoms: N_14  and  C_15
REMARK                            x       y       z     vdW  Elec       q    Type
REMARK                         _______ _______ _______ _____ _____    ______ ____
ROOT
ATOM      1  C   UNL     1       8.639  -2.473  24.554  0.00  0.00    +0.129 A 
ATOM      2  N   UNL     1       8.771  -1.421  23.714  0.00  0.00    -0.199 NA
ATOM      3  C   UNL     1       8.869  -0.191  24.248  0.00  0.00    +0.221 A 
ATOM      4  N   UNL     1       8.995   0.864  23.347  0.00  0.00    -0.284 N 
ATOM      5  H   UNL     1       8.865   0.548  22.399  0.00  0.00    +0.155 HD
ATOM      6  N   UNL     1       8.830   0.039  25.568  0.00  0.00    -0.223 NA
ATOM      7  C   UNL     1       8.689  -1.015  26.380  0.00  0.00    +0.118 A 
ATOM      8  C   UNL     1       8.594  -2.302  25.924  0.00  0.00    +0.063 A 
ENDROOT
BRANCH   4   9
ATOM      9  C   UNL     1       9.396   2.199  23.519  0.00  0.00    +0.036 A 
ATOM     10  C   UNL     1       8.490   3.237  23.788  0.00  0.00    +0.025 A 
ATOM     11  C   UNL     1       8.880   4.579  23.910  0.00  0.00    +0.029 A 
ATOM     12  C   UNL     1      10.234   4.846  23.742  0.00  0.00    +0.066 A 
ATOM     13  N   UNL     1      10.958   6.008  23.783  0.00  0.00    -0.344 N 
ATOM     14  H   UNL     1      10.587   6.931  23.953  0.00  0.00    +0.167 HD
ATOM     15  C   UNL     1      12.267   5.694  23.549  0.00  0.00    +0.197 A 
ATOM     16  N   UNL     1      12.431   4.405  23.355  0.00  0.00    -0.236 NA
ATOM     17  C   UNL     1      11.175   3.860  23.475  0.00  0.00    +0.091 A 
ATOM     18  C   UNL     1      10.755   2.524  23.354  0.00  0.00    +0.053 A 
ENDBRANCH   4   9
BRANCH   1  19
ATOM     19  N   UNL     1       8.623  -3.798  24.055  0.00  0.00    -0.285 N 
ATOM     20  H   UNL     1       9.517  -4.269  24.128  0.00  0.00    +0.155 HD
BRANCH  19  23
ATOM     21  C   UNL     1       5.725  -5.809  23.686  0.00  0.00    +0.068 A 
ATOM     22  C   UNL     1       6.678  -5.259  24.568  0.00  0.00    +0.068 A 
ATOM     23  C   UNL     1       7.527  -4.537  23.761  0.00  0.00    +0.120 A 
ATOM     24  N   UNL     1       7.051  -4.705  22.488  0.00  0.00    -0.264 N 
ATOM     25  H   UNL     1       7.446  -4.300  21.644  0.00  0.00    +0.190 HD
ATOM     26  N   UNL     1       5.948  -5.471  22.412  0.00  0.00    -0.177 NA
BRANCH  21  28
ATOM     27  C   UNL     1       3.305  -6.028  24.628  0.00  0.00    +0.010 C 
ATOM     28  C   UNL     1       4.577  -6.695  24.144  0.00  0.00    +0.040 C 
ATOM     29  C   UNL     1       4.197  -6.703  25.611  0.00  0.00    +0.010 C 
ENDBRANCH  21  28
ENDBRANCH  19  23
ENDBRANCH   1  19
TORSDOF 4
ENDMDL
