MODEL 1
REMARK VINA RESULT:      -3.6      0.000      0.000
REMARK  Name = 
REMARK  3 active torsions:
REMARK  status: ('A' for Active; 'I' for Inactive)
REMARK    1  A    between atoms: C_2  and  C_4
REMARK    2  A    between atoms: C_4  and  C_5
REMARK    3  A    between atoms: C_5  and  O_6
REMARK                            x       y       z     vdW  Elec       q    Type
REMARK                         _______ _______ _______ _____ _____    ______ ____
ROOT
ATOM      1  N   UNL     1      10.253   2.424  21.828  0.00  0.00    -0.329 N 
ATOM      2  H   UNL     1      11.010   2.736  22.422  0.00  0.00    +0.145 HD
ATOM      3  H   UNL     1       9.894   3.067  21.133  0.00  0.00    +0.145 HD
ATOM      4  C   UNL     1       9.690   1.186  21.912  0.00  0.00    +0.221 C 
ATOM      5  O   UNL     1       8.771   0.854  21.167  0.00  0.00    -0.275 OA
ENDROOT
BRANCH   4   6
ATOM      6  C   UNL     1      10.268   0.284  22.961  0.00  0.00    +0.215 C 
BRANCH   6   7
ATOM      7  C   UNL     1      10.187  -1.198  22.715  0.00  0.00    +0.314 C 
ATOM      8  O   UNL     1      10.080  -1.992  23.643  0.00  0.00    -0.250 OA
BRANCH   7   9
ATOM      9  O   UNL     1      10.238  -1.623  21.437  0.00  0.00    -0.480 OA
ATOM     10  H   UNL     1      10.288  -0.898  20.767  0.00  0.00    +0.295 HD
ENDBRANCH   7   9
ENDBRANCH   6   7
ENDBRANCH   4   6
TORSDOF 3
ENDMDL
MODEL 2
REMARK VINA RESULT:      -3.6      5.743      6.816
REMARK  Name = 
REMARK  3 active torsions:
REMARK  status: ('A' for Active; 'I' for Inactive)
REMARK    1  A    between atoms: C_2  and  C_4
REMARK    2  A    between atoms: C_4  and  C_5
REMARK    3  A    between atoms: C_5  and  O_6
REMARK                            x       y       z     vdW  Elec       q    Type
REMARK                         _______ _______ _______ _____ _____    ______ ____
ROOT
ATOM      1  N   UNL     1      10.188  -5.659  25.685  0.00  0.00    -0.329 N 
ATOM      2  H   UNL     1       9.851  -6.410  26.273  0.00  0.00    +0.145 HD
ATOM      3  H   UNL     1      11.187  -5.587  25.528  0.00  0.00    +0.145 HD
ATOM      4  C   UNL     1       9.375  -4.740  25.094  0.00  0.00    +0.221 C 
ATOM      5  O   UNL     1       9.835  -3.846  24.387  0.00  0.00    -0.275 OA
ENDROOT
BRANCH   4   6
ATOM      6  C   UNL     1       7.910  -4.904  25.367  0.00  0.00    +0.215 C 
BRANCH   6   7
ATOM      7  C   UNL     1       7.474  -4.905  26.807  0.00  0.00    +0.314 C 
ATOM      8  O   UNL     1       6.797  -3.992  27.268  0.00  0.00    -0.250 OA
BRANCH   7   9
ATOM      9  O   UNL     1       7.855  -5.945  27.574  0.00  0.00    -0.480 OA
ATOM     10  H   UNL     1       8.792  -5.901  27.886  0.00  0.00    +0.295 HD
ENDBRANCH   7   9
ENDBRANCH   6   7
ENDBRANCH   4   6
TORSDOF 3
ENDMDL
MODEL 3
REMARK VINA RESULT:      -3.5      1.682      3.294
REMARK  Name = 
REMARK  3 active torsions:
REMARK  status: ('A' for Active; 'I' for Inactive)
REMARK    1  A    between atoms: C_2  and  C_4
REMARK    2  A    between atoms: C_4  and  C_5
REMARK    3  A    between atoms: C_5  and  O_6
REMARK                            x       y       z     vdW  Elec       q    Type
REMARK                         _______ _______ _______ _____ _____    ______ ____
ROOT
ATOM      1  N   UNL     1      10.149  -0.154  23.735  0.00  0.00    -0.329 N 
ATOM      2  H   UNL     1       9.736   0.760  23.867  0.00  0.00    +0.145 HD
ATOM      3  H   UNL     1      10.594  -0.596  24.531  0.00  0.00    +0.145 HD
ATOM      4  C   UNL     1      10.140  -0.823  22.549  0.00  0.00    +0.221 C 
ATOM      5  O   UNL     1      10.656  -1.933  22.441  0.00  0.00    -0.275 OA
ENDROOT
BRANCH   4   6
ATOM      6  C   UNL     1       9.465  -0.113  21.413  0.00  0.00    +0.215 C 
BRANCH   6   7
ATOM      7  C   UNL     1       9.097   1.330  21.626  0.00  0.00    +0.314 C 
ATOM      8  O   UNL     1       7.940   1.664  21.862  0.00  0.00    -0.250 OA
BRANCH   7   9
ATOM      9  O   UNL     1      10.083   2.245  21.546  0.00  0.00    -0.480 OA
ATOM     10  H   UNL     1       9.905   3.081  22.043  0.00  0.00    +0.295 HD
ENDBRANCH   7   9
ENDBRANCH   6   7
ENDBRANCH   4   6
TORSDOF 3
ENDMDL
MODEL 4
REMARK VINA RESULT:      -3.5      6.049      6.887
REMARK  Name = 
REMARK  3 active torsions:
REMARK  status: ('A' for Active; 'I' for Inactive)
REMARK    1  A    between atoms: C_2  and  C_4
REMARK    2  A    between atoms: C_4  and  C_5
REMARK    3  A    between atoms: C_5  and  O_6
REMARK                            x       y       z     vdW  Elec       q    Type
REMARK                         _______ _______ _______ _____ _____    ______ ____
ROOT
ATOM      1  N   UNL     1       7.681  -6.036  27.422  0.00  0.00    -0.329 N 
ATOM      2  H   UNL     1       8.155  -6.855  27.064  0.00  0.00    +0.145 HD
ATOM      3  H   UNL     1       7.341  -6.060  28.377  0.00  0.00    +0.145 HD
ATOM      4  C   UNL     1       7.474  -4.904  26.693  0.00  0.00    +0.221 C 
ATOM      5  O   UNL     1       6.893  -3.935  27.175  0.00  0.00    -0.275 OA
ENDROOT
BRANCH   4   6
ATOM      6  C   UNL     1       8.002  -4.935  25.290  0.00  0.00    +0.215 C 
BRANCH   6   7
ATOM      7  C   UNL     1       9.484  -4.748  25.108  0.00  0.00    +0.314 C 
ATOM      8  O   UNL     1       9.930  -3.860  24.389  0.00  0.00    -0.250 OA
BRANCH   7   9
ATOM      9  O   UNL     1      10.306  -5.591  25.763  0.00  0.00    -0.480 OA
ATOM     10  H   UNL     1       9.993  -5.847  26.666  0.00  0.00    +0.295 HD
ENDBRANCH   7   9
ENDBRANCH   6   7
ENDBRANCH   4   6
TORSDOF 3
ENDMDL
MODEL 5
REMARK VINA RESULT:      -3.4      2.379      3.213
REMARK  Name = 
REMARK  3 active torsions:
REMARK  status: ('A' for Active; 'I' for Inactive)
REMARK    1  A    between atoms: C_2  and  C_4
REMARK    2  A    between atoms: C_4  and  C_5
REMARK    3  A    between atoms: C_5  and  O_6
REMARK                            x       y       z     vdW  Elec       q    Type
REMARK                         _______ _______ _______ _____ _____    ______ ____
ROOT
ATOM      1  N   UNL     1      10.217   0.403  25.571  0.00  0.00    -0.329 N 
ATOM      2  H   UNL     1      10.555  -0.551  25.583  0.00  0.00    +0.145 HD
ATOM      3  H   UNL     1      10.008   0.847  26.458  0.00  0.00    +0.145 HD
ATOM      4  C   UNL     1      10.029   1.123  24.430  0.00  0.00    +0.221 C 
ATOM      5  O   UNL     1       9.617   2.279  24.469  0.00  0.00    -0.275 OA
ENDROOT
BRANCH   4   6
ATOM      6  C   UNL     1      10.359   0.407  23.154  0.00  0.00    +0.215 C 
BRANCH   6   7
ATOM      7  C   UNL     1       9.855   1.016  21.874  0.00  0.00    +0.314 C 
ATOM      8  O   UNL     1       9.154   0.375  21.097  0.00  0.00    -0.250 OA
BRANCH   7   9
ATOM      9  O   UNL     1      10.202   2.290  21.609  0.00  0.00    -0.480 OA
ATOM     10  H   UNL     1       9.843   2.953  22.250  0.00  0.00    +0.295 HD
ENDBRANCH   7   9
ENDBRANCH   6   7
ENDBRANCH   4   6
TORSDOF 3
ENDMDL
MODEL 6
REMARK VINA RESULT:      -3.4      1.998      2.684
REMARK  Name = 
REMARK  3 active torsions:
REMARK  status: ('A' for Active; 'I' for Inactive)
REMARK    1  A    between atoms: C_2  and  C_4
REMARK    2  A    between atoms: C_4  and  C_5
REMARK    3  A    between atoms: C_5  and  O_6
REMARK                            x       y       z     vdW  Elec       q    Type
REMARK                         _______ _______ _______ _____ _____    ______ ____
ROOT
ATOM      1  N   UNL     1      10.005   2.171  21.696  0.00  0.00    -0.329 N 
ATOM      2  H   UNL     1      10.482   2.834  22.294  0.00  0.00    +0.145 HD
ATOM      3  H   UNL     1       9.605   2.512  20.830  0.00  0.00    +0.145 HD
ATOM      4  C   UNL     1       9.871   0.848  21.992  0.00  0.00    +0.221 C 
ATOM      5  O   UNL     1       9.283   0.083  21.231  0.00  0.00    -0.275 OA
ENDROOT
BRANCH   4   6
ATOM      6  C   UNL     1      10.486   0.411  23.288  0.00  0.00    +0.215 C 
BRANCH   6   7
ATOM      7  C   UNL     1       9.975   1.060  24.546  0.00  0.00    +0.314 C 
ATOM      8  O   UNL     1       9.563   2.215  24.543  0.00  0.00    -0.250 OA
BRANCH   7   9
ATOM      9  O   UNL     1       9.987   0.327  25.676  0.00  0.00    -0.480 OA
ATOM     10  H   UNL     1       9.130   0.323  26.169  0.00  0.00    +0.295 HD
ENDBRANCH   7   9
ENDBRANCH   6   7
ENDBRANCH   4   6
TORSDOF 3
ENDMDL
MODEL 7
REMARK VINA RESULT:      -3.3      2.918      3.916
REMARK  Name = 
REMARK  3 active torsions:
REMARK  status: ('A' for Active; 'I' for Inactive)
REMARK    1  A    between atoms: C_2  and  C_4
REMARK    2  A    between atoms: C_4  and  C_5
REMARK    3  A    between atoms: C_5  and  O_6
REMARK                            x       y       z     vdW  Elec       q    Type
REMARK                         _______ _______ _______ _____ _____    ______ ____
ROOT
ATOM      1  N   UNL     1      10.018   0.229  25.677  0.00  0.00    -0.329 N 
ATOM      2  H   UNL     1       9.702   0.827  26.429  0.00  0.00    +0.145 HD
ATOM      3  H   UNL     1      10.231  -0.738  25.892  0.00  0.00    +0.145 HD
ATOM      4  C   UNL     1      10.174   0.652  24.391  0.00  0.00    +0.221 C 
ATOM      5  O   UNL     1      10.562  -0.114  23.513  0.00  0.00    -0.275 OA
ENDROOT
BRANCH   4   6
ATOM      6  C   UNL     1       9.842   2.093  24.142  0.00  0.00    +0.215 C 
BRANCH   6   7
ATOM      7  C   UNL     1      10.584   2.789  23.034  0.00  0.00    +0.314 C 
ATOM      8  O   UNL     1      11.398   3.675  23.271  0.00  0.00    -0.250 OA
BRANCH   7   9
ATOM      9  O   UNL     1      10.323   2.405  21.769  0.00  0.00    -0.480 OA
ATOM     10  H   UNL     1       9.402   2.598  21.465  0.00  0.00    +0.295 HD
ENDBRANCH   7   9
ENDBRANCH   6   7
ENDBRANCH   4   6
TORSDOF 3
ENDMDL
MODEL 8
REMARK VINA RESULT:      -3.2      2.776      3.778
REMARK  Name = 
REMARK  3 active torsions:
REMARK  status: ('A' for Active; 'I' for Inactive)
REMARK    1  A    between atoms: C_2  and  C_4
REMARK    2  A    between atoms: C_4  and  C_5
REMARK    3  A    between atoms: C_5  and  O_6
REMARK                            x       y       z     vdW  Elec       q    Type
REMARK                         _______ _______ _______ _____ _____    ______ ____
ROOT
ATOM      1  N   UNL     1       9.445   1.954  21.370  0.00  0.00    -0.329 N 
ATOM      2  H   UNL     1       9.370   2.958  21.472  0.00  0.00    +0.145 HD
ATOM      3  H   UNL     1       9.098   1.534  20.516  0.00  0.00    +0.145 HD
ATOM      4  C   UNL     1       9.986   1.138  22.318  0.00  0.00    +0.221 C 
ATOM      5  O   UNL     1      10.054  -0.076  22.146  0.00  0.00    -0.275 OA
ENDROOT
BRANCH   4   6
ATOM      6  C   UNL     1      10.480   1.825  23.555  0.00  0.00    +0.215 C 
BRANCH   6   7
ATOM      7  C   UNL     1      10.446   3.329  23.568  0.00  0.00    +0.314 C 
ATOM      8  O   UNL     1       9.523   3.941  24.096  0.00  0.00    -0.250 OA
BRANCH   7   9
ATOM      9  O   UNL     1      11.466   3.982  22.978  0.00  0.00    -0.480 OA
ATOM     10  H   UNL     1      11.777   4.782  23.468  0.00  0.00    +0.295 HD
ENDBRANCH   7   9
ENDBRANCH   6   7
ENDBRANCH   4   6
TORSDOF 3
ENDMDL
MODEL 9
REMARK VINA RESULT:      -3.2      6.067      6.928
REMARK  Name = 
REMARK  3 active torsions:
REMARK  status: ('A' for Active; 'I' for Inactive)
REMARK    1  A    between atoms: C_2  and  C_4
REMARK    2  A    between atoms: C_4  and  C_5
REMARK    3  A    between atoms: C_5  and  O_6
REMARK                            x       y       z     vdW  Elec       q    Type
REMARK                         _______ _______ _______ _____ _____    ______ ____
ROOT
ATOM      1  N   UNL     1       6.398  -4.850  24.175  0.00  0.00    -0.329 N 
ATOM      2  H   UNL     1       5.465  -5.156  23.932  0.00  0.00    +0.145 HD
ATOM      3  H   UNL     1       6.515  -4.291  25.012  0.00  0.00    +0.145 HD
ATOM      4  C   UNL     1       7.505  -5.147  23.438  0.00  0.00    +0.221 C 
ATOM      5  O   UNL     1       8.618  -4.752  23.776  0.00  0.00    -0.275 OA
ENDROOT
BRANCH   4   6
ATOM      6  C   UNL     1       7.261  -5.977  22.214  0.00  0.00    +0.215 C 
BRANCH   6   7
ATOM      7  C   UNL     1       5.969  -5.753  21.476  0.00  0.00    +0.314 C 
ATOM      8  O   UNL     1       5.958  -5.297  20.338  0.00  0.00    -0.250 OA
BRANCH   7   9
ATOM      9  O   UNL     1       4.824  -6.070  22.110  0.00  0.00    -0.480 OA
ATOM     10  H   UNL     1       4.941  -6.668  22.889  0.00  0.00    +0.295 HD
ENDBRANCH   7   9
ENDBRANCH   6   7
ENDBRANCH   4   6
TORSDOF 3
ENDMDL
