MODEL 1
REMARK VINA RESULT:      -6.0      0.000      0.000
REMARK  Name = 
REMARK  6 active torsions:
REMARK  status: ('A' for Active; 'I' for Inactive)
REMARK    1  A    between atoms: C_1  and  N_2
REMARK    2  A    between atoms: N_2  and  C_3
REMARK    3  A    between atoms: C_3  and  C_4
REMARK    4  A    between atoms: C_4  and  N_5
REMARK    5  A    between atoms: N_5  and  S_6
REMARK    6  A    between atoms: S_6  and  C_9
REMARK                            x       y       z     vdW  Elec       q    Type
REMARK                         _______ _______ _______ _____ _____    ______ ____
ROOT
ATOM      1  S   UNL     1       9.131  -2.418  23.784  0.00  0.00    +0.059 S 
ATOM      2  O   UNL     1       8.971  -1.318  24.710  0.00  0.00    -0.153 OA
ATOM      3  O   UNL     1      10.239  -3.341  23.909  0.00  0.00    -0.153 OA
ENDROOT
BRANCH   1   4
ATOM      4  C   UNL     1       7.610  -3.342  23.716  0.00  0.00    +0.113 A 
ATOM      5  C   UNL     1       7.224  -4.213  24.772  0.00  0.00    +0.011 A 
ATOM      6  C   UNL     1       7.880  -4.350  26.018  0.00  0.00    +0.030 A 
ATOM      7  C   UNL     1       7.413  -5.268  26.947  0.00  0.00    +0.111 A 
ATOM      8  N   UNL     1       6.353  -6.068  26.740  0.00  0.00    -0.263 NA
ATOM      9  C   UNL     1       5.721  -5.929  25.554  0.00  0.00    +0.119 A 
ATOM     10  C   UNL     1       6.096  -5.035  24.549  0.00  0.00    +0.002 A 
ATOM     11  C   UNL     1       5.381  -4.962  23.340  0.00  0.00    +0.010 A 
ATOM     12  C   UNL     1       5.763  -4.078  22.335  0.00  0.00    +0.003 A 
ATOM     13  C   UNL     1       6.876  -3.267  22.520  0.00  0.00    +0.029 A 
ENDBRANCH   1   4
BRANCH   1  14
ATOM     14  N   UNL     1       9.229  -1.705  22.239  0.00  0.00    -0.189 NA
ATOM     15  H   UNL     1       9.654  -2.401  21.620  0.00  0.00    +0.148 HD
BRANCH  14  16
ATOM     16  C   UNL     1       9.962  -0.413  22.189  0.00  0.00    +0.121 C 
BRANCH  16  17
ATOM     17  C   UNL     1       9.112   0.666  21.499  0.00  0.00    +0.097 C 
BRANCH  17  19
ATOM     18  C   UNL     1      10.207   2.317  22.881  0.00  0.00    +0.101 C 
ATOM     19  N   UNL     1       9.825   1.947  21.525  0.00  0.00    -0.318 NA
ATOM     20  H   UNL     1      10.670   1.876  20.956  0.00  0.00    +0.122 HD
ENDBRANCH  17  19
ENDBRANCH  16  17
ENDBRANCH  14  16
ENDBRANCH   1  14
TORSDOF 5
ENDMDL
MODEL 2
REMARK VINA RESULT:      -5.7      1.633      1.925
REMARK  Name = 
REMARK  6 active torsions:
REMARK  status: ('A' for Active; 'I' for Inactive)
REMARK    1  A    between atoms: C_1  and  N_2
REMARK    2  A    between atoms: N_2  and  C_3
REMARK    3  A    between atoms: C_3  and  C_4
REMARK    4  A    between atoms: C_4  and  N_5
REMARK    5  A    between atoms: N_5  and  S_6
REMARK    6  A    between atoms: S_6  and  C_9
REMARK                            x       y       z     vdW  Elec       q    Type
REMARK                         _______ _______ _______ _____ _____    ______ ____
ROOT
ATOM      1  S   UNL     1       8.810  -3.891  24.913  0.00  0.00    +0.059 S 
ATOM      2  O   UNL     1       8.291  -2.797  25.705  0.00  0.00    -0.153 OA
ATOM      3  O   UNL     1       9.570  -4.959  25.527  0.00  0.00    -0.153 OA
ENDROOT
BRANCH   1   4
ATOM      4  C   UNL     1       7.481  -4.597  23.961  0.00  0.00    +0.113 A 
ATOM      5  C   UNL     1       6.451  -5.358  24.579  0.00  0.00    +0.011 A 
ATOM      6  C   UNL     1       6.263  -5.529  25.970  0.00  0.00    +0.030 A 
ATOM      7  C   UNL     1       5.232  -6.331  26.436  0.00  0.00    +0.111 A 
ATOM      8  N   UNL     1       4.373  -6.985  25.634  0.00  0.00    -0.263 NA
ATOM      9  C   UNL     1       4.547  -6.813  24.305  0.00  0.00    +0.119 A 
ATOM     10  C   UNL     1       5.543  -6.025  23.724  0.00  0.00    +0.002 A 
ATOM     11  C   UNL     1       5.652  -5.908  22.327  0.00  0.00    +0.010 A 
ATOM     12  C   UNL     1       6.652  -5.131  21.750  0.00  0.00    +0.003 A 
ATOM     13  C   UNL     1       7.567  -4.475  22.564  0.00  0.00    +0.029 A 
ENDBRANCH   1   4
BRANCH   1  14
ATOM     14  N   UNL     1       9.802  -3.169  23.730  0.00  0.00    -0.189 NA
ATOM     15  H   UNL     1      10.757  -3.495  23.908  0.00  0.00    +0.148 HD
BRANCH  14  16
ATOM     16  C   UNL     1       9.736  -1.686  23.675  0.00  0.00    +0.121 C 
BRANCH  16  17
ATOM     17  C   UNL     1       8.942  -1.224  22.442  0.00  0.00    +0.097 C 
BRANCH  17  19
ATOM     18  C   UNL     1       9.807   0.939  21.801  0.00  0.00    +0.101 C 
ATOM     19  N   UNL     1       9.827  -0.492  21.531  0.00  0.00    -0.318 NA
ATOM     20  H   UNL     1      10.784  -0.832  21.642  0.00  0.00    +0.122 HD
ENDBRANCH  17  19
ENDBRANCH  16  17
ENDBRANCH  14  16
ENDBRANCH   1  14
TORSDOF 5
ENDMDL
MODEL 3
REMARK VINA RESULT:      -5.5      1.526      2.716
REMARK  Name = 
REMARK  6 active torsions:
REMARK  status: ('A' for Active; 'I' for Inactive)
REMARK    1  A    between atoms: C_1  and  N_2
REMARK    2  A    between atoms: N_2  and  C_3
REMARK    3  A    between atoms: C_3  and  C_4
REMARK    4  A    between atoms: C_4  and  N_5
REMARK    5  A    between atoms: N_5  and  S_6
REMARK    6  A    between atoms: S_6  and  C_9
REMARK                            x       y       z     vdW  Elec       q    Type
REMARK                         _______ _______ _______ _____ _____    ______ ____
ROOT
ATOM      1  S   UNL     1       9.591  -1.618  23.603  0.00  0.00    +0.059 S 
ATOM      2  O   UNL     1      10.126  -0.755  24.635  0.00  0.00    -0.153 OA
ATOM      3  O   UNL     1      10.469  -2.325  22.697  0.00  0.00    -0.153 OA
ENDROOT
BRANCH   1   4
ATOM      4  C   UNL     1       8.466  -2.780  24.349  0.00  0.00    +0.113 A 
ATOM      5  C   UNL     1       7.393  -3.350  23.610  0.00  0.00    +0.011 A 
ATOM      6  C   UNL     1       7.168  -3.201  22.222  0.00  0.00    +0.030 A 
ATOM      7  C   UNL     1       6.057  -3.788  21.635  0.00  0.00    +0.111 A 
ATOM      8  N   UNL     1       5.144  -4.505  22.314  0.00  0.00    -0.263 NA
ATOM      9  C   UNL     1       5.366  -4.656  23.637  0.00  0.00    +0.119 A 
ATOM     10  C   UNL     1       6.452  -4.119  24.332  0.00  0.00    +0.002 A 
ATOM     11  C   UNL     1       6.600  -4.323  25.716  0.00  0.00    +0.010 A 
ATOM     12  C   UNL     1       7.677  -3.778  26.408  0.00  0.00    +0.003 A 
ATOM     13  C   UNL     1       8.611  -3.006  25.728  0.00  0.00    +0.029 A 
ENDBRANCH   1   4
BRANCH   1  14
ATOM     14  N   UNL     1       8.570  -0.629  22.663  0.00  0.00    -0.189 NA
ATOM     15  H   UNL     1       7.795  -1.221  22.350  0.00  0.00    +0.148 HD
BRANCH  14  16
ATOM     16  C   UNL     1       9.232   0.051  21.520  0.00  0.00    +0.121 C 
BRANCH  16  17
ATOM     17  C   UNL     1       8.973   1.565  21.565  0.00  0.00    +0.097 C 
BRANCH  17  19
ATOM     18  C   UNL     1      10.375   2.678  23.187  0.00  0.00    +0.101 C 
ATOM     19  N   UNL     1      10.235   2.275  21.795  0.00  0.00    -0.318 NA
ATOM     20  H   UNL     1      11.017   1.664  21.551  0.00  0.00    +0.122 HD
ENDBRANCH  17  19
ENDBRANCH  16  17
ENDBRANCH  14  16
ENDBRANCH   1  14
TORSDOF 5
ENDMDL
MODEL 4
REMARK VINA RESULT:      -5.5      1.317      1.511
REMARK  Name = 
REMARK  6 active torsions:
REMARK  status: ('A' for Active; 'I' for Inactive)
REMARK    1  A    between atoms: C_1  and  N_2
REMARK    2  A    between atoms: N_2  and  C_3
REMARK    3  A    between atoms: C_3  and  C_4
REMARK    4  A    between atoms: C_4  and  N_5
REMARK    5  A    between atoms: N_5  and  S_6
REMARK    6  A    between atoms: S_6  and  C_9
REMARK                            x       y       z     vdW  Elec       q    Type
REMARK                         _______ _______ _______ _____ _____    ______ ____
ROOT
ATOM      1  S   UNL     1       9.005  -2.361  23.287  0.00  0.00    +0.059 S 
ATOM      2  O   UNL     1      10.147  -3.021  23.883  0.00  0.00    -0.153 OA
ATOM      3  O   UNL     1       9.077  -1.810  21.951  0.00  0.00    -0.153 OA
ENDROOT
BRANCH   1   4
ATOM      4  C   UNL     1       7.594  -3.442  23.395  0.00  0.00    +0.113 A 
ATOM      5  C   UNL     1       7.325  -4.193  24.573  0.00  0.00    +0.011 A 
ATOM      6  C   UNL     1       8.012  -4.083  25.805  0.00  0.00    +0.030 A 
ATOM      7  C   UNL     1       7.665  -4.906  26.866  0.00  0.00    +0.111 A 
ATOM      8  N   UNL     1       6.696  -5.836  26.804  0.00  0.00    -0.263 NA
ATOM      9  C   UNL     1       6.033  -5.933  25.631  0.00  0.00    +0.119 A 
ATOM     10  C   UNL     1       6.290  -5.154  24.501  0.00  0.00    +0.002 A 
ATOM     11  C   UNL     1       5.552  -5.329  23.317  0.00  0.00    +0.010 A 
ATOM     12  C   UNL     1       5.817  -4.559  22.189  0.00  0.00    +0.003 A 
ATOM     13  C   UNL     1       6.836  -3.616  22.225  0.00  0.00    +0.029 A 
ENDBRANCH   1   4
BRANCH   1  14
ATOM     14  N   UNL     1       8.608  -1.088  24.348  0.00  0.00    -0.189 NA
ATOM     15  H   UNL     1       8.025  -0.434  23.817  0.00  0.00    +0.148 HD
BRANCH  14  16
ATOM     16  C   UNL     1       9.771  -0.399  24.966  0.00  0.00    +0.121 C 
BRANCH  16  17
ATOM     17  C   UNL     1       9.961   0.998  24.356  0.00  0.00    +0.097 C 
BRANCH  17  19
ATOM     18  C   UNL     1       9.651   1.715  22.070  0.00  0.00    +0.101 C 
ATOM     19  N   UNL     1      10.425   0.872  22.971  0.00  0.00    -0.318 NA
ATOM     20  H   UNL     1      11.407   1.149  22.915  0.00  0.00    +0.122 HD
ENDBRANCH  17  19
ENDBRANCH  16  17
ENDBRANCH  14  16
ENDBRANCH   1  14
TORSDOF 5
ENDMDL
MODEL 5
REMARK VINA RESULT:      -5.4      2.188      3.463
REMARK  Name = 
REMARK  6 active torsions:
REMARK  status: ('A' for Active; 'I' for Inactive)
REMARK    1  A    between atoms: C_1  and  N_2
REMARK    2  A    between atoms: N_2  and  C_3
REMARK    3  A    between atoms: C_3  and  C_4
REMARK    4  A    between atoms: C_4  and  N_5
REMARK    5  A    between atoms: N_5  and  S_6
REMARK    6  A    between atoms: S_6  and  C_9
REMARK                            x       y       z     vdW  Elec       q    Type
REMARK                         _______ _______ _______ _____ _____    ______ ____
ROOT
ATOM      1  S   UNL     1       8.718  -4.025  25.569  0.00  0.00    +0.059 S 
ATOM      2  O   UNL     1       9.021  -4.058  26.983  0.00  0.00    -0.153 OA
ATOM      3  O   UNL     1       9.730  -4.338  24.583  0.00  0.00    -0.153 OA
ENDROOT
BRANCH   1   4
ATOM      4  C   UNL     1       7.279  -5.029  25.264  0.00  0.00    +0.113 A 
ATOM      5  C   UNL     1       6.740  -5.173  23.956  0.00  0.00    +0.011 A 
ATOM      6  C   UNL     1       7.320  -4.690  22.759  0.00  0.00    +0.030 A 
ATOM      7  C   UNL     1       6.665  -4.872  21.551  0.00  0.00    +0.111 A 
ATOM      8  N   UNL     1       5.476  -5.488  21.431  0.00  0.00    -0.263 NA
ATOM      9  C   UNL     1       4.927  -5.958  22.572  0.00  0.00    +0.119 A 
ATOM     10  C   UNL     1       5.498  -5.839  23.841  0.00  0.00    +0.002 A 
ATOM     11  C   UNL     1       4.851  -6.355  24.978  0.00  0.00    +0.010 A 
ATOM     12  C   UNL     1       5.417  -6.226  26.243  0.00  0.00    +0.003 A 
ATOM     13  C   UNL     1       6.629  -5.564  26.389  0.00  0.00    +0.029 A 
ENDBRANCH   1   4
BRANCH   1  14
ATOM     14  N   UNL     1       8.168  -2.442  25.256  0.00  0.00    -0.189 NA
ATOM     15  H   UNL     1       7.758  -2.454  24.317  0.00  0.00    +0.148 HD
BRANCH  14  16
ATOM     16  C   UNL     1       9.200  -1.381  25.385  0.00  0.00    +0.121 C 
BRANCH  16  17
ATOM     17  C   UNL     1       9.435  -0.686  24.035  0.00  0.00    +0.097 C 
BRANCH  17  19
ATOM     18  C   UNL     1       9.297  -1.345  21.715  0.00  0.00    +0.101 C 
ATOM     19  N   UNL     1       9.826  -1.680  23.030  0.00  0.00    -0.318 NA
ATOM     20  H   UNL     1      10.844  -1.721  22.972  0.00  0.00    +0.122 HD
ENDBRANCH  17  19
ENDBRANCH  16  17
ENDBRANCH  14  16
ENDBRANCH   1  14
TORSDOF 5
ENDMDL
MODEL 6
REMARK VINA RESULT:      -5.3      3.154      6.959
REMARK  Name = 
REMARK  6 active torsions:
REMARK  status: ('A' for Active; 'I' for Inactive)
REMARK    1  A    between atoms: C_1  and  N_2
REMARK    2  A    between atoms: N_2  and  C_3
REMARK    3  A    between atoms: C_3  and  C_4
REMARK    4  A    between atoms: C_4  and  N_5
REMARK    5  A    between atoms: N_5  and  S_6
REMARK    6  A    between atoms: S_6  and  C_9
REMARK                            x       y       z     vdW  Elec       q    Type
REMARK                         _______ _______ _______ _____ _____    ______ ____
ROOT
ATOM      1  S   UNL     1       5.403  -5.455  22.768  0.00  0.00    +0.059 S 
ATOM      2  O   UNL     1       4.383  -4.438  22.628  0.00  0.00    -0.153 OA
ATOM      3  O   UNL     1       6.082  -5.991  21.608  0.00  0.00    -0.153 OA
ENDROOT
BRANCH   1   4
ATOM      4  C   UNL     1       6.616  -4.897  23.946  0.00  0.00    +0.113 A 
ATOM      5  C   UNL     1       7.571  -3.898  23.609  0.00  0.00    +0.011 A 
ATOM      6  C   UNL     1       7.599  -3.144  22.413  0.00  0.00    +0.030 A 
ATOM      7  C   UNL     1       8.613  -2.222  22.200  0.00  0.00    +0.111 A 
ATOM      8  N   UNL     1       9.609  -1.992  23.074  0.00  0.00    -0.263 NA
ATOM      9  C   UNL     1       9.576  -2.705  24.220  0.00  0.00    +0.119 A 
ATOM     10  C   UNL     1       8.602  -3.651  24.545  0.00  0.00    +0.002 A 
ATOM     11  C   UNL     1       8.650  -4.353  25.763  0.00  0.00    +0.010 A 
ATOM     12  C   UNL     1       7.684  -5.304  26.080  0.00  0.00    +0.003 A 
ATOM     13  C   UNL     1       6.668  -5.578  25.174  0.00  0.00    +0.029 A 
ENDBRANCH   1   4
BRANCH   1  14
ATOM     14  N   UNL     1       4.646  -6.755  23.567  0.00  0.00    -0.189 NA
ATOM     15  H   UNL     1       4.783  -7.582  22.978  0.00  0.00    +0.148 HD
BRANCH  14  16
ATOM     16  C   UNL     1       3.209  -6.547  23.886  0.00  0.00    +0.121 C 
BRANCH  16  17
ATOM     17  C   UNL     1       2.486  -7.894  24.038  0.00  0.00    +0.097 C 
BRANCH  17  19
ATOM     18  C   UNL     1       2.097  -7.497  26.389  0.00  0.00    +0.101 C 
ATOM     19  N   UNL     1       2.670  -8.401  25.401  0.00  0.00    -0.318 NA
ATOM     20  H   UNL     1       2.215  -9.311  25.489  0.00  0.00    +0.122 HD
ENDBRANCH  17  19
ENDBRANCH  16  17
ENDBRANCH  14  16
ENDBRANCH   1  14
TORSDOF 5
ENDMDL
MODEL 7
REMARK VINA RESULT:      -5.3      2.084      3.129
REMARK  Name = 
REMARK  6 active torsions:
REMARK  status: ('A' for Active; 'I' for Inactive)
REMARK    1  A    between atoms: C_1  and  N_2
REMARK    2  A    between atoms: N_2  and  C_3
REMARK    3  A    between atoms: C_3  and  C_4
REMARK    4  A    between atoms: C_4  and  N_5
REMARK    5  A    between atoms: N_5  and  S_6
REMARK    6  A    between atoms: S_6  and  C_9
REMARK                            x       y       z     vdW  Elec       q    Type
REMARK                         _______ _______ _______ _____ _____    ______ ____
ROOT
ATOM      1  S   UNL     1       9.209  -1.906  23.519  0.00  0.00    +0.059 S 
ATOM      2  O   UNL     1      10.412  -2.492  22.969  0.00  0.00    -0.153 OA
ATOM      3  O   UNL     1       8.298  -1.154  22.684  0.00  0.00    -0.153 OA
ENDROOT
BRANCH   1   4
ATOM      4  C   UNL     1       8.298  -3.167  24.386  0.00  0.00    +0.113 A 
ATOM      5  C   UNL     1       7.425  -4.055  23.698  0.00  0.00    +0.011 A 
ATOM      6  C   UNL     1       7.277  -4.155  22.295  0.00  0.00    +0.030 A 
ATOM      7  C   UNL     1       6.359  -5.045  21.758  0.00  0.00    +0.111 A 
ATOM      8  N   UNL     1       5.568  -5.840  22.499  0.00  0.00    -0.263 NA
ATOM      9  C   UNL     1       5.717  -5.752  23.838  0.00  0.00    +0.119 A 
ATOM     10  C   UNL     1       6.612  -4.900  24.488  0.00  0.00    +0.002 A 
ATOM     11  C   UNL     1       6.696  -4.870  25.892  0.00  0.00    +0.010 A 
ATOM     12  C   UNL     1       7.582  -4.012  26.538  0.00  0.00    +0.003 A 
ATOM     13  C   UNL     1       8.383  -3.161  25.788  0.00  0.00    +0.029 A 
ENDBRANCH   1   4
BRANCH   1  14
ATOM     14  N   UNL     1       9.734  -0.871  24.768  0.00  0.00    -0.189 NA
ATOM     15  H   UNL     1       8.891  -0.527  25.238  0.00  0.00    +0.148 HD
BRANCH  14  16
ATOM     16  C   UNL     1      10.607   0.248  24.331  0.00  0.00    +0.121 C 
BRANCH  16  17
ATOM     17  C   UNL     1       9.866   1.590  24.441  0.00  0.00    +0.097 C 
BRANCH  17  19
ATOM     18  C   UNL     1       7.729   2.451  25.166  0.00  0.00    +0.101 C 
ATOM     19  N   UNL     1       8.779   1.474  25.418  0.00  0.00    -0.318 NA
ATOM     20  H   UNL     1       8.374   0.538  25.365  0.00  0.00    +0.122 HD
ENDBRANCH  17  19
ENDBRANCH  16  17
ENDBRANCH  14  16
ENDBRANCH   1  14
TORSDOF 5
ENDMDL
MODEL 8
REMARK VINA RESULT:      -5.2      2.214      2.824
REMARK  Name = 
REMARK  6 active torsions:
REMARK  status: ('A' for Active; 'I' for Inactive)
REMARK    1  A    between atoms: C_1  and  N_2
REMARK    2  A    between atoms: N_2  and  C_3
REMARK    3  A    between atoms: C_3  and  C_4
REMARK    4  A    between atoms: C_4  and  N_5
REMARK    5  A    between atoms: N_5  and  S_6
REMARK    6  A    between atoms: S_6  and  C_9
REMARK                            x       y       z     vdW  Elec       q    Type
REMARK                         _______ _______ _______ _____ _____    ______ ____
ROOT
ATOM      1  S   UNL     1       9.145  -2.379  23.825  0.00  0.00    +0.059 S 
ATOM      2  O   UNL     1       9.941  -3.514  24.240  0.00  0.00    -0.153 OA
ATOM      3  O   UNL     1       9.275  -1.826  22.494  0.00  0.00    -0.153 OA
ENDROOT
BRANCH   1   4
ATOM      4  C   UNL     1       7.428  -2.729  24.145  0.00  0.00    +0.113 A 
ATOM      5  C   UNL     1       6.733  -3.740  23.425  0.00  0.00    +0.011 A 
ATOM      6  C   UNL     1       7.306  -4.656  22.513  0.00  0.00    +0.030 A 
ATOM      7  C   UNL     1       6.501  -5.571  21.853  0.00  0.00    +0.111 A 
ATOM      8  N   UNL     1       5.168  -5.648  22.016  0.00  0.00    -0.263 NA
ATOM      9  C   UNL     1       4.622  -4.779  22.895  0.00  0.00    +0.119 A 
ATOM     10  C   UNL     1       5.335  -3.823  23.620  0.00  0.00    +0.002 A 
ATOM     11  C   UNL     1       4.681  -2.953  24.512  0.00  0.00    +0.010 A 
ATOM     12  C   UNL     1       5.392  -1.993  25.226  0.00  0.00    +0.003 A 
ATOM     13  C   UNL     1       6.764  -1.879  25.045  0.00  0.00    +0.029 A 
ENDBRANCH   1   4
BRANCH   1  14
ATOM     14  N   UNL     1       9.507  -1.136  24.935  0.00  0.00    -0.189 NA
ATOM     15  H   UNL     1       8.610  -0.751  25.246  0.00  0.00    +0.148 HD
BRANCH  14  16
ATOM     16  C   UNL     1      10.405  -0.072  24.416  0.00  0.00    +0.121 C 
BRANCH  16  17
ATOM     17  C   UNL     1       9.660   1.269  24.323  0.00  0.00    +0.097 C 
BRANCH  17  19
ATOM     18  C   UNL     1      10.022   1.881  22.014  0.00  0.00    +0.101 C 
ATOM     19  N   UNL     1      10.367   2.163  23.401  0.00  0.00    -0.318 NA
ATOM     20  H   UNL     1      10.119   3.131  23.609  0.00  0.00    +0.122 HD
ENDBRANCH  17  19
ENDBRANCH  16  17
ENDBRANCH  14  16
ENDBRANCH   1  14
TORSDOF 5
ENDMDL
MODEL 9
REMARK VINA RESULT:      -5.1      2.481      6.707
REMARK  Name = 
REMARK  6 active torsions:
REMARK  status: ('A' for Active; 'I' for Inactive)
REMARK    1  A    between atoms: C_1  and  N_2
REMARK    2  A    between atoms: N_2  and  C_3
REMARK    3  A    between atoms: C_3  and  C_4
REMARK    4  A    between atoms: C_4  and  N_5
REMARK    5  A    between atoms: N_5  and  S_6
REMARK    6  A    between atoms: S_6  and  C_9
REMARK                            x       y       z     vdW  Elec       q    Type
REMARK                         _______ _______ _______ _____ _____    ______ ____
ROOT
ATOM      1  S   UNL     1       7.212  -1.929  23.575  0.00  0.00    +0.059 S 
ATOM      2  O   UNL     1       5.899  -1.682  24.130  0.00  0.00    -0.153 OA
ATOM      3  O   UNL     1       7.377  -2.266  22.177  0.00  0.00    -0.153 OA
ENDROOT
BRANCH   1   4
ATOM      4  C   UNL     1       8.275  -0.556  23.972  0.00  0.00    +0.113 A 
ATOM      5  C   UNL     1       8.055   0.735  23.417  0.00  0.00    +0.011 A 
ATOM      6  C   UNL     1       6.942   1.126  22.636  0.00  0.00    +0.030 A 
ATOM      7  C   UNL     1       6.873   2.415  22.128  0.00  0.00    +0.111 A 
ATOM      8  N   UNL     1       7.821   3.347  22.325  0.00  0.00    -0.263 NA
ATOM      9  C   UNL     1       8.878   2.976  23.079  0.00  0.00    +0.119 A 
ATOM     10  C   UNL     1       9.050   1.712  23.647  0.00  0.00    +0.002 A 
ATOM     11  C   UNL     1      10.189   1.412  24.417  0.00  0.00    +0.010 A 
ATOM     12  C   UNL     1      10.363   0.148  24.973  0.00  0.00    +0.003 A 
ATOM     13  C   UNL     1       9.409  -0.837  24.752  0.00  0.00    +0.029 A 
ENDBRANCH   1   4
BRANCH   1  14
ATOM     14  N   UNL     1       7.863  -3.210  24.493  0.00  0.00    -0.189 NA
ATOM     15  H   UNL     1       8.815  -2.932  24.749  0.00  0.00    +0.148 HD
BRANCH  14  16
ATOM     16  C   UNL     1       7.845  -4.536  23.822  0.00  0.00    +0.121 C 
BRANCH  16  17
ATOM     17  C   UNL     1       6.490  -5.231  24.030  0.00  0.00    +0.097 C 
BRANCH  17  19
ATOM     18  C   UNL     1       7.095  -5.778  21.756  0.00  0.00    +0.101 C 
ATOM     19  N   UNL     1       6.055  -5.849  22.774  0.00  0.00    -0.318 NA
ATOM     20  H   UNL     1       5.827  -6.830  22.940  0.00  0.00    +0.122 HD
ENDBRANCH  17  19
ENDBRANCH  16  17
ENDBRANCH  14  16
ENDBRANCH   1  14
TORSDOF 5
ENDMDL
