MODEL 1
REMARK VINA RESULT:      -6.6      0.000      0.000
REMARK  Name = 
REMARK  6 active torsions:
REMARK  status: ('A' for Active; 'I' for Inactive)
REMARK    1  A    between atoms: C_1  and  C_2
REMARK    2  A    between atoms: C_2  and  C_3
REMARK    3  A    between atoms: C_2  and  C_6
REMARK    4  A    between atoms: C_3  and  O_4
REMARK    5  A    between atoms: C_8  and  C_12
REMARK    6  A    between atoms: C_12  and  C_14
REMARK                            x       y       z     vdW  Elec       q    Type
REMARK                         _______ _______ _______ _____ _____    ______ ____
ROOT
ATOM      1  C   UNL     1       7.510  -3.557  25.293  0.00  0.00    -0.033 A 
ATOM      2  C   UNL     1       6.518  -3.861  24.347  0.00  0.00    +0.004 A 
ATOM      3  C   UNL     1       6.683  -3.523  23.002  0.00  0.00    +0.001 A 
ATOM      4  C   UNL     1       7.825  -2.841  22.587  0.00  0.00    +0.012 A 
ATOM      5  C   UNL     1       8.817  -2.516  23.518  0.00  0.00    +0.023 A 
ATOM      6  C   UNL     1       8.689  -2.936  24.851  0.00  0.00    +0.016 A 
ENDROOT
BRANCH   1   8
ATOM      7  C   UNL     1       5.855  -3.555  27.176  0.00  0.00    +0.024 C 
ATOM      8  C   UNL     1       7.282  -3.902  26.758  0.00  0.00    +0.124 C 
BRANCH   8   9
ATOM      9  C   UNL     1       7.627  -5.349  27.120  0.00  0.00    +0.312 C 
ATOM     10  O   UNL     1       7.146  -5.970  28.053  0.00  0.00    -0.250 OA
BRANCH   9  11
ATOM     11  O   UNL     1       8.574  -5.897  26.317  0.00  0.00    -0.480 OA
ATOM     12  H   UNL     1       8.869  -6.781  26.611  0.00  0.00    +0.295 HD
ENDBRANCH   9  11
ENDBRANCH   8   9
ENDBRANCH   1   8
BRANCH   5  13
ATOM     13  C   UNL     1       9.963  -1.683  23.066  0.00  0.00    +0.193 C 
ATOM     14  O   UNL     1      10.950  -2.238  22.590  0.00  0.00    -0.287 OA
BRANCH  13  15
ATOM     15  C   UNL     1       9.907  -0.193  23.130  0.00  0.00    +0.022 A 
ATOM     16  C   UNL     1       9.809   0.529  21.936  0.00  0.00    +0.012 A 
ATOM     17  C   UNL     1       9.751   1.925  21.964  0.00  0.00    +0.001 A 
ATOM     18  C   UNL     1       9.794   2.604  23.182  0.00  0.00    +0.000 A 
ATOM     19  C   UNL     1       9.874   1.891  24.374  0.00  0.00    +0.001 A 
ATOM     20  C   UNL     1       9.908   0.498  24.350  0.00  0.00    +0.012 A 
ENDBRANCH  13  15
ENDBRANCH   5  13
TORSDOF 5
ENDMDL
MODEL 2
REMARK VINA RESULT:      -6.6      2.343      3.141
REMARK  Name = 
REMARK  6 active torsions:
REMARK  status: ('A' for Active; 'I' for Inactive)
REMARK    1  A    between atoms: C_1  and  C_2
REMARK    2  A    between atoms: C_2  and  C_3
REMARK    3  A    between atoms: C_2  and  C_6
REMARK    4  A    between atoms: C_3  and  O_4
REMARK    5  A    between atoms: C_8  and  C_12
REMARK    6  A    between atoms: C_12  and  C_14
REMARK                            x       y       z     vdW  Elec       q    Type
REMARK                         _______ _______ _______ _____ _____    ______ ____
ROOT
ATOM      1  C   UNL     1       6.150  -4.039  22.917  0.00  0.00    -0.033 A 
ATOM      2  C   UNL     1       5.260  -3.348  23.755  0.00  0.00    +0.004 A 
ATOM      3  C   UNL     1       5.677  -2.225  24.473  0.00  0.00    +0.001 A 
ATOM      4  C   UNL     1       7.001  -1.799  24.397  0.00  0.00    +0.012 A 
ATOM      5  C   UNL     1       7.906  -2.483  23.580  0.00  0.00    +0.023 A 
ATOM      6  C   UNL     1       7.462  -3.555  22.791  0.00  0.00    +0.016 A 
ENDROOT
BRANCH   1   8
ATOM      7  C   UNL     1       6.842  -6.234  21.924  0.00  0.00    +0.024 C 
ATOM      8  C   UNL     1       5.675  -5.283  22.179  0.00  0.00    +0.124 C 
BRANCH   8   9
ATOM      9  C   UNL     1       4.511  -6.006  22.860  0.00  0.00    +0.312 C 
ATOM     10  O   UNL     1       3.336  -5.691  22.758  0.00  0.00    -0.250 OA
BRANCH   9  11
ATOM     11  O   UNL     1       4.901  -7.040  23.647  0.00  0.00    -0.480 OA
ATOM     12  H   UNL     1       4.716  -6.897  24.596  0.00  0.00    +0.295 HD
ENDBRANCH   9  11
ENDBRANCH   8   9
ENDBRANCH   1   8
BRANCH   5  13
ATOM     13  C   UNL     1       9.336  -2.077  23.615  0.00  0.00    +0.193 C 
ATOM     14  O   UNL     1      10.196  -2.938  23.777  0.00  0.00    -0.287 OA
BRANCH  13  15
ATOM     15  C   UNL     1       9.740  -0.656  23.399  0.00  0.00    +0.022 A 
ATOM     16  C   UNL     1       9.528  -0.079  22.142  0.00  0.00    +0.012 A 
ATOM     17  C   UNL     1       9.892   1.251  21.911  0.00  0.00    +0.001 A 
ATOM     18  C   UNL     1      10.470   2.007  22.932  0.00  0.00    +0.000 A 
ATOM     19  C   UNL     1      10.668   1.444  24.188  0.00  0.00    +0.001 A 
ATOM     20  C   UNL     1      10.284   0.126  24.428  0.00  0.00    +0.012 A 
ENDBRANCH  13  15
ENDBRANCH   5  13
TORSDOF 5
ENDMDL
MODEL 3
REMARK VINA RESULT:      -6.5      2.047      3.267
REMARK  Name = 
REMARK  6 active torsions:
REMARK  status: ('A' for Active; 'I' for Inactive)
REMARK    1  A    between atoms: C_1  and  C_2
REMARK    2  A    between atoms: C_2  and  C_3
REMARK    3  A    between atoms: C_2  and  C_6
REMARK    4  A    between atoms: C_3  and  O_4
REMARK    5  A    between atoms: C_8  and  C_12
REMARK    6  A    between atoms: C_12  and  C_14
REMARK                            x       y       z     vdW  Elec       q    Type
REMARK                         _______ _______ _______ _____ _____    ______ ____
ROOT
ATOM      1  C   UNL     1       7.042  -4.100  23.086  0.00  0.00    -0.033 A 
ATOM      2  C   UNL     1       6.995  -4.429  24.450  0.00  0.00    +0.004 A 
ATOM      3  C   UNL     1       7.862  -3.826  25.364  0.00  0.00    +0.001 A 
ATOM      4  C   UNL     1       8.818  -2.915  24.922  0.00  0.00    +0.012 A 
ATOM      5  C   UNL     1       8.892  -2.586  23.565  0.00  0.00    +0.023 A 
ATOM      6  C   UNL     1       7.961  -3.125  22.664  0.00  0.00    +0.016 A 
ENDROOT
BRANCH   1   8
ATOM      7  C   UNL     1       6.846  -5.925  21.378  0.00  0.00    +0.024 C 
ATOM      8  C   UNL     1       6.110  -4.805  22.109  0.00  0.00    +0.124 C 
BRANCH   8   9
ATOM      9  C   UNL     1       4.814  -5.315  22.742  0.00  0.00    +0.312 C 
ATOM     10  O   UNL     1       3.829  -4.631  22.967  0.00  0.00    -0.250 OA
BRANCH   9  11
ATOM     11  O   UNL     1       4.858  -6.628  23.084  0.00  0.00    -0.480 OA
ATOM     12  H   UNL     1       5.662  -7.084  22.768  0.00  0.00    +0.295 HD
ENDBRANCH   9  11
ENDBRANCH   8   9
ENDBRANCH   1   8
BRANCH   5  13
ATOM     13  C   UNL     1      10.000  -1.704  23.111  0.00  0.00    +0.193 C 
ATOM     14  O   UNL     1      11.024  -2.216  22.665  0.00  0.00    -0.287 OA
BRANCH  13  15
ATOM     15  C   UNL     1       9.864  -0.218  23.137  0.00  0.00    +0.022 A 
ATOM     16  C   UNL     1       9.826   0.433  24.375  0.00  0.00    +0.012 A 
ATOM     17  C   UNL     1       9.703   1.824  24.432  0.00  0.00    +0.001 A 
ATOM     18  C   UNL     1       9.613   2.568  23.254  0.00  0.00    +0.000 A 
ATOM     19  C   UNL     1       9.667   1.928  22.020  0.00  0.00    +0.001 A 
ATOM     20  C   UNL     1       9.814   0.543  21.961  0.00  0.00    +0.012 A 
ENDBRANCH  13  15
ENDBRANCH   5  13
TORSDOF 5
ENDMDL
MODEL 4
REMARK VINA RESULT:      -6.4      2.182      6.663
REMARK  Name = 
REMARK  6 active torsions:
REMARK  status: ('A' for Active; 'I' for Inactive)
REMARK    1  A    between atoms: C_1  and  C_2
REMARK    2  A    between atoms: C_2  and  C_3
REMARK    3  A    between atoms: C_2  and  C_6
REMARK    4  A    between atoms: C_3  and  O_4
REMARK    5  A    between atoms: C_8  and  C_12
REMARK    6  A    between atoms: C_12  and  C_14
REMARK                            x       y       z     vdW  Elec       q    Type
REMARK                         _______ _______ _______ _____ _____    ______ ____
ROOT
ATOM      1  C   UNL     1       9.635  -0.607  23.601  0.00  0.00    -0.033 A 
ATOM      2  C   UNL     1       9.117   0.039  24.735  0.00  0.00    +0.004 A 
ATOM      3  C   UNL     1       8.644  -0.695  25.825  0.00  0.00    +0.001 A 
ATOM      4  C   UNL     1       8.645  -2.088  25.782  0.00  0.00    +0.012 A 
ATOM      5  C   UNL     1       9.143  -2.749  24.655  0.00  0.00    +0.023 A 
ATOM      6  C   UNL     1       9.700  -2.009  23.601  0.00  0.00    +0.016 A 
ENDROOT
BRANCH   1   8
ATOM      7  C   UNL     1       9.301  -0.128  21.163  0.00  0.00    +0.024 C 
ATOM      8  C   UNL     1      10.106   0.222  22.413  0.00  0.00    +0.124 C 
BRANCH   8   9
ATOM      9  C   UNL     1      10.107   1.731  22.666  0.00  0.00    +0.312 C 
ATOM     10  O   UNL     1      10.724   2.290  23.559  0.00  0.00    -0.250 OA
BRANCH   9  11
ATOM     11  O   UNL     1       9.308   2.424  21.816  0.00  0.00    -0.480 OA
ATOM     12  H   UNL     1       8.417   2.035  21.716  0.00  0.00    +0.295 HD
ENDBRANCH   9  11
ENDBRANCH   8   9
ENDBRANCH   1   8
BRANCH   5  13
ATOM     13  C   UNL     1       9.018  -4.230  24.592  0.00  0.00    +0.193 C 
ATOM     14  O   UNL     1       9.963  -4.923  24.960  0.00  0.00    -0.287 OA
BRANCH  13  15
ATOM     15  C   UNL     1       7.750  -4.879  24.145  0.00  0.00    +0.022 A 
ATOM     16  C   UNL     1       6.745  -5.114  25.090  0.00  0.00    +0.012 A 
ATOM     17  C   UNL     1       5.545  -5.716  24.701  0.00  0.00    +0.001 A 
ATOM     18  C   UNL     1       5.347  -6.089  23.371  0.00  0.00    +0.000 A 
ATOM     19  C   UNL     1       6.336  -5.842  22.424  0.00  0.00    +0.001 A 
ATOM     20  C   UNL     1       7.523  -5.220  22.805  0.00  0.00    +0.012 A 
ENDBRANCH  13  15
ENDBRANCH   5  13
TORSDOF 5
ENDMDL
MODEL 5
REMARK VINA RESULT:      -6.2      2.689      3.811
REMARK  Name = 
REMARK  6 active torsions:
REMARK  status: ('A' for Active; 'I' for Inactive)
REMARK    1  A    between atoms: C_1  and  C_2
REMARK    2  A    between atoms: C_2  and  C_3
REMARK    3  A    between atoms: C_2  and  C_6
REMARK    4  A    between atoms: C_3  and  O_4
REMARK    5  A    between atoms: C_8  and  C_12
REMARK    6  A    between atoms: C_12  and  C_14
REMARK                            x       y       z     vdW  Elec       q    Type
REMARK                         _______ _______ _______ _____ _____    ______ ____
ROOT
ATOM      1  C   UNL     1       5.193  -5.614  23.929  0.00  0.00    -0.033 A 
ATOM      2  C   UNL     1       5.196  -5.663  22.527  0.00  0.00    +0.004 A 
ATOM      3  C   UNL     1       6.365  -5.419  21.803  0.00  0.00    +0.001 A 
ATOM      4  C   UNL     1       7.541  -5.082  22.468  0.00  0.00    +0.012 A 
ATOM      5  C   UNL     1       7.555  -5.012  23.865  0.00  0.00    +0.023 A 
ATOM      6  C   UNL     1       6.402  -5.346  24.592  0.00  0.00    +0.016 A 
ENDROOT
BRANCH   1   8
ATOM      7  C   UNL     1       2.694  -5.438  23.835  0.00  0.00    +0.024 C 
ATOM      8  C   UNL     1       3.893  -5.846  24.688  0.00  0.00    +0.124 C 
BRANCH   8   9
ATOM      9  C   UNL     1       3.730  -7.269  25.226  0.00  0.00    +0.312 C 
ATOM     10  O   UNL     1       3.253  -8.203  24.602  0.00  0.00    -0.250 OA
BRANCH   9  11
ATOM     11  O   UNL     1       4.136  -7.411  26.513  0.00  0.00    -0.480 OA
ATOM     12  H   UNL     1       5.083  -7.637  26.599  0.00  0.00    +0.295 HD
ENDBRANCH   9  11
ENDBRANCH   8   9
ENDBRANCH   1   8
BRANCH   5  13
ATOM     13  C   UNL     1       8.792  -4.533  24.536  0.00  0.00    +0.193 C 
ATOM     14  O   UNL     1       9.674  -5.343  24.808  0.00  0.00    -0.287 OA
BRANCH  13  15
ATOM     15  C   UNL     1       8.998  -3.084  24.831  0.00  0.00    +0.022 A 
ATOM     16  C   UNL     1       9.729  -2.309  23.922  0.00  0.00    +0.012 A 
ATOM     17  C   UNL     1       9.935  -0.949  24.168  0.00  0.00    +0.001 A 
ATOM     18  C   UNL     1       9.417  -0.359  25.322  0.00  0.00    +0.000 A 
ATOM     19  C   UNL     1       8.675  -1.119  26.220  0.00  0.00    +0.001 A 
ATOM     20  C   UNL     1       8.447  -2.471  25.965  0.00  0.00    +0.012 A 
ENDBRANCH  13  15
ENDBRANCH   5  13
TORSDOF 5
ENDMDL
MODEL 6
REMARK VINA RESULT:      -6.2      3.710      8.172
REMARK  Name = 
REMARK  6 active torsions:
REMARK  status: ('A' for Active; 'I' for Inactive)
REMARK    1  A    between atoms: C_1  and  C_2
REMARK    2  A    between atoms: C_2  and  C_3
REMARK    3  A    between atoms: C_2  and  C_6
REMARK    4  A    between atoms: C_3  and  O_4
REMARK    5  A    between atoms: C_8  and  C_12
REMARK    6  A    between atoms: C_12  and  C_14
REMARK                            x       y       z     vdW  Elec       q    Type
REMARK                         _______ _______ _______ _____ _____    ______ ____
ROOT
ATOM      1  C   UNL     1      10.782   4.970  23.855  0.00  0.00    -0.033 A 
ATOM      2  C   UNL     1       9.671   5.372  24.613  0.00  0.00    +0.004 A 
ATOM      3  C   UNL     1       8.622   4.487  24.872  0.00  0.00    +0.001 A 
ATOM      4  C   UNL     1       8.648   3.198  24.342  0.00  0.00    +0.012 A 
ATOM      5  C   UNL     1       9.739   2.785  23.571  0.00  0.00    +0.023 A 
ATOM      6  C   UNL     1      10.832   3.646  23.389  0.00  0.00    +0.016 A 
ENDROOT
BRANCH   1   8
ATOM      7  C   UNL     1      12.436   6.569  24.852  0.00  0.00    +0.024 C 
ATOM      8  C   UNL     1      11.890   5.971  23.557  0.00  0.00    +0.124 C 
BRANCH   8   9
ATOM      9  C   UNL     1      13.019   5.411  22.687  0.00  0.00    +0.312 C 
ATOM     10  O   UNL     1      12.989   5.332  21.470  0.00  0.00    -0.250 OA
BRANCH   9  11
ATOM     11  O   UNL     1      14.079   4.957  23.402  0.00  0.00    -0.480 OA
ATOM     12  H   UNL     1      13.840   4.275  24.059  0.00  0.00    +0.295 HD
ENDBRANCH   9  11
ENDBRANCH   8   9
ENDBRANCH   1   8
BRANCH   5  13
ATOM     13  C   UNL     1       9.680   1.448  22.922  0.00  0.00    +0.193 C 
ATOM     14  O   UNL     1      10.225   1.291  21.834  0.00  0.00    -0.287 OA
BRANCH  13  15
ATOM     15  C   UNL     1       9.021   0.291  23.597  0.00  0.00    +0.022 A 
ATOM     16  C   UNL     1       7.812  -0.190  23.081  0.00  0.00    +0.012 A 
ATOM     17  C   UNL     1       7.173  -1.274  23.689  0.00  0.00    +0.001 A 
ATOM     18  C   UNL     1       7.736  -1.879  24.814  0.00  0.00    +0.000 A 
ATOM     19  C   UNL     1       8.945  -1.416  25.321  0.00  0.00    +0.001 A 
ATOM     20  C   UNL     1       9.597  -0.350  24.702  0.00  0.00    +0.012 A 
ENDBRANCH  13  15
ENDBRANCH   5  13
TORSDOF 5
ENDMDL
MODEL 7
REMARK VINA RESULT:      -6.1      2.456      6.329
REMARK  Name = 
REMARK  6 active torsions:
REMARK  status: ('A' for Active; 'I' for Inactive)
REMARK    1  A    between atoms: C_1  and  C_2
REMARK    2  A    between atoms: C_2  and  C_3
REMARK    3  A    between atoms: C_2  and  C_6
REMARK    4  A    between atoms: C_3  and  O_4
REMARK    5  A    between atoms: C_8  and  C_12
REMARK    6  A    between atoms: C_12  and  C_14
REMARK                            x       y       z     vdW  Elec       q    Type
REMARK                         _______ _______ _______ _____ _____    ______ ____
ROOT
ATOM      1  C   UNL     1       9.572   0.846  23.395  0.00  0.00    -0.033 A 
ATOM      2  C   UNL     1       9.596   0.940  21.995  0.00  0.00    +0.004 A 
ATOM      3  C   UNL     1       9.389  -0.187  21.197  0.00  0.00    +0.001 A 
ATOM      4  C   UNL     1       9.194  -1.434  21.786  0.00  0.00    +0.012 A 
ATOM      5  C   UNL     1       9.182  -1.551  23.180  0.00  0.00    +0.023 A 
ATOM      6  C   UNL     1       9.300  -0.403  23.978  0.00  0.00    +0.016 A 
ENDROOT
BRANCH   1   8
ATOM      7  C   UNL     1      10.765   3.048  23.495  0.00  0.00    +0.024 C 
ATOM      8  C   UNL     1       9.842   2.086  24.237  0.00  0.00    +0.124 C 
BRANCH   8   9
ATOM      9  C   UNL     1       8.576   2.797  24.723  0.00  0.00    +0.312 C 
ATOM     10  O   UNL     1       8.010   3.700  24.128  0.00  0.00    -0.250 OA
BRANCH   9  11
ATOM     11  O   UNL     1       8.138   2.359  25.930  0.00  0.00    -0.480 OA
ATOM     12  H   UNL     1       7.613   1.537  25.877  0.00  0.00    +0.295 HD
ENDBRANCH   9  11
ENDBRANCH   8   9
ENDBRANCH   1   8
BRANCH   5  13
ATOM     13  C   UNL     1       9.092  -2.911  23.774  0.00  0.00    +0.193 C 
ATOM     14  O   UNL     1      10.116  -3.449  24.186  0.00  0.00    -0.287 OA
BRANCH  13  15
ATOM     15  C   UNL     1       7.778  -3.601  23.927  0.00  0.00    +0.022 A 
ATOM     16  C   UNL     1       7.563  -4.802  23.240  0.00  0.00    +0.012 A 
ATOM     17  C   UNL     1       6.344  -5.473  23.366  0.00  0.00    +0.001 A 
ATOM     18  C   UNL     1       5.335  -4.948  24.175  0.00  0.00    +0.000 A 
ATOM     19  C   UNL     1       5.548  -3.764  24.874  0.00  0.00    +0.001 A 
ATOM     20  C   UNL     1       6.772  -3.105  24.769  0.00  0.00    +0.012 A 
ENDBRANCH  13  15
ENDBRANCH   5  13
TORSDOF 5
ENDMDL
MODEL 8
REMARK VINA RESULT:      -6.1      2.988      6.864
REMARK  Name = 
REMARK  6 active torsions:
REMARK  status: ('A' for Active; 'I' for Inactive)
REMARK    1  A    between atoms: C_1  and  C_2
REMARK    2  A    between atoms: C_2  and  C_3
REMARK    3  A    between atoms: C_2  and  C_6
REMARK    4  A    between atoms: C_3  and  O_4
REMARK    5  A    between atoms: C_8  and  C_12
REMARK    6  A    between atoms: C_12  and  C_14
REMARK                            x       y       z     vdW  Elec       q    Type
REMARK                         _______ _______ _______ _____ _____    ______ ____
ROOT
ATOM      1  C   UNL     1       8.562   1.366  22.285  0.00  0.00    -0.033 A 
ATOM      2  C   UNL     1       9.796   0.873  21.833  0.00  0.00    +0.004 A 
ATOM      3  C   UNL     1      10.040  -0.501  21.771  0.00  0.00    +0.001 A 
ATOM      4  C   UNL     1       9.068  -1.403  22.198  0.00  0.00    +0.012 A 
ATOM      5  C   UNL     1       7.839  -0.931  22.667  0.00  0.00    +0.023 A 
ATOM      6  C   UNL     1       7.564   0.445  22.643  0.00  0.00    +0.016 A 
ENDROOT
BRANCH   1   8
ATOM      7  C   UNL     1       6.849   3.195  22.370  0.00  0.00    +0.024 C 
ATOM      8  C   UNL     1       8.341   2.869  22.379  0.00  0.00    +0.124 C 
BRANCH   8   9
ATOM      9  C   UNL     1       9.044   3.530  23.568  0.00  0.00    +0.312 C 
ATOM     10  O   UNL     1       8.940   3.171  24.729  0.00  0.00    -0.250 OA
BRANCH   9  11
ATOM     11  O   UNL     1       9.790   4.610  23.224  0.00  0.00    -0.480 OA
ATOM     12  H   UNL     1      10.533   4.780  23.835  0.00  0.00    +0.295 HD
ENDBRANCH   9  11
ENDBRANCH   8   9
ENDBRANCH   1   8
BRANCH   5  13
ATOM     13  C   UNL     1       6.872  -1.913  23.227  0.00  0.00    +0.193 C 
ATOM     14  O   UNL     1       6.011  -1.520  24.010  0.00  0.00    -0.287 OA
BRANCH  13  15
ATOM     15  C   UNL     1       6.898  -3.346  22.809  0.00  0.00    +0.022 A 
ATOM     16  C   UNL     1       6.192  -3.726  21.662  0.00  0.00    +0.012 A 
ATOM     17  C   UNL     1       6.201  -5.059  21.243  0.00  0.00    +0.001 A 
ATOM     18  C   UNL     1       6.910  -6.017  21.969  0.00  0.00    +0.000 A 
ATOM     19  C   UNL     1       7.627  -5.642  23.101  0.00  0.00    +0.001 A 
ATOM     20  C   UNL     1       7.640  -4.309  23.507  0.00  0.00    +0.012 A 
ENDBRANCH  13  15
ENDBRANCH   5  13
TORSDOF 5
ENDMDL
MODEL 9
REMARK VINA RESULT:      -6.0      2.102      2.883
REMARK  Name = 
REMARK  6 active torsions:
REMARK  status: ('A' for Active; 'I' for Inactive)
REMARK    1  A    between atoms: C_1  and  C_2
REMARK    2  A    between atoms: C_2  and  C_3
REMARK    3  A    between atoms: C_2  and  C_6
REMARK    4  A    between atoms: C_3  and  O_4
REMARK    5  A    between atoms: C_8  and  C_12
REMARK    6  A    between atoms: C_12  and  C_14
REMARK                            x       y       z     vdW  Elec       q    Type
REMARK                         _______ _______ _______ _____ _____    ______ ____
ROOT
ATOM      1  C   UNL     1       5.603  -5.487  24.184  0.00  0.00    -0.033 A 
ATOM      2  C   UNL     1       5.397  -5.934  22.869  0.00  0.00    +0.004 A 
ATOM      3  C   UNL     1       6.297  -5.610  21.852  0.00  0.00    +0.001 A 
ATOM      4  C   UNL     1       7.397  -4.800  22.124  0.00  0.00    +0.012 A 
ATOM      5  C   UNL     1       7.611  -4.332  23.424  0.00  0.00    +0.023 A 
ATOM      6  C   UNL     1       6.755  -4.733  24.461  0.00  0.00    +0.016 A 
ENDROOT
BRANCH   1   8
ATOM      7  C   UNL     1       3.982  -7.207  25.020  0.00  0.00    +0.024 C 
ATOM      8  C   UNL     1       4.582  -5.824  25.262  0.00  0.00    +0.124 C 
BRANCH   8   9
ATOM      9  C   UNL     1       5.117  -5.695  26.690  0.00  0.00    +0.312 C 
ATOM     10  O   UNL     1       5.017  -4.698  27.387  0.00  0.00    -0.250 OA
BRANCH   9  11
ATOM     11  O   UNL     1       5.770  -6.802  27.126  0.00  0.00    -0.480 OA
ATOM     12  H   UNL     1       5.380  -7.189  27.933  0.00  0.00    +0.295 HD
ENDBRANCH   9  11
ENDBRANCH   8   9
ENDBRANCH   1   8
BRANCH   5  13
ATOM     13  C   UNL     1       8.725  -3.373  23.656  0.00  0.00    +0.193 C 
ATOM     14  O   UNL     1       9.694  -3.735  24.317  0.00  0.00    -0.287 OA
BRANCH  13  15
ATOM     15  C   UNL     1       8.705  -2.008  23.053  0.00  0.00    +0.022 A 
ATOM     16  C   UNL     1       7.657  -1.141  23.382  0.00  0.00    +0.012 A 
ATOM     17  C   UNL     1       7.613   0.145  22.837  0.00  0.00    +0.001 A 
ATOM     18  C   UNL     1       8.612   0.569  21.960  0.00  0.00    +0.000 A 
ATOM     19  C   UNL     1       9.666  -0.282  21.642  0.00  0.00    +0.001 A 
ATOM     20  C   UNL     1       9.725  -1.556  22.204  0.00  0.00    +0.012 A 
ENDBRANCH  13  15
ENDBRANCH   5  13
TORSDOF 5
ENDMDL
