MODEL 1
REMARK VINA RESULT:      -6.9      0.000      0.000
REMARK  Name = 
REMARK  7 active torsions:
REMARK  status: ('A' for Active; 'I' for Inactive)
REMARK    1  A    between atoms: C_2  and  C_8
REMARK    2  A    between atoms: C_8  and  O_9
REMARK    3  A    between atoms: C_8  and  C_10
REMARK    4  A    between atoms: C_8  and  C_20
REMARK    5  A    between atoms: C_10  and  C_11
REMARK    6  A    between atoms: C_12  and  O_13
REMARK    7  A    between atoms: O_13  and  C_14
REMARK                            x       y       z     vdW  Elec       q    Type
REMARK                         _______ _______ _______ _____ _____    ______ ____
ROOT
ATOM      1  C   UNL     1       9.076   1.342  22.587  0.00  0.00    +0.100 C 
ENDROOT
BRANCH   1   2
ATOM      2  C   UNL     1       7.504   1.260  22.800  0.00  0.00    +0.164 C 
ATOM      3  O   UNL     1       7.306   1.118  24.241  0.00  0.00    -0.371 OA
ATOM      4  C   UNL     1       5.925   0.927  24.567  0.00  0.00    +0.175 C 
ATOM      5  C   UNL     1       5.121   2.154  24.139  0.00  0.00    +0.109 C 
ATOM      6  N   UNL     1       5.229   2.377  22.689  0.00  0.00    -0.311 NA
ATOM      7  H   UNL     1       4.809   1.579  22.209  0.00  0.00    +0.122 HD
ATOM      8  C   UNL     1       6.659   2.457  22.309  0.00  0.00    +0.115 C 
ENDBRANCH   1   2
BRANCH   1   9
ATOM      9  C   UNL     1       9.879   0.020  22.218  0.00  0.00    +0.028 C 
ATOM     10  C   UNL     1       9.041  -1.041  21.446  0.00  0.00    +0.034 C 
ATOM     11  C   UNL     1       8.132  -1.858  22.361  0.00  0.00    +0.160 C 
ATOM     12  O   UNL     1       8.912  -2.543  23.339  0.00  0.00    -0.380 OA
ATOM     13  C   UNL     1       9.630  -1.643  24.176  0.00  0.00    +0.160 C 
ATOM     14  C   UNL     1      10.565  -0.760  23.360  0.00  0.00    +0.034 C 
ENDBRANCH   1   9
BRANCH   1  15
ATOM     15  O   UNL     1       9.265   2.262  21.487  0.00  0.00    -0.385 OA
ATOM     16  H   UNL     1       9.232   3.159  21.879  0.00  0.00    +0.210 HD
ENDBRANCH   1  15
BRANCH   1  17
ATOM     17  C   UNL     1       9.691   2.047  23.871  0.00  0.00    +0.076 C 
BRANCH  17  18
ATOM     18  C   UNL     1      10.333   3.431  23.771  0.00  0.00    -0.000 A 
ATOM     19  C   UNL     1      11.671   3.627  23.370  0.00  0.00    +0.045 A 
ATOM     20  C   UNL     1      12.237   4.893  23.299  0.00  0.00    +0.124 A 
ATOM     21  F   UNL     1      13.513   5.017  22.915  0.00  0.00    -0.205 F 
ATOM     22  C   UNL     1      11.499   6.011  23.621  0.00  0.00    +0.042 A 
ATOM     23  C   UNL     1      10.174   5.858  24.029  0.00  0.00    +0.049 A 
ATOM     24  C   UNL     1       9.584   4.582  24.110  0.00  0.00    +0.124 A 
BRANCH  24  25
ATOM     25  O   UNL     1       8.290   4.372  24.521  0.00  0.00    -0.495 OA
ATOM     26  C   UNL     1       7.941   4.843  25.822  0.00  0.00    +0.277 C 
ENDBRANCH  24  25
ENDBRANCH  17  18
ENDBRANCH   1  17
TORSDOF 6
ENDMDL
MODEL 2
REMARK VINA RESULT:      -6.5      1.741      2.406
REMARK  Name = 
REMARK  7 active torsions:
REMARK  status: ('A' for Active; 'I' for Inactive)
REMARK    1  A    between atoms: C_2  and  C_8
REMARK    2  A    between atoms: C_8  and  O_9
REMARK    3  A    between atoms: C_8  and  C_10
REMARK    4  A    between atoms: C_8  and  C_20
REMARK    5  A    between atoms: C_10  and  C_11
REMARK    6  A    between atoms: C_12  and  O_13
REMARK    7  A    between atoms: O_13  and  C_14
REMARK                            x       y       z     vdW  Elec       q    Type
REMARK                         _______ _______ _______ _____ _____    ______ ____
ROOT
ATOM      1  C   UNL     1       9.064   1.762  22.794  0.00  0.00    +0.100 C 
ENDROOT
BRANCH   1   2
ATOM      2  C   UNL     1       7.505   1.500  22.953  0.00  0.00    +0.164 C 
ATOM      3  O   UNL     1       7.273   1.346  24.387  0.00  0.00    -0.371 OA
ATOM      4  C   UNL     1       5.913   0.997  24.667  0.00  0.00    +0.175 C 
ATOM      5  C   UNL     1       4.988   2.120  24.198  0.00  0.00    +0.109 C 
ATOM      6  N   UNL     1       5.121   2.343  22.750  0.00  0.00    -0.311 NA
ATOM      7  H   UNL     1       4.814   1.499  22.265  0.00  0.00    +0.122 HD
ATOM      8  C   UNL     1       6.545   2.587  22.419  0.00  0.00    +0.115 C 
ENDBRANCH   1   2
BRANCH   1   9
ATOM      9  C   UNL     1      10.024   0.544  22.448  0.00  0.00    +0.028 C 
ATOM     10  C   UNL     1       9.394  -0.518  21.500  0.00  0.00    +0.034 C 
ATOM     11  C   UNL     1       8.453  -1.475  22.225  0.00  0.00    +0.160 C 
ATOM     12  O   UNL     1       9.158  -2.170  23.251  0.00  0.00    -0.380 OA
ATOM     13  C   UNL     1       9.677  -1.284  24.237  0.00  0.00    +0.160 C 
ATOM     14  C   UNL     1      10.626  -0.266  23.618  0.00  0.00    +0.034 C 
ENDBRANCH   1   9
BRANCH   1  15
ATOM     15  O   UNL     1       9.182   2.706  21.704  0.00  0.00    -0.385 OA
ATOM     16  H   UNL     1       9.864   2.339  21.104  0.00  0.00    +0.210 HD
ENDBRANCH   1  15
BRANCH   1  17
ATOM     17  C   UNL     1       9.550   2.524  24.101  0.00  0.00    +0.076 C 
BRANCH  17  18
ATOM     18  C   UNL     1       9.436   4.046  24.207  0.00  0.00    -0.000 A 
ATOM     19  C   UNL     1       8.287   4.695  24.703  0.00  0.00    +0.045 A 
ATOM     20  C   UNL     1       8.202   6.079  24.779  0.00  0.00    +0.124 A 
ATOM     21  F   UNL     1       7.083   6.640  25.255  0.00  0.00    -0.205 F 
ATOM     22  C   UNL     1       9.252   6.870  24.368  0.00  0.00    +0.042 A 
ATOM     23  C   UNL     1      10.403   6.265  23.865  0.00  0.00    +0.049 A 
ATOM     24  C   UNL     1      10.507   4.864  23.778  0.00  0.00    +0.124 A 
BRANCH  24  25
ATOM     25  O   UNL     1      11.610   4.217  23.276  0.00  0.00    -0.495 OA
ATOM     26  C   UNL     1      12.800   4.990  23.128  0.00  0.00    +0.277 C 
ENDBRANCH  24  25
ENDBRANCH  17  18
ENDBRANCH   1  17
TORSDOF 6
ENDMDL
MODEL 3
REMARK VINA RESULT:      -6.4      3.888      5.738
REMARK  Name = 
REMARK  7 active torsions:
REMARK  status: ('A' for Active; 'I' for Inactive)
REMARK    1  A    between atoms: C_2  and  C_8
REMARK    2  A    between atoms: C_8  and  O_9
REMARK    3  A    between atoms: C_8  and  C_10
REMARK    4  A    between atoms: C_8  and  C_20
REMARK    5  A    between atoms: C_10  and  C_11
REMARK    6  A    between atoms: C_12  and  O_13
REMARK    7  A    between atoms: O_13  and  C_14
REMARK                            x       y       z     vdW  Elec       q    Type
REMARK                         _______ _______ _______ _____ _____    ______ ____
ROOT
ATOM      1  C   UNL     1       7.888  -3.293  24.482  0.00  0.00    +0.100 C 
ENDROOT
BRANCH   1   2
ATOM      2  C   UNL     1       7.738  -3.893  25.945  0.00  0.00    +0.164 C 
ATOM      3  O   UNL     1       6.326  -3.749  26.290  0.00  0.00    -0.371 OA
ATOM      4  C   UNL     1       6.068  -4.159  27.638  0.00  0.00    +0.175 C 
ATOM      5  C   UNL     1       6.403  -5.642  27.796  0.00  0.00    +0.109 C 
ATOM      6  N   UNL     1       7.820  -5.898  27.497  0.00  0.00    -0.311 NA
ATOM      7  H   UNL     1       8.389  -5.402  28.184  0.00  0.00    +0.122 HD
ATOM      8  C   UNL     1       8.141  -5.371  26.149  0.00  0.00    +0.115 C 
ENDBRANCH   1   2
BRANCH   1   9
ATOM      9  C   UNL     1       7.585  -4.221  23.228  0.00  0.00    +0.028 C 
ATOM     10  C   UNL     1       7.106  -3.450  21.963  0.00  0.00    +0.034 C 
ATOM     11  C   UNL     1       5.630  -3.067  22.026  0.00  0.00    +0.160 C 
ATOM     12  O   UNL     1       4.826  -4.238  22.155  0.00  0.00    -0.380 OA
ATOM     13  C   UNL     1       5.113  -4.954  23.351  0.00  0.00    +0.160 C 
ATOM     14  C   UNL     1       6.575  -5.376  23.402  0.00  0.00    +0.034 C 
ENDBRANCH   1   9
BRANCH   1  15
ATOM     15  O   UNL     1       6.947  -2.195  24.422  0.00  0.00    -0.385 OA
ATOM     16  H   UNL     1       6.742  -2.068  23.473  0.00  0.00    +0.210 HD
ENDBRANCH   1  15
BRANCH   1  17
ATOM     17  C   UNL     1       9.336  -2.647  24.382  0.00  0.00    +0.076 C 
BRANCH  17  18
ATOM     18  C   UNL     1       9.509  -1.147  24.138  0.00  0.00    -0.000 A 
ATOM     19  C   UNL     1       9.809  -0.608  22.870  0.00  0.00    +0.045 A 
ATOM     20  C   UNL     1       9.973   0.758  22.675  0.00  0.00    +0.124 A 
ATOM     21  F   UNL     1      10.261   1.212  21.448  0.00  0.00    -0.205 F 
ATOM     22  C   UNL     1       9.846   1.637  23.727  0.00  0.00    +0.042 A 
ATOM     23  C   UNL     1       9.558   1.141  24.998  0.00  0.00    +0.049 A 
ATOM     24  C   UNL     1       9.390  -0.239  25.216  0.00  0.00    +0.124 A 
BRANCH  24  25
ATOM     25  O   UNL     1       9.121  -0.783  26.448  0.00  0.00    -0.495 OA
ATOM     26  C   UNL     1       7.961  -0.303  27.126  0.00  0.00    +0.277 C 
ENDBRANCH  24  25
ENDBRANCH  17  18
ENDBRANCH   1  17
TORSDOF 6
ENDMDL
MODEL 4
REMARK VINA RESULT:      -6.2      3.783      6.959
REMARK  Name = 
REMARK  7 active torsions:
REMARK  status: ('A' for Active; 'I' for Inactive)
REMARK    1  A    between atoms: C_2  and  C_8
REMARK    2  A    between atoms: C_8  and  O_9
REMARK    3  A    between atoms: C_8  and  C_10
REMARK    4  A    between atoms: C_8  and  C_20
REMARK    5  A    between atoms: C_10  and  C_11
REMARK    6  A    between atoms: C_12  and  O_13
REMARK    7  A    between atoms: O_13  and  C_14
REMARK                            x       y       z     vdW  Elec       q    Type
REMARK                         _______ _______ _______ _____ _____    ______ ____
ROOT
ATOM      1  C   UNL     1       8.862  -1.224  24.352  0.00  0.00    +0.100 C 
ENDROOT
BRANCH   1   2
ATOM      2  C   UNL     1       8.455  -0.174  25.473  0.00  0.00    +0.164 C 
ATOM      3  O   UNL     1       7.085   0.227  25.163  0.00  0.00    -0.371 OA
ATOM      4  C   UNL     1       6.626   1.259  26.042  0.00  0.00    +0.175 C 
ATOM      5  C   UNL     1       6.609   0.740  27.479  0.00  0.00    +0.109 C 
ATOM      6  N   UNL     1       7.955   0.330  27.908  0.00  0.00    -0.311 NA
ATOM      7  H   UNL     1       8.557   1.155  27.910  0.00  0.00    +0.122 HD
ATOM      8  C   UNL     1       8.501  -0.652  26.942  0.00  0.00    +0.115 C 
ENDBRANCH   1   2
BRANCH   1   9
ATOM      9  C   UNL     1      10.071  -0.889  23.376  0.00  0.00    +0.028 C 
ATOM     10  C   UNL     1      10.869   0.390  23.765  0.00  0.00    +0.034 C 
ATOM     11  C   UNL     1      10.173   1.677  23.333  0.00  0.00    +0.160 C 
ATOM     12  O   UNL     1       9.997   1.686  21.918  0.00  0.00    -0.380 OA
ATOM     13  C   UNL     1       9.176   0.610  21.475  0.00  0.00    +0.160 C 
ATOM     14  C   UNL     1       9.772  -0.735  21.869  0.00  0.00    +0.034 C 
ENDBRANCH   1   9
BRANCH   1  15
ATOM     15  O   UNL     1       9.229  -2.425  25.070  0.00  0.00    -0.385 OA
ATOM     16  H   UNL     1       8.492  -3.056  24.934  0.00  0.00    +0.210 HD
ENDBRANCH   1  15
BRANCH   1  17
ATOM     17  C   UNL     1       7.545  -1.576  23.535  0.00  0.00    +0.076 C 
BRANCH  17  18
ATOM     18  C   UNL     1       7.080  -3.025  23.388  0.00  0.00    -0.000 A 
ATOM     19  C   UNL     1       7.355  -3.805  22.245  0.00  0.00    +0.045 A 
ATOM     20  C   UNL     1       6.912  -5.116  22.128  0.00  0.00    +0.124 A 
ATOM     21  F   UNL     1       7.199  -5.806  21.017  0.00  0.00    -0.205 F 
ATOM     22  C   UNL     1       6.181  -5.702  23.138  0.00  0.00    +0.042 A 
ATOM     23  C   UNL     1       5.883  -4.962  24.281  0.00  0.00    +0.049 A 
ATOM     24  C   UNL     1       6.322  -3.631  24.417  0.00  0.00    +0.124 A 
BRANCH  24  25
ATOM     25  O   UNL     1       6.043  -2.851  25.512  0.00  0.00    -0.495 OA
ATOM     26  C   UNL     1       6.110  -3.484  26.789  0.00  0.00    +0.277 C 
ENDBRANCH  24  25
ENDBRANCH  17  18
ENDBRANCH   1  17
TORSDOF 6
ENDMDL
MODEL 5
REMARK VINA RESULT:      -6.2      3.377      5.558
REMARK  Name = 
REMARK  7 active torsions:
REMARK  status: ('A' for Active; 'I' for Inactive)
REMARK    1  A    between atoms: C_2  and  C_8
REMARK    2  A    between atoms: C_8  and  O_9
REMARK    3  A    between atoms: C_8  and  C_10
REMARK    4  A    between atoms: C_8  and  C_20
REMARK    5  A    between atoms: C_10  and  C_11
REMARK    6  A    between atoms: C_12  and  O_13
REMARK    7  A    between atoms: O_13  and  C_14
REMARK                            x       y       z     vdW  Elec       q    Type
REMARK                         _______ _______ _______ _____ _____    ______ ____
ROOT
ATOM      1  C   UNL     1       7.018  -2.441  24.200  0.00  0.00    +0.100 C 
ENDROOT
BRANCH   1   2
ATOM      2  C   UNL     1       7.630  -3.665  25.007  0.00  0.00    +0.164 C 
ATOM      3  O   UNL     1       8.542  -4.333  24.081  0.00  0.00    -0.371 OA
ATOM      4  C   UNL     1       9.090  -5.528  24.650  0.00  0.00    +0.175 C 
ATOM      5  C   UNL     1       9.913  -5.176  25.889  0.00  0.00    +0.109 C 
ATOM      6  N   UNL     1       9.080  -4.517  26.907  0.00  0.00    -0.311 NA
ATOM      7  H   UNL     1       8.367  -5.178  27.216  0.00  0.00    +0.122 HD
ATOM      8  C   UNL     1       8.405  -3.342  26.305  0.00  0.00    +0.115 C 
ENDBRANCH   1   2
BRANCH   1   9
ATOM      9  C   UNL     1       5.649  -2.636  23.416  0.00  0.00    +0.028 C 
ATOM     10  C   UNL     1       4.701  -3.701  24.040  0.00  0.00    +0.034 C 
ATOM     11  C   UNL     1       5.100  -5.130  23.685  0.00  0.00    +0.160 C 
ATOM     12  O   UNL     1       5.081  -5.305  22.270  0.00  0.00    -0.380 OA
ATOM     13  C   UNL     1       6.009  -4.448  21.613  0.00  0.00    +0.160 C 
ATOM     14  C   UNL     1       5.713  -2.985  21.913  0.00  0.00    +0.034 C 
ENDBRANCH   1   9
BRANCH   1  15
ATOM     15  O   UNL     1       6.785  -1.411  25.190  0.00  0.00    -0.385 OA
ATOM     16  H   UNL     1       7.541  -0.792  25.115  0.00  0.00    +0.210 HD
ENDBRANCH   1  15
BRANCH   1  17
ATOM     17  C   UNL     1       8.157  -1.891  23.240  0.00  0.00    +0.076 C 
BRANCH  17  18
ATOM     18  C   UNL     1       8.888  -0.586  23.561  0.00  0.00    -0.000 A 
ATOM     19  C   UNL     1      10.170  -0.551  24.148  0.00  0.00    +0.045 A 
ATOM     20  C   UNL     1      10.809   0.646  24.441  0.00  0.00    +0.124 A 
ATOM     21  F   UNL     1      12.025   0.617  25.003  0.00  0.00    -0.205 F 
ATOM     22  C   UNL     1      10.204   1.852  24.164  0.00  0.00    +0.042 A 
ATOM     23  C   UNL     1       8.933   1.859  23.589  0.00  0.00    +0.049 A 
ATOM     24  C   UNL     1       8.268   0.655  23.287  0.00  0.00    +0.124 A 
BRANCH  24  25
ATOM     25  O   UNL     1       7.011   0.604  22.737  0.00  0.00    -0.495 OA
ATOM     26  C   UNL     1       6.325   1.845  22.576  0.00  0.00    +0.277 C 
ENDBRANCH  24  25
ENDBRANCH  17  18
ENDBRANCH   1  17
TORSDOF 6
ENDMDL
MODEL 6
REMARK VINA RESULT:      -6.2      3.372      5.458
REMARK  Name = 
REMARK  7 active torsions:
REMARK  status: ('A' for Active; 'I' for Inactive)
REMARK    1  A    between atoms: C_2  and  C_8
REMARK    2  A    between atoms: C_8  and  O_9
REMARK    3  A    between atoms: C_8  and  C_10
REMARK    4  A    between atoms: C_8  and  C_20
REMARK    5  A    between atoms: C_10  and  C_11
REMARK    6  A    between atoms: C_12  and  O_13
REMARK    7  A    between atoms: O_13  and  C_14
REMARK                            x       y       z     vdW  Elec       q    Type
REMARK                         _______ _______ _______ _____ _____    ______ ____
ROOT
ATOM      1  C   UNL     1       8.122  -3.023  23.955  0.00  0.00    +0.100 C 
ENDROOT
BRANCH   1   2
ATOM      2  C   UNL     1       7.100  -4.031  23.274  0.00  0.00    +0.164 C 
ATOM      3  O   UNL     1       6.780  -3.452  21.971  0.00  0.00    -0.371 OA
ATOM      4  C   UNL     1       5.779  -4.213  21.287  0.00  0.00    +0.175 C 
ATOM      5  C   UNL     1       6.301  -5.624  21.017  0.00  0.00    +0.109 C 
ATOM      6  N   UNL     1       6.632  -6.314  22.272  0.00  0.00    -0.311 NA
ATOM      7  H   UNL     1       5.773  -6.427  22.813  0.00  0.00    +0.122 HD
ATOM      8  C   UNL     1       7.578  -5.485  23.056  0.00  0.00    +0.115 C 
ENDBRANCH   1   2
BRANCH   1   9
ATOM      9  C   UNL     1       7.888  -2.584  25.465  0.00  0.00    +0.028 C 
ATOM     10  C   UNL     1       8.599  -3.491  26.511  0.00  0.00    +0.034 C 
ATOM     11  C   UNL     1       7.843  -4.789  26.780  0.00  0.00    +0.160 C 
ATOM     12  O   UNL     1       6.535  -4.501  27.269  0.00  0.00    -0.380 OA
ATOM     13  C   UNL     1       5.762  -3.767  26.325  0.00  0.00    +0.160 C 
ATOM     14  C   UNL     1       6.435  -2.448  25.969  0.00  0.00    +0.034 C 
ENDBRANCH   1   9
BRANCH   1  15
ATOM     15  O   UNL     1       9.404  -3.692  23.911  0.00  0.00    -0.385 OA
ATOM     16  H   UNL     1       9.271  -4.556  24.352  0.00  0.00    +0.210 HD
ENDBRANCH   1  15
BRANCH   1  17
ATOM     17  C   UNL     1       8.244  -1.758  23.001  0.00  0.00    +0.076 C 
BRANCH  17  18
ATOM     18  C   UNL     1       8.862  -0.454  23.506  0.00  0.00    -0.000 A 
ATOM     19  C   UNL     1      10.235  -0.320  23.799  0.00  0.00    +0.045 A 
ATOM     20  C   UNL     1      10.772   0.872  24.268  0.00  0.00    +0.124 A 
ATOM     21  F   UNL     1      12.083   0.938  24.533  0.00  0.00    -0.205 F 
ATOM     22  C   UNL     1       9.969   1.974  24.464  0.00  0.00    +0.042 A 
ATOM     23  C   UNL     1       8.604   1.879  24.192  0.00  0.00    +0.049 A 
ATOM     24  C   UNL     1       8.042   0.679  23.719  0.00  0.00    +0.124 A 
BRANCH  24  25
ATOM     25  O   UNL     1       6.703   0.525  23.451  0.00  0.00    -0.495 OA
ATOM     26  C   UNL     1       5.792   0.894  24.485  0.00  0.00    +0.277 C 
ENDBRANCH  24  25
ENDBRANCH  17  18
ENDBRANCH   1  17
TORSDOF 6
ENDMDL
MODEL 7
REMARK VINA RESULT:      -6.0      3.743      5.875
REMARK  Name = 
REMARK  7 active torsions:
REMARK  status: ('A' for Active; 'I' for Inactive)
REMARK    1  A    between atoms: C_2  and  C_8
REMARK    2  A    between atoms: C_8  and  O_9
REMARK    3  A    between atoms: C_8  and  C_10
REMARK    4  A    between atoms: C_8  and  C_20
REMARK    5  A    between atoms: C_10  and  C_11
REMARK    6  A    between atoms: C_12  and  O_13
REMARK    7  A    between atoms: O_13  and  C_14
REMARK                            x       y       z     vdW  Elec       q    Type
REMARK                         _______ _______ _______ _____ _____    ______ ____
ROOT
ATOM      1  C   UNL     1       6.587  -2.676  23.980  0.00  0.00    +0.100 C 
ENDROOT
BRANCH   1   2
ATOM      2  C   UNL     1       7.219  -3.866  24.822  0.00  0.00    +0.164 C 
ATOM      3  O   UNL     1       8.646  -3.859  24.508  0.00  0.00    -0.371 OA
ATOM      4  C   UNL     1       9.327  -4.958  25.125  0.00  0.00    +0.175 C 
ATOM      5  C   UNL     1       9.218  -4.842  26.645  0.00  0.00    +0.109 C 
ATOM      6  N   UNL     1       7.812  -4.866  27.077  0.00  0.00    -0.311 NA
ATOM      7  H   UNL     1       7.416  -5.774  26.831  0.00  0.00    +0.122 HD
ATOM      8  C   UNL     1       7.059  -3.811  26.358  0.00  0.00    +0.115 C 
ENDBRANCH   1   2
BRANCH   1   9
ATOM      9  C   UNL     1       5.472  -3.001  22.895  0.00  0.00    +0.028 C 
ATOM     10  C   UNL     1       4.393  -4.017  23.372  0.00  0.00    +0.034 C 
ATOM     11  C   UNL     1       4.871  -5.464  23.302  0.00  0.00    +0.160 C 
ATOM     12  O   UNL     1       5.223  -5.798  21.961  0.00  0.00    -0.380 OA
ATOM     13  C   UNL     1       6.291  -4.993  21.473  0.00  0.00    +0.160 C 
ATOM     14  C   UNL     1       5.926  -3.515  21.512  0.00  0.00    +0.034 C 
ENDBRANCH   1   9
BRANCH   1  15
ATOM     15  O   UNL     1       5.974  -1.802  24.956  0.00  0.00    -0.385 OA
ATOM     16  H   UNL     1       5.367  -1.221  24.453  0.00  0.00    +0.210 HD
ENDBRANCH   1  15
BRANCH   1  17
ATOM     17  C   UNL     1       7.790  -1.859  23.340  0.00  0.00    +0.076 C 
BRANCH  17  18
ATOM     18  C   UNL     1       7.893  -0.345  23.524  0.00  0.00    -0.000 A 
ATOM     19  C   UNL     1       7.264   0.576  22.661  0.00  0.00    +0.045 A 
ATOM     20  C   UNL     1       7.381   1.948  22.840  0.00  0.00    +0.124 A 
ATOM     21  F   UNL     1       6.764   2.774  21.986  0.00  0.00    -0.205 F 
ATOM     22  C   UNL     1       8.124   2.458  23.882  0.00  0.00    +0.042 A 
ATOM     23  C   UNL     1       8.767   1.580  24.754  0.00  0.00    +0.049 A 
ATOM     24  C   UNL     1       8.662   0.186  24.586  0.00  0.00    +0.124 A 
BRANCH  24  25
ATOM     25  O   UNL     1       9.287  -0.723  25.404  0.00  0.00    -0.495 OA
ATOM     26  C   UNL     1       8.858  -0.770  26.764  0.00  0.00    +0.277 C 
ENDBRANCH  24  25
ENDBRANCH  17  18
ENDBRANCH   1  17
TORSDOF 6
ENDMDL
MODEL 8
REMARK VINA RESULT:      -5.9      3.285      6.725
REMARK  Name = 
REMARK  7 active torsions:
REMARK  status: ('A' for Active; 'I' for Inactive)
REMARK    1  A    between atoms: C_2  and  C_8
REMARK    2  A    between atoms: C_8  and  O_9
REMARK    3  A    between atoms: C_8  and  C_10
REMARK    4  A    between atoms: C_8  and  C_20
REMARK    5  A    between atoms: C_10  and  C_11
REMARK    6  A    between atoms: C_12  and  O_13
REMARK    7  A    between atoms: O_13  and  C_14
REMARK                            x       y       z     vdW  Elec       q    Type
REMARK                         _______ _______ _______ _____ _____    ______ ____
ROOT
ATOM      1  C   UNL     1       7.587  -0.362  23.805  0.00  0.00    +0.100 C 
ENDROOT
BRANCH   1   2
ATOM      2  C   UNL     1       8.320   1.048  23.785  0.00  0.00    +0.164 C 
ATOM      3  O   UNL     1       9.738   0.760  23.989  0.00  0.00    -0.371 OA
ATOM      4  C   UNL     1      10.509   1.961  24.098  0.00  0.00    +0.175 C 
ATOM      5  C   UNL     1      10.412   2.755  22.796  0.00  0.00    +0.109 C 
ATOM      6  N   UNL     1       9.018   3.123  22.505  0.00  0.00    -0.311 NA
ATOM      7  H   UNL     1       8.689   3.746  23.244  0.00  0.00    +0.122 HD
ATOM      8  C   UNL     1       8.176   1.903  22.507  0.00  0.00    +0.115 C 
ENDBRANCH   1   2
BRANCH   1   9
ATOM      9  C   UNL     1       6.968  -0.896  25.168  0.00  0.00    +0.028 C 
ATOM     10  C   UNL     1       5.449  -0.602  25.338  0.00  0.00    +0.034 C 
ATOM     11  C   UNL     1       5.169   0.831  25.780  0.00  0.00    +0.160 C 
ATOM     12  O   UNL     1       5.806   1.090  27.030  0.00  0.00    -0.380 OA
ATOM     13  C   UNL     1       7.221   0.959  26.945  0.00  0.00    +0.160 C 
ATOM     14  C   UNL     1       7.618  -0.440  26.493  0.00  0.00    +0.034 C 
ENDBRANCH   1   9
BRANCH   1  15
ATOM     15  O   UNL     1       6.488  -0.234  22.872  0.00  0.00    -0.385 OA
ATOM     16  H   UNL     1       5.672  -0.281  23.411  0.00  0.00    +0.210 HD
ENDBRANCH   1  15
BRANCH   1  17
ATOM     17  C   UNL     1       8.588  -1.423  23.174  0.00  0.00    +0.076 C 
BRANCH  17  18
ATOM     18  C   UNL     1       8.584  -2.878  23.645  0.00  0.00    -0.000 A 
ATOM     19  C   UNL     1       9.522  -3.387  24.567  0.00  0.00    +0.045 A 
ATOM     20  C   UNL     1       9.506  -4.716  24.971  0.00  0.00    +0.124 A 
ATOM     21  F   UNL     1      10.425  -5.143  25.846  0.00  0.00    -0.205 F 
ATOM     22  C   UNL     1       8.562  -5.588  24.477  0.00  0.00    +0.042 A 
ATOM     23  C   UNL     1       7.622  -5.124  23.557  0.00  0.00    +0.049 A 
ATOM     24  C   UNL     1       7.623  -3.782  23.134  0.00  0.00    +0.124 A 
BRANCH  24  25
ATOM     25  O   UNL     1       6.732  -3.276  22.220  0.00  0.00    -0.495 OA
ATOM     26  C   UNL     1       5.347  -3.511  22.470  0.00  0.00    +0.277 C 
ENDBRANCH  24  25
ENDBRANCH  17  18
ENDBRANCH   1  17
TORSDOF 6
ENDMDL
MODEL 9
REMARK VINA RESULT:      -5.9      5.200      8.129
REMARK  Name = 
REMARK  7 active torsions:
REMARK  status: ('A' for Active; 'I' for Inactive)
REMARK    1  A    between atoms: C_2  and  C_8
REMARK    2  A    between atoms: C_8  and  O_9
REMARK    3  A    between atoms: C_8  and  C_10
REMARK    4  A    between atoms: C_8  and  C_20
REMARK    5  A    between atoms: C_10  and  C_11
REMARK    6  A    between atoms: C_12  and  O_13
REMARK    7  A    between atoms: O_13  and  C_14
REMARK                            x       y       z     vdW  Elec       q    Type
REMARK                         _______ _______ _______ _____ _____    ______ ____
ROOT
ATOM      1  C   UNL     1       7.834  -3.857  24.467  0.00  0.00    +0.100 C 
ENDROOT
BRANCH   1   2
ATOM      2  C   UNL     1       8.236  -2.388  24.013  0.00  0.00    +0.164 C 
ATOM      3  O   UNL     1       8.944  -1.802  25.149  0.00  0.00    -0.371 OA
ATOM      4  C   UNL     1       9.275  -0.430  24.912  0.00  0.00    +0.175 C 
ATOM      5  C   UNL     1      10.220  -0.328  23.715  0.00  0.00    +0.109 C 
ATOM      6  N   UNL     1       9.593  -0.870  22.500  0.00  0.00    -0.311 NA
ATOM      7  H   UNL     1       8.781  -0.294  22.273  0.00  0.00    +0.122 HD
ATOM      8  C   UNL     1       9.132  -2.254  22.760  0.00  0.00    +0.115 C 
ENDBRANCH   1   2
BRANCH   1   9
ATOM      9  C   UNL     1       6.442  -4.461  23.995  0.00  0.00    +0.028 C 
ATOM     10  C   UNL     1       6.566  -5.642  22.988  0.00  0.00    +0.034 C 
ATOM     11  C   UNL     1       6.840  -5.177  21.561  0.00  0.00    +0.160 C 
ATOM     12  O   UNL     1       5.784  -4.330  21.112  0.00  0.00    -0.380 OA
ATOM     13  C   UNL     1       5.667  -3.155  21.908  0.00  0.00    +0.160 C 
ATOM     14  C   UNL     1       5.406  -3.503  23.368  0.00  0.00    +0.034 C 
ENDBRANCH   1   9
BRANCH   1  15
ATOM     15  O   UNL     1       8.864  -4.718  23.927  0.00  0.00    -0.385 OA
ATOM     16  H   UNL     1       8.848  -4.581  22.958  0.00  0.00    +0.210 HD
ENDBRANCH   1  15
BRANCH   1  17
ATOM     17  C   UNL     1       7.982  -3.920  26.048  0.00  0.00    +0.076 C 
BRANCH  17  18
ATOM     18  C   UNL     1       6.804  -4.343  26.927  0.00  0.00    -0.000 A 
ATOM     19  C   UNL     1       6.601  -5.674  27.346  0.00  0.00    +0.045 A 
ATOM     20  C   UNL     1       5.517  -6.036  28.135  0.00  0.00    +0.124 A 
ATOM     21  F   UNL     1       5.373  -7.317  28.498  0.00  0.00    -0.205 F 
ATOM     22  C   UNL     1       4.597  -5.095  28.538  0.00  0.00    +0.042 A 
ATOM     23  C   UNL     1       4.759  -3.769  28.139  0.00  0.00    +0.049 A 
ATOM     24  C   UNL     1       5.850  -3.382  27.337  0.00  0.00    +0.124 A 
BRANCH  24  25
ATOM     25  O   UNL     1       6.050  -2.095  26.902  0.00  0.00    -0.495 OA
ATOM     26  C   UNL     1       4.923  -1.418  26.349  0.00  0.00    +0.277 C 
ENDBRANCH  24  25
ENDBRANCH  17  18
ENDBRANCH   1  17
TORSDOF 6
ENDMDL
