MODEL 1
REMARK VINA RESULT:      -6.9      0.000      0.000
REMARK  Name = 
REMARK  4 active torsions:
REMARK  status: ('A' for Active; 'I' for Inactive)
REMARK    1  A    between atoms: C_1  and  N_2
REMARK    2  A    between atoms: C_3  and  C_4
REMARK    3  A    between atoms: C_10  and  C_11
REMARK    4  A    between atoms: C_13  and  O_14
REMARK                            x       y       z     vdW  Elec       q    Type
REMARK                         _______ _______ _______ _____ _____    ______ ____
ROOT
ATOM      1  C   UNL     1       6.011   2.140  24.947  0.00  0.00    +0.158 C 
ATOM      2  N   UNL     1       7.391   2.483  24.566  0.00  0.00    -0.197 N 
ATOM      3  S   UNL     1       7.776   4.082  24.971  0.00  0.00    +0.075 S 
ATOM      4  O   UNL     1       6.863   4.943  24.245  0.00  0.00    -0.150 OA
ATOM      5  O   UNL     1       7.854   4.142  26.416  0.00  0.00    -0.150 OA
ATOM      6  C   UNL     1       9.368   4.425  24.364  0.00  0.00    +0.119 A 
ATOM      7  C   UNL     1       9.852   5.740  24.499  0.00  0.00    +0.029 A 
ATOM      8  C   UNL     1      11.116   6.065  24.016  0.00  0.00    +0.002 A 
ATOM      9  C   UNL     1      11.883   5.084  23.400  0.00  0.00    +0.001 A 
ATOM     10  C   UNL     1      11.380   3.784  23.274  0.00  0.00    +0.013 A 
ATOM     11  C   UNL     1      10.106   3.426  23.760  0.00  0.00    +0.045 A 
ATOM     12  C   UNL     1       9.587   2.054  23.595  0.00  0.00    +0.153 C 
ATOM     13  C   UNL     1       8.356   1.605  23.951  0.00  0.00    +0.155 C 
ENDROOT
BRANCH  13  14
ATOM     14  C   UNL     1       8.052   0.168  23.551  0.00  0.00    +0.269 C 
ATOM     15  N   UNL     1       8.526  -0.838  24.350  0.00  0.00    -0.259 N 
ATOM     16  H   UNL     1       9.139  -0.638  25.126  0.00  0.00    +0.157 HD
ATOM     17  C   UNL     1       8.333  -2.186  24.139  0.00  0.00    +0.165 A 
ATOM     18  S   UNL     1       7.347  -2.812  22.892  0.00  0.00    -0.057 S 
ATOM     19  C   UNL     1       7.763  -4.408  23.334  0.00  0.00    +0.008 A 
ATOM     20  C   UNL     1       7.268  -5.568  22.550  0.00  0.00    +0.053 C 
ATOM     21  C   UNL     1       8.585  -4.363  24.446  0.00  0.00    +0.124 A 
ATOM     22  N   UNL     1       8.898  -3.092  24.909  0.00  0.00    -0.233 NA
ATOM     23  O   UNL     1       7.476  -0.009  22.474  0.00  0.00    -0.268 OA
ENDBRANCH  13  14
BRANCH  12  24
ATOM     24  O   UNL     1      10.538   1.233  22.990  0.00  0.00    -0.504 OA
ATOM     25  H   UNL     1      10.107   0.415  22.659  0.00  0.00    +0.292 HD
ENDBRANCH  12  24
TORSDOF 2
ENDMDL
MODEL 2
REMARK VINA RESULT:      -6.8      3.403      4.935
REMARK  Name = 
REMARK  4 active torsions:
REMARK  status: ('A' for Active; 'I' for Inactive)
REMARK    1  A    between atoms: C_1  and  N_2
REMARK    2  A    between atoms: C_3  and  C_4
REMARK    3  A    between atoms: C_10  and  C_11
REMARK    4  A    between atoms: C_13  and  O_14
REMARK                            x       y       z     vdW  Elec       q    Type
REMARK                         _______ _______ _______ _____ _____    ______ ____
ROOT
ATOM      1  C   UNL     1       9.950  -2.447  23.741  0.00  0.00    +0.158 C 
ATOM      2  N   UNL     1       8.899  -1.425  23.602  0.00  0.00    -0.197 N 
ATOM      3  S   UNL     1       9.372  -0.174  22.562  0.00  0.00    +0.075 S 
ATOM      4  O   UNL     1      10.552   0.442  23.138  0.00  0.00    -0.150 OA
ATOM      5  O   UNL     1       9.411  -0.731  21.225  0.00  0.00    -0.150 OA
ATOM      6  C   UNL     1       8.127   1.037  22.570  0.00  0.00    +0.119 A 
ATOM      7  C   UNL     1       8.360   2.223  21.850  0.00  0.00    +0.029 A 
ATOM      8  C   UNL     1       7.396   3.227  21.838  0.00  0.00    +0.002 A 
ATOM      9  C   UNL     1       6.215   3.045  22.545  0.00  0.00    +0.001 A 
ATOM     10  C   UNL     1       6.005   1.859  23.258  0.00  0.00    +0.013 A 
ATOM     11  C   UNL     1       6.962   0.823  23.281  0.00  0.00    +0.045 A 
ATOM     12  C   UNL     1       6.728  -0.410  24.058  0.00  0.00    +0.153 C 
ATOM     13  C   UNL     1       7.595  -1.442  24.220  0.00  0.00    +0.155 C 
ENDROOT
BRANCH  13  14
ATOM     14  C   UNL     1       7.131  -2.532  25.175  0.00  0.00    +0.269 C 
ATOM     15  N   UNL     1       6.478  -3.615  24.650  0.00  0.00    -0.259 N 
ATOM     16  H   UNL     1       6.225  -3.644  23.674  0.00  0.00    +0.157 HD
ATOM     17  C   UNL     1       6.003  -4.689  25.370  0.00  0.00    +0.165 A 
ATOM     18  S   UNL     1       6.275  -4.896  27.043  0.00  0.00    -0.057 S 
ATOM     19  C   UNL     1       5.326  -6.315  27.046  0.00  0.00    +0.008 A 
ATOM     20  C   UNL     1       5.053  -7.047  28.309  0.00  0.00    +0.053 C 
ATOM     21  C   UNL     1       4.908  -6.574  25.753  0.00  0.00    +0.124 A 
ATOM     22  N   UNL     1       5.307  -5.650  24.797  0.00  0.00    -0.233 NA
ATOM     23  O   UNL     1       7.287  -2.330  26.382  0.00  0.00    -0.268 OA
ENDBRANCH  13  14
BRANCH  12  24
ATOM     24  O   UNL     1       5.466  -0.392  24.650  0.00  0.00    -0.504 OA
ATOM     25  H   UNL     1       4.797  -0.732  24.017  0.00  0.00    +0.292 HD
ENDBRANCH  12  24
TORSDOF 2
ENDMDL
MODEL 3
REMARK VINA RESULT:      -6.7      2.520      7.697
REMARK  Name = 
REMARK  4 active torsions:
REMARK  status: ('A' for Active; 'I' for Inactive)
REMARK    1  A    between atoms: C_1  and  N_2
REMARK    2  A    between atoms: C_3  and  C_4
REMARK    3  A    between atoms: C_10  and  C_11
REMARK    4  A    between atoms: C_13  and  O_14
REMARK                            x       y       z     vdW  Elec       q    Type
REMARK                         _______ _______ _______ _____ _____    ______ ____
ROOT
ATOM      1  C   UNL     1       8.624  -1.340  26.899  0.00  0.00    +0.158 C 
ATOM      2  N   UNL     1       8.212  -1.955  25.627  0.00  0.00    -0.197 N 
ATOM      3  S   UNL     1       7.285  -3.351  25.874  0.00  0.00    +0.075 S 
ATOM      4  O   UNL     1       8.111  -4.293  26.604  0.00  0.00    -0.150 OA
ATOM      5  O   UNL     1       6.011  -2.919  26.410  0.00  0.00    -0.150 OA
ATOM      6  C   UNL     1       6.965  -4.069  24.325  0.00  0.00    +0.119 A 
ATOM      7  C   UNL     1       6.293  -5.305  24.301  0.00  0.00    +0.029 A 
ATOM      8  C   UNL     1       6.026  -5.925  23.084  0.00  0.00    +0.002 A 
ATOM      9  C   UNL     1       6.434  -5.315  21.905  0.00  0.00    +0.001 A 
ATOM     10  C   UNL     1       7.105  -4.087  21.952  0.00  0.00    +0.013 A 
ATOM     11  C   UNL     1       7.382  -3.434  23.171  0.00  0.00    +0.045 A 
ATOM     12  C   UNL     1       8.110  -2.151  23.198  0.00  0.00    +0.153 C 
ATOM     13  C   UNL     1       8.501  -1.464  24.301  0.00  0.00    +0.155 C 
ENDROOT
BRANCH  13  14
ATOM     14  C   UNL     1       9.344  -0.226  24.027  0.00  0.00    +0.269 C 
ATOM     15  N   UNL     1       8.788   1.001  24.274  0.00  0.00    -0.259 N 
ATOM     16  H   UNL     1       7.818   1.087  24.535  0.00  0.00    +0.157 HD
ATOM     17  C   UNL     1       9.415   2.214  24.090  0.00  0.00    +0.165 A 
ATOM     18  S   UNL     1      11.055   2.369  23.640  0.00  0.00    -0.057 S 
ATOM     19  C   UNL     1      10.902   4.068  23.580  0.00  0.00    +0.008 A 
ATOM     20  C   UNL     1      12.038   4.920  23.145  0.00  0.00    +0.053 C 
ATOM     21  C   UNL     1       9.620   4.414  23.966  0.00  0.00    +0.124 A 
ATOM     22  N   UNL     1       8.777   3.353  24.268  0.00  0.00    -0.233 NA
ATOM     23  O   UNL     1      10.449  -0.400  23.508  0.00  0.00    -0.268 OA
ENDBRANCH  13  14
BRANCH  12  24
ATOM     24  O   UNL     1       8.384  -1.708  21.904  0.00  0.00    -0.504 OA
ATOM     25  H   UNL     1       7.991  -0.818  21.768  0.00  0.00    +0.292 HD
ENDBRANCH  12  24
TORSDOF 2
ENDMDL
MODEL 4
REMARK VINA RESULT:      -6.6      2.816      4.404
REMARK  Name = 
REMARK  4 active torsions:
REMARK  status: ('A' for Active; 'I' for Inactive)
REMARK    1  A    between atoms: C_1  and  N_2
REMARK    2  A    between atoms: C_3  and  C_4
REMARK    3  A    between atoms: C_10  and  C_11
REMARK    4  A    between atoms: C_13  and  O_14
REMARK                            x       y       z     vdW  Elec       q    Type
REMARK                         _______ _______ _______ _____ _____    ______ ____
ROOT
ATOM      1  C   UNL     1      10.002  -2.266  23.581  0.00  0.00    +0.158 C 
ATOM      2  N   UNL     1       9.082  -1.119  23.653  0.00  0.00    -0.197 N 
ATOM      3  S   UNL     1       9.862   0.337  23.276  0.00  0.00    +0.075 S 
ATOM      4  O   UNL     1      10.920   0.524  24.251  0.00  0.00    -0.150 OA
ATOM      5  O   UNL     1      10.164   0.298  21.860  0.00  0.00    -0.150 OA
ATOM      6  C   UNL     1       8.732   1.635  23.518  0.00  0.00    +0.119 A 
ATOM      7  C   UNL     1       9.202   2.952  23.363  0.00  0.00    +0.029 A 
ATOM      8  C   UNL     1       8.336   4.023  23.558  0.00  0.00    +0.002 A 
ATOM      9  C   UNL     1       7.016   3.777  23.912  0.00  0.00    +0.001 A 
ATOM     10  C   UNL     1       6.571   2.459  24.065  0.00  0.00    +0.013 A 
ATOM     11  C   UNL     1       7.425   1.355  23.866  0.00  0.00    +0.045 A 
ATOM     12  C   UNL     1       6.939  -0.026  24.055  0.00  0.00    +0.153 C 
ATOM     13  C   UNL     1       7.675  -1.163  23.966  0.00  0.00    +0.155 C 
ENDROOT
BRANCH  13  14
ATOM     14  C   UNL     1       6.934  -2.443  24.329  0.00  0.00    +0.269 C 
ATOM     15  N   UNL     1       6.128  -3.013  23.380  0.00  0.00    -0.259 N 
ATOM     16  H   UNL     1       5.953  -2.548  22.502  0.00  0.00    +0.157 HD
ATOM     17  C   UNL     1       5.398  -4.170  23.541  0.00  0.00    +0.165 A 
ATOM     18  S   UNL     1       5.491  -5.156  24.932  0.00  0.00    -0.057 S 
ATOM     19  C   UNL     1       4.287  -6.194  24.305  0.00  0.00    +0.008 A 
ATOM     20  C   UNL     1       3.779  -7.339  25.102  0.00  0.00    +0.053 C 
ATOM     21  C   UNL     1       3.933  -5.752  23.043  0.00  0.00    +0.124 A 
ATOM     22  N   UNL     1       4.578  -4.603  22.605  0.00  0.00    -0.233 NA
ATOM     23  O   UNL     1       7.029  -2.840  25.493  0.00  0.00    -0.268 OA
ENDBRANCH  13  14
BRANCH  12  24
ATOM     24  O   UNL     1       5.580  -0.036  24.366  0.00  0.00    -0.504 OA
ATOM     25  H   UNL     1       5.395  -0.741  25.025  0.00  0.00    +0.292 HD
ENDBRANCH  12  24
TORSDOF 2
ENDMDL
MODEL 5
REMARK VINA RESULT:      -6.6      3.327      8.415
REMARK  Name = 
REMARK  4 active torsions:
REMARK  status: ('A' for Active; 'I' for Inactive)
REMARK    1  A    between atoms: C_1  and  N_2
REMARK    2  A    between atoms: C_3  and  C_4
REMARK    3  A    between atoms: C_10  and  C_11
REMARK    4  A    between atoms: C_13  and  O_14
REMARK                            x       y       z     vdW  Elec       q    Type
REMARK                         _______ _______ _______ _____ _____    ______ ____
ROOT
ATOM      1  C   UNL     1       6.364  -3.256  21.877  0.00  0.00    +0.158 C 
ATOM      2  N   UNL     1       6.520  -3.701  23.271  0.00  0.00    -0.197 N 
ATOM      3  S   UNL     1       5.562  -5.057  23.609  0.00  0.00    +0.075 S 
ATOM      4  O   UNL     1       4.180  -4.673  23.392  0.00  0.00    -0.150 OA
ATOM      5  O   UNL     1       6.139  -6.170  22.885  0.00  0.00    -0.150 OA
ATOM      6  C   UNL     1       5.714  -5.419  25.302  0.00  0.00    +0.119 A 
ATOM      7  C   UNL     1       4.916  -6.453  25.826  0.00  0.00    +0.029 A 
ATOM      8  C   UNL     1       4.995  -6.770  27.178  0.00  0.00    +0.002 A 
ATOM      9  C   UNL     1       5.860  -6.055  27.996  0.00  0.00    +0.001 A 
ATOM     10  C   UNL     1       6.642  -5.028  27.455  0.00  0.00    +0.013 A 
ATOM     11  C   UNL     1       6.586  -4.691  26.087  0.00  0.00    +0.045 A 
ATOM     12  C   UNL     1       7.404  -3.589  25.542  0.00  0.00    +0.153 C 
ATOM     13  C   UNL     1       7.387  -3.121  24.268  0.00  0.00    +0.155 C 
ENDROOT
BRANCH  13  14
ATOM     14  C   UNL     1       8.251  -1.893  24.019  0.00  0.00    +0.269 C 
ATOM     15  N   UNL     1       7.847  -0.700  24.556  0.00  0.00    -0.259 N 
ATOM     16  H   UNL     1       6.955  -0.616  25.019  0.00  0.00    +0.157 HD
ATOM     17  C   UNL     1       8.515   0.499  24.435  0.00  0.00    +0.165 A 
ATOM     18  S   UNL     1      10.043   0.655  23.688  0.00  0.00    -0.057 S 
ATOM     19  C   UNL     1      10.009   2.346  23.919  0.00  0.00    +0.008 A 
ATOM     20  C   UNL     1      11.100   3.208  23.396  0.00  0.00    +0.053 C 
ATOM     21  C   UNL     1       8.856   2.679  24.606  0.00  0.00    +0.124 A 
ATOM     22  N   UNL     1       8.011   1.620  24.909  0.00  0.00    -0.233 NA
ATOM     23  O   UNL     1       9.218  -2.026  23.265  0.00  0.00    -0.268 OA
ENDBRANCH  13  14
BRANCH  12  24
ATOM     24  O   UNL     1       8.222  -3.042  26.529  0.00  0.00    -0.504 OA
ATOM     25  H   UNL     1       8.752  -3.753  26.952  0.00  0.00    +0.292 HD
ENDBRANCH  12  24
TORSDOF 2
ENDMDL
MODEL 6
REMARK VINA RESULT:      -6.5      2.607      3.908
REMARK  Name = 
REMARK  4 active torsions:
REMARK  status: ('A' for Active; 'I' for Inactive)
REMARK    1  A    between atoms: C_1  and  N_2
REMARK    2  A    between atoms: C_3  and  C_4
REMARK    3  A    between atoms: C_10  and  C_11
REMARK    4  A    between atoms: C_13  and  O_14
REMARK                            x       y       z     vdW  Elec       q    Type
REMARK                         _______ _______ _______ _____ _____    ______ ____
ROOT
ATOM      1  C   UNL     1       9.866  -1.845  22.967  0.00  0.00    +0.158 C 
ATOM      2  N   UNL     1       9.016  -0.694  23.315  0.00  0.00    -0.197 N 
ATOM      3  S   UNL     1       9.884   0.760  23.289  0.00  0.00    +0.075 S 
ATOM      4  O   UNL     1      10.944   0.647  24.272  0.00  0.00    -0.150 OA
ATOM      5  O   UNL     1      10.194   1.040  21.902  0.00  0.00    -0.150 OA
ATOM      6  C   UNL     1       8.832   2.029  23.838  0.00  0.00    +0.119 A 
ATOM      7  C   UNL     1       9.381   3.314  23.996  0.00  0.00    +0.029 A 
ATOM      8  C   UNL     1       8.580   4.359  24.446  0.00  0.00    +0.002 A 
ATOM      9  C   UNL     1       7.245   4.115  24.740  0.00  0.00    +0.001 A 
ATOM     10  C   UNL     1       6.720   2.828  24.580  0.00  0.00    +0.013 A 
ATOM     11  C   UNL     1       7.508   1.753  24.119  0.00  0.00    +0.045 A 
ATOM     12  C   UNL     1       6.939   0.399  23.978  0.00  0.00    +0.153 C 
ATOM     13  C   UNL     1       7.606  -0.727  23.618  0.00  0.00    +0.155 C 
ENDROOT
BRANCH  13  14
ATOM     14  C   UNL     1       6.787  -2.010  23.673  0.00  0.00    +0.269 C 
ATOM     15  N   UNL     1       6.952  -2.835  24.753  0.00  0.00    -0.259 N 
ATOM     16  H   UNL     1       7.665  -2.650  25.442  0.00  0.00    +0.157 HD
ATOM     17  C   UNL     1       6.285  -4.023  24.961  0.00  0.00    +0.165 A 
ATOM     18  S   UNL     1       5.035  -4.591  23.947  0.00  0.00    -0.057 S 
ATOM     19  C   UNL     1       4.909  -6.025  24.867  0.00  0.00    +0.008 A 
ATOM     20  C   UNL     1       3.974  -7.106  24.467  0.00  0.00    +0.053 C 
ATOM     21  C   UNL     1       5.793  -5.952  25.928  0.00  0.00    +0.124 A 
ATOM     22  N   UNL     1       6.569  -4.801  25.986  0.00  0.00    -0.233 NA
ATOM     23  O   UNL     1       6.090  -2.277  22.691  0.00  0.00    -0.268 OA
ENDBRANCH  13  14
BRANCH  12  24
ATOM     24  O   UNL     1       5.579   0.397  24.288  0.00  0.00    -0.504 OA
ATOM     25  H   UNL     1       5.293  -0.514  24.522  0.00  0.00    +0.292 HD
ENDBRANCH  12  24
TORSDOF 2
ENDMDL
MODEL 7
REMARK VINA RESULT:      -6.5      3.750      5.787
REMARK  Name = 
REMARK  4 active torsions:
REMARK  status: ('A' for Active; 'I' for Inactive)
REMARK    1  A    between atoms: C_1  and  N_2
REMARK    2  A    between atoms: C_3  and  C_4
REMARK    3  A    between atoms: C_10  and  C_11
REMARK    4  A    between atoms: C_13  and  O_14
REMARK                            x       y       z     vdW  Elec       q    Type
REMARK                         _______ _______ _______ _____ _____    ______ ____
ROOT
ATOM      1  C   UNL     1       8.157  -4.538  23.814  0.00  0.00    +0.158 C 
ATOM      2  N   UNL     1       8.152  -3.108  24.162  0.00  0.00    -0.197 N 
ATOM      3  S   UNL     1       9.166  -2.210  23.144  0.00  0.00    +0.075 S 
ATOM      4  O   UNL     1      10.510  -2.727  23.311  0.00  0.00    -0.150 OA
ATOM      5  O   UNL     1       8.540  -2.191  21.838  0.00  0.00    -0.150 OA
ATOM      6  C   UNL     1       9.192  -0.570  23.717  0.00  0.00    +0.119 A 
ATOM      7  C   UNL     1      10.060   0.335  23.077  0.00  0.00    +0.029 A 
ATOM      8  C   UNL     1      10.124   1.656  23.509  0.00  0.00    +0.002 A 
ATOM      9  C   UNL     1       9.332   2.063  24.574  0.00  0.00    +0.001 A 
ATOM     10  C   UNL     1       8.479   1.146  25.199  0.00  0.00    +0.013 A 
ATOM     11  C   UNL     1       8.389  -0.197  24.777  0.00  0.00    +0.045 A 
ATOM     12  C   UNL     1       7.499  -1.152  25.465  0.00  0.00    +0.153 C 
ATOM     13  C   UNL     1       7.378  -2.479  25.204  0.00  0.00    +0.155 C 
ENDROOT
BRANCH  13  14
ATOM     14  C   UNL     1       6.468  -3.244  26.155  0.00  0.00    +0.269 C 
ATOM     15  N   UNL     1       7.019  -4.248  26.907  0.00  0.00    -0.259 N 
ATOM     16  H   UNL     1       7.975  -4.537  26.765  0.00  0.00    +0.157 HD
ATOM     17  C   UNL     1       6.342  -5.028  27.819  0.00  0.00    +0.165 A 
ATOM     18  S   UNL     1       4.710  -4.771  28.249  0.00  0.00    -0.057 S 
ATOM     19  C   UNL     1       4.737  -6.145  29.263  0.00  0.00    +0.008 A 
ATOM     20  C   UNL     1       3.510  -6.595  29.968  0.00  0.00    +0.053 C 
ATOM     21  C   UNL     1       6.012  -6.680  29.254  0.00  0.00    +0.124 A 
ATOM     22  N   UNL     1       6.929  -6.032  28.436  0.00  0.00    -0.233 NA
ATOM     23  O   UNL     1       5.265  -2.977  26.123  0.00  0.00    -0.268 OA
ENDBRANCH  13  14
BRANCH  12  24
ATOM     24  O   UNL     1       6.774  -0.518  26.472  0.00  0.00    -0.504 OA
ATOM     25  H   UNL     1       7.209   0.329  26.713  0.00  0.00    +0.292 HD
ENDBRANCH  12  24
TORSDOF 2
ENDMDL
MODEL 8
REMARK VINA RESULT:      -6.4      3.841      5.456
REMARK  Name = 
REMARK  4 active torsions:
REMARK  status: ('A' for Active; 'I' for Inactive)
REMARK    1  A    between atoms: C_1  and  N_2
REMARK    2  A    between atoms: C_3  and  C_4
REMARK    3  A    between atoms: C_10  and  C_11
REMARK    4  A    between atoms: C_13  and  O_14
REMARK                            x       y       z     vdW  Elec       q    Type
REMARK                         _______ _______ _______ _____ _____    ______ ____
ROOT
ATOM      1  C   UNL     1       6.033  -1.897  26.942  0.00  0.00    +0.158 C 
ATOM      2  N   UNL     1       6.803  -1.872  25.687  0.00  0.00    -0.197 N 
ATOM      3  S   UNL     1       7.792  -0.500  25.584  0.00  0.00    +0.075 S 
ATOM      4  O   UNL     1       6.924   0.661  25.624  0.00  0.00    -0.150 OA
ATOM      5  O   UNL     1       8.845  -0.667  26.563  0.00  0.00    -0.150 OA
ATOM      6  C   UNL     1       8.550  -0.497  24.020  0.00  0.00    +0.119 A 
ATOM      7  C   UNL     1       9.340   0.616  23.677  0.00  0.00    +0.029 A 
ATOM      8  C   UNL     1       9.957   0.668  22.431  0.00  0.00    +0.002 A 
ATOM      9  C   UNL     1       9.778  -0.379  21.537  0.00  0.00    +0.001 A 
ATOM     10  C   UNL     1       8.984  -1.475  21.898  0.00  0.00    +0.013 A 
ATOM     11  C   UNL     1       8.354  -1.556  23.157  0.00  0.00    +0.045 A 
ATOM     12  C   UNL     1       7.503  -2.711  23.507  0.00  0.00    +0.153 C 
ATOM     13  C   UNL     1       6.787  -2.873  24.649  0.00  0.00    +0.155 C 
ENDROOT
BRANCH  13  14
ATOM     14  C   UNL     1       5.903  -4.111  24.687  0.00  0.00    +0.269 C 
ATOM     15  N   UNL     1       4.805  -4.145  23.869  0.00  0.00    -0.259 N 
ATOM     16  H   UNL     1       4.535  -3.336  23.330  0.00  0.00    +0.157 HD
ATOM     17  C   UNL     1       3.910  -5.189  23.774  0.00  0.00    +0.165 A 
ATOM     18  S   UNL     1       4.111  -6.678  24.584  0.00  0.00    -0.057 S 
ATOM     19  C   UNL     1       2.612  -7.234  23.983  0.00  0.00    +0.008 A 
ATOM     20  C   UNL     1       2.074  -8.558  24.386  0.00  0.00    +0.053 C 
ATOM     21  C   UNL     1       2.080  -6.266  23.151  0.00  0.00    +0.124 A 
ATOM     22  N   UNL     1       2.830  -5.104  23.025  0.00  0.00    -0.233 NA
ATOM     23  O   UNL     1       6.175  -4.974  25.525  0.00  0.00    -0.268 OA
ENDBRANCH  13  14
BRANCH  12  24
ATOM     24  O   UNL     1       7.500  -3.655  22.481  0.00  0.00    -0.504 OA
ATOM     25  H   UNL     1       7.139  -4.506  22.814  0.00  0.00    +0.292 HD
ENDBRANCH  12  24
TORSDOF 2
ENDMDL
MODEL 9
REMARK VINA RESULT:      -6.1      2.375      3.327
REMARK  Name = 
REMARK  4 active torsions:
REMARK  status: ('A' for Active; 'I' for Inactive)
REMARK    1  A    between atoms: C_1  and  N_2
REMARK    2  A    between atoms: C_3  and  C_4
REMARK    3  A    between atoms: C_10  and  C_11
REMARK    4  A    between atoms: C_13  and  O_14
REMARK                            x       y       z     vdW  Elec       q    Type
REMARK                         _______ _______ _______ _____ _____    ______ ____
ROOT
ATOM      1  C   UNL     1       9.525   1.720  21.957  0.00  0.00    +0.158 C 
ATOM      2  N   UNL     1       8.820   1.991  23.220  0.00  0.00    -0.197 N 
ATOM      3  S   UNL     1       8.844   3.639  23.612  0.00  0.00    +0.075 S 
ATOM      4  O   UNL     1      10.234   4.027  23.758  0.00  0.00    -0.150 OA
ATOM      5  O   UNL     1       7.989   4.311  22.655  0.00  0.00    -0.150 OA
ATOM      6  C   UNL     1       8.108   3.836  25.174  0.00  0.00    +0.119 A 
ATOM      7  C   UNL     1       8.116   5.121  25.745  0.00  0.00    +0.029 A 
ATOM      8  C   UNL     1       7.549   5.324  27.000  0.00  0.00    +0.002 A 
ATOM      9  C   UNL     1       6.988   4.248  27.676  0.00  0.00    +0.001 A 
ATOM     10  C   UNL     1       6.996   2.977  27.091  0.00  0.00    +0.013 A 
ATOM     11  C   UNL     1       7.556   2.745  25.817  0.00  0.00    +0.045 A 
ATOM     12  C   UNL     1       7.573   1.392  25.229  0.00  0.00    +0.153 C 
ATOM     13  C   UNL     1       8.144   1.027  24.053  0.00  0.00    +0.155 C 
ENDROOT
BRANCH  13  14
ATOM     14  C   UNL     1       8.110  -0.466  23.754  0.00  0.00    +0.269 C 
ATOM     15  N   UNL     1       7.030  -0.963  23.075  0.00  0.00    -0.259 N 
ATOM     16  H   UNL     1       6.235  -0.378  22.866  0.00  0.00    +0.157 HD
ATOM     17  C   UNL     1       6.848  -2.281  22.718  0.00  0.00    +0.165 A 
ATOM     18  S   UNL     1       8.025  -3.495  22.960  0.00  0.00    -0.057 S 
ATOM     19  C   UNL     1       6.962  -4.681  22.346  0.00  0.00    +0.008 A 
ATOM     20  C   UNL     1       7.349  -6.115  22.329  0.00  0.00    +0.053 C 
ATOM     21  C   UNL     1       5.793  -4.065  21.939  0.00  0.00    +0.124 A 
ATOM     22  N   UNL     1       5.736  -2.692  22.142  0.00  0.00    -0.233 NA
ATOM     23  O   UNL     1       9.016  -1.157  24.226  0.00  0.00    -0.268 OA
ENDBRANCH  13  14
BRANCH  12  24
ATOM     24  O   UNL     1       6.922   0.481  26.060  0.00  0.00    -0.504 OA
ATOM     25  H   UNL     1       6.243   0.947  26.596  0.00  0.00    +0.292 HD
ENDBRANCH  12  24
TORSDOF 2
ENDMDL
