MODEL 1
REMARK VINA RESULT:      -6.0      0.000      0.000
REMARK  Name = 
REMARK  5 active torsions:
REMARK  status: ('A' for Active; 'I' for Inactive)
REMARK    1  A    between atoms: N_1  and  CA_2
REMARK    2  A    between atoms: CA_2  and  C_4
REMARK    3  A    between atoms: CA_2  and  C_16
REMARK    4  A    between atoms: C_4  and  N_5
REMARK    5  A    between atoms: C_16  and  O_17
REMARK                            x       y       z     vdW  Elec       q    Type
REMARK                         _______ _______ _______ _____ _____    ______ ____
ROOT
ATOM      1  N   UNL     1       8.706  -1.464  24.730  0.00  0.00    -0.295 N 
ATOM      2  C   UNL     1       9.073  -0.729  25.861  0.00  0.00    +0.330 A 
ATOM      3  O   UNL     1       8.897  -1.125  27.013  0.00  0.00    -0.246 OA
ATOM      4  N   UNL     1       9.720   0.459  25.634  0.00  0.00    -0.275 N 
ATOM      5  H   UNL     1      10.024   0.973  26.445  0.00  0.00    +0.173 HD
ATOM      6  C   UNL     1      10.114   0.945  24.419  0.00  0.00    +0.257 A 
ATOM      7  O   UNL     1      10.788   1.959  24.290  0.00  0.00    -0.267 OA
ATOM      8  C   UNL     1       9.661   0.156  23.278  0.00  0.00    +0.036 A 
ATOM      9  C   UNL     1       9.867   0.508  21.855  0.00  0.00    +0.043 C 
ATOM     10  C   UNL     1       9.226  -0.674  21.119  0.00  0.00    +0.011 C 
ATOM     11  C   UNL     1       8.545  -1.562  22.170  0.00  0.00    +0.054 C 
ATOM     12  C   UNL     1       8.979  -0.972  23.469  0.00  0.00    +0.032 A 
ENDROOT
BRANCH   1  13
ATOM     13  C   UNL     1       8.035  -2.762  24.922  0.00  0.00    +0.156 C 
BRANCH  13  14
ATOM     14  CA  UNL     1       8.916  -4.008  24.653  0.00  0.00    +0.181 C 
BRANCH  14  15
ATOM     15  N   UNL     1       8.347  -5.004  23.687  0.00  0.00    -0.317 NA
ATOM     16  H1  UNL     1       7.510  -5.421  24.112  0.00  0.00    +0.119 HD
ATOM     17  H2  UNL     1       7.917  -4.464  22.926  0.00  0.00    +0.119 HD
ENDBRANCH  14  15
BRANCH  14  18
ATOM     18  C   UNL     1       9.265  -4.738  25.954  0.00  0.00    +0.323 C 
ATOM     19  OXT UNL     1       8.682  -4.596  27.017  0.00  0.00    -0.249 OA
BRANCH  18  20
ATOM     20  O   UNL     1      10.337  -5.557  25.799  0.00  0.00    -0.479 OA
ATOM     21  H   UNL     1      10.278  -5.895  24.869  0.00  0.00    +0.295 HD
ENDBRANCH  18  20
ENDBRANCH  14  18
ENDBRANCH  13  14
ENDBRANCH   1  13
TORSDOF 5
ENDMDL
MODEL 2
REMARK VINA RESULT:      -5.9      2.856      5.859
REMARK  Name = 
REMARK  5 active torsions:
REMARK  status: ('A' for Active; 'I' for Inactive)
REMARK    1  A    between atoms: N_1  and  CA_2
REMARK    2  A    between atoms: CA_2  and  C_4
REMARK    3  A    between atoms: CA_2  and  C_16
REMARK    4  A    between atoms: C_4  and  N_5
REMARK    5  A    between atoms: C_16  and  O_17
REMARK                            x       y       z     vdW  Elec       q    Type
REMARK                         _______ _______ _______ _____ _____    ______ ____
ROOT
ATOM      1  N   UNL     1       7.700  -4.570  24.553  0.00  0.00    -0.295 N 
ATOM      2  C   UNL     1       8.804  -5.042  25.268  0.00  0.00    +0.330 A 
ATOM      3  O   UNL     1       9.966  -4.911  24.884  0.00  0.00    -0.246 OA
ATOM      4  N   UNL     1       8.543  -5.617  26.485  0.00  0.00    -0.275 N 
ATOM      5  H   UNL     1       9.338  -5.922  27.024  0.00  0.00    +0.173 HD
ATOM      6  C   UNL     1       7.324  -5.692  27.098  0.00  0.00    +0.257 A 
ATOM      7  O   UNL     1       7.172  -6.117  28.237  0.00  0.00    -0.267 OA
ATOM      8  C   UNL     1       6.208  -5.224  26.282  0.00  0.00    +0.036 A 
ATOM      9  C   UNL     1       4.780  -5.282  26.667  0.00  0.00    +0.043 C 
ATOM     10  C   UNL     1       4.081  -4.635  25.467  0.00  0.00    +0.011 C 
ATOM     11  C   UNL     1       5.144  -4.387  24.388  0.00  0.00    +0.054 C 
ATOM     12  C   UNL     1       6.429  -4.715  25.071  0.00  0.00    +0.032 A 
ENDROOT
BRANCH   1  13
ATOM     13  C   UNL     1       7.930  -3.916  23.252  0.00  0.00    +0.156 C 
BRANCH  13  14
ATOM     14  CA  UNL     1       8.097  -2.376  23.305  0.00  0.00    +0.181 C 
BRANCH  14  15
ATOM     15  N   UNL     1       6.940  -1.584  22.776  0.00  0.00    -0.317 NA
ATOM     16  H1  UNL     1       6.831  -1.802  21.778  0.00  0.00    +0.119 HD
ATOM     17  H2  UNL     1       6.088  -2.018  23.153  0.00  0.00    +0.119 HD
ENDBRANCH  14  15
BRANCH  14  18
ATOM     18  C   UNL     1       9.368  -1.926  22.578  0.00  0.00    +0.323 C 
ATOM     19  OXT UNL     1       9.403  -1.127  21.655  0.00  0.00    -0.249 OA
BRANCH  18  20
ATOM     20  O   UNL     1      10.473  -2.547  23.065  0.00  0.00    -0.479 OA
ATOM     21  H   UNL     1      10.235  -2.825  23.986  0.00  0.00    +0.295 HD
ENDBRANCH  18  20
ENDBRANCH  14  18
ENDBRANCH  13  14
ENDBRANCH   1  13
TORSDOF 5
ENDMDL
MODEL 3
REMARK VINA RESULT:      -5.8      2.286      5.286
REMARK  Name = 
REMARK  5 active torsions:
REMARK  status: ('A' for Active; 'I' for Inactive)
REMARK    1  A    between atoms: N_1  and  CA_2
REMARK    2  A    between atoms: CA_2  and  C_4
REMARK    3  A    between atoms: CA_2  and  C_16
REMARK    4  A    between atoms: C_4  and  N_5
REMARK    5  A    between atoms: C_16  and  O_17
REMARK                            x       y       z     vdW  Elec       q    Type
REMARK                         _______ _______ _______ _____ _____    ______ ____
ROOT
ATOM      1  N   UNL     1       8.243  -2.168  23.341  0.00  0.00    -0.295 N 
ATOM      2  C   UNL     1       9.196  -2.261  24.360  0.00  0.00    +0.330 A 
ATOM      3  O   UNL     1       9.826  -1.296  24.788  0.00  0.00    -0.246 OA
ATOM      4  N   UNL     1       9.360  -3.498  24.930  0.00  0.00    -0.275 N 
ATOM      5  H   UNL     1      10.015  -3.563  25.693  0.00  0.00    +0.173 HD
ATOM      6  C   UNL     1       8.624  -4.617  24.658  0.00  0.00    +0.257 A 
ATOM      7  O   UNL     1       8.744  -5.664  25.282  0.00  0.00    -0.267 OA
ATOM      8  C   UNL     1       7.680  -4.465  23.556  0.00  0.00    +0.036 A 
ATOM      9  C   UNL     1       6.832  -5.543  22.998  0.00  0.00    +0.043 C 
ATOM     10  C   UNL     1       6.036  -4.816  21.909  0.00  0.00    +0.011 C 
ATOM     11  C   UNL     1       6.594  -3.390  21.799  0.00  0.00    +0.054 C 
ATOM     12  C   UNL     1       7.543  -3.290  22.946  0.00  0.00    +0.032 A 
ENDROOT
BRANCH   1  13
ATOM     13  C   UNL     1       8.007  -0.853  22.717  0.00  0.00    +0.156 C 
BRANCH  13  14
ATOM     14  CA  UNL     1       9.063  -0.420  21.668  0.00  0.00    +0.181 C 
BRANCH  14  15
ATOM     15  N   UNL     1      10.214  -1.362  21.483  0.00  0.00    -0.317 NA
ATOM     16  H1  UNL     1      11.022  -0.985  21.992  0.00  0.00    +0.119 HD
ATOM     17  H2  UNL     1      10.009  -2.193  22.053  0.00  0.00    +0.119 HD
ENDBRANCH  14  15
BRANCH  14  18
ATOM     18  C   UNL     1       9.620   0.973  21.978  0.00  0.00    +0.323 C 
ATOM     19  OXT UNL     1      10.422   1.228  22.863  0.00  0.00    -0.249 OA
BRANCH  18  20
ATOM     20  O   UNL     1       9.092   1.920  21.159  0.00  0.00    -0.479 OA
ATOM     21  H   UNL     1       9.603   1.852  20.313  0.00  0.00    +0.295 HD
ENDBRANCH  18  20
ENDBRANCH  14  18
ENDBRANCH  13  14
ENDBRANCH   1  13
TORSDOF 5
ENDMDL
MODEL 4
REMARK VINA RESULT:      -5.6      2.463      2.931
REMARK  Name = 
REMARK  5 active torsions:
REMARK  status: ('A' for Active; 'I' for Inactive)
REMARK    1  A    between atoms: N_1  and  CA_2
REMARK    2  A    between atoms: CA_2  and  C_4
REMARK    3  A    between atoms: CA_2  and  C_16
REMARK    4  A    between atoms: C_4  and  N_5
REMARK    5  A    between atoms: C_16  and  O_17
REMARK                            x       y       z     vdW  Elec       q    Type
REMARK                         _______ _______ _______ _____ _____    ______ ____
ROOT
ATOM      1  N   UNL     1       7.682  -2.955  23.722  0.00  0.00    -0.295 N 
ATOM      2  C   UNL     1       6.312  -2.696  23.815  0.00  0.00    +0.330 A 
ATOM      3  O   UNL     1       5.474  -3.563  24.062  0.00  0.00    -0.246 OA
ATOM      4  N   UNL     1       5.927  -1.387  23.684  0.00  0.00    -0.275 N 
ATOM      5  H   UNL     1       4.945  -1.188  23.792  0.00  0.00    +0.173 HD
ATOM      6  C   UNL     1       6.759  -0.309  23.559  0.00  0.00    +0.257 A 
ATOM      7  O   UNL     1       6.359   0.849  23.559  0.00  0.00    -0.267 OA
ATOM      8  C   UNL     1       8.171  -0.650  23.423  0.00  0.00    +0.036 A 
ATOM      9  C   UNL     1       9.267   0.316  23.180  0.00  0.00    +0.043 C 
ATOM     10  C   UNL     1      10.508  -0.582  23.161  0.00  0.00    +0.011 C 
ATOM     11  C   UNL     1      10.030  -2.039  23.234  0.00  0.00    +0.054 C 
ATOM     12  C   UNL     1       8.565  -1.920  23.487  0.00  0.00    +0.032 A 
ENDROOT
BRANCH   1  13
ATOM     13  C   UNL     1       8.149  -4.343  23.887  0.00  0.00    +0.156 C 
BRANCH  13  14
ATOM     14  CA  UNL     1       8.768  -4.674  25.269  0.00  0.00    +0.181 C 
BRANCH  14  15
ATOM     15  N   UNL     1       9.941  -5.607  25.243  0.00  0.00    -0.317 NA
ATOM     16  H1  UNL     1      10.611  -5.262  24.546  0.00  0.00    +0.119 HD
ATOM     17  H2  UNL     1      10.471  -5.438  26.107  0.00  0.00    +0.119 HD
ENDBRANCH  14  15
BRANCH  14  18
ATOM     18  C   UNL     1       7.718  -5.238  26.231  0.00  0.00    +0.323 C 
ATOM     19  OXT UNL     1       7.840  -5.301  27.445  0.00  0.00    -0.249 OA
BRANCH  18  20
ATOM     20  O   UNL     1       6.625  -5.697  25.570  0.00  0.00    -0.479 OA
ATOM     21  H   UNL     1       6.936  -5.893  24.649  0.00  0.00    +0.295 HD
ENDBRANCH  18  20
ENDBRANCH  14  18
ENDBRANCH  13  14
ENDBRANCH   1  13
TORSDOF 5
ENDMDL
MODEL 5
REMARK VINA RESULT:      -5.4      2.076      2.862
REMARK  Name = 
REMARK  5 active torsions:
REMARK  status: ('A' for Active; 'I' for Inactive)
REMARK    1  A    between atoms: N_1  and  CA_2
REMARK    2  A    between atoms: CA_2  and  C_4
REMARK    3  A    between atoms: CA_2  and  C_16
REMARK    4  A    between atoms: C_4  and  N_5
REMARK    5  A    between atoms: C_16  and  O_17
REMARK                            x       y       z     vdW  Elec       q    Type
REMARK                         _______ _______ _______ _____ _____    ______ ____
ROOT
ATOM      1  N   UNL     1       9.002  -1.991  25.096  0.00  0.00    -0.295 N 
ATOM      2  C   UNL     1       9.732  -2.659  24.109  0.00  0.00    +0.330 A 
ATOM      3  O   UNL     1      10.089  -3.832  24.210  0.00  0.00    -0.246 OA
ATOM      4  N   UNL     1       9.986  -1.960  22.958  0.00  0.00    -0.275 N 
ATOM      5  H   UNL     1      10.476  -2.450  22.226  0.00  0.00    +0.173 HD
ATOM      6  C   UNL     1       9.521  -0.711  22.652  0.00  0.00    +0.257 A 
ATOM      7  O   UNL     1       9.689  -0.183  21.560  0.00  0.00    -0.267 OA
ATOM      8  C   UNL     1       8.806  -0.050  23.739  0.00  0.00    +0.036 A 
ATOM      9  C   UNL     1       8.284   1.335  23.706  0.00  0.00    +0.043 C 
ATOM     10  C   UNL     1       7.612   1.474  25.076  0.00  0.00    +0.011 C 
ATOM     11  C   UNL     1       7.930   0.206  25.881  0.00  0.00    +0.054 C 
ATOM     12  C   UNL     1       8.597  -0.687  24.890  0.00  0.00    +0.032 A 
ENDROOT
BRANCH   1  13
ATOM     13  C   UNL     1       8.677  -2.710  26.340  0.00  0.00    +0.156 C 
BRANCH  13  14
ATOM     14  CA  UNL     1       7.515  -3.730  26.231  0.00  0.00    +0.181 C 
BRANCH  14  15
ATOM     15  N   UNL     1       6.236  -3.324  26.899  0.00  0.00    -0.317 NA
ATOM     16  H1  UNL     1       5.535  -4.055  26.723  0.00  0.00    +0.119 HD
ATOM     17  H2  UNL     1       6.378  -3.446  27.910  0.00  0.00    +0.119 HD
ENDBRANCH  14  15
BRANCH  14  18
ATOM     18  C   UNL     1       7.926  -5.106  26.764  0.00  0.00    +0.323 C 
ATOM     19  OXT UNL     1       7.408  -5.675  27.712  0.00  0.00    -0.249 OA
BRANCH  18  20
ATOM     20  O   UNL     1       8.971  -5.623  26.069  0.00  0.00    -0.479 OA
ATOM     21  H   UNL     1       9.716  -5.684  26.719  0.00  0.00    +0.295 HD
ENDBRANCH  18  20
ENDBRANCH  14  18
ENDBRANCH  13  14
ENDBRANCH   1  13
TORSDOF 5
ENDMDL
MODEL 6
REMARK VINA RESULT:      -5.4      3.711      6.852
REMARK  Name = 
REMARK  5 active torsions:
REMARK  status: ('A' for Active; 'I' for Inactive)
REMARK    1  A    between atoms: N_1  and  CA_2
REMARK    2  A    between atoms: CA_2  and  C_4
REMARK    3  A    between atoms: CA_2  and  C_16
REMARK    4  A    between atoms: C_4  and  N_5
REMARK    5  A    between atoms: C_16  and  O_17
REMARK                            x       y       z     vdW  Elec       q    Type
REMARK                         _______ _______ _______ _____ _____    ______ ____
ROOT
ATOM      1  N   UNL     1       6.840  -5.337  24.016  0.00  0.00    -0.295 N 
ATOM      2  C   UNL     1       6.175  -5.831  22.891  0.00  0.00    +0.330 A 
ATOM      3  O   UNL     1       6.588  -5.684  21.741  0.00  0.00    -0.246 OA
ATOM      4  N   UNL     1       5.044  -6.569  23.125  0.00  0.00    -0.275 N 
ATOM      5  H   UNL     1       4.583  -6.963  22.321  0.00  0.00    +0.173 HD
ATOM      6  C   UNL     1       4.559  -6.937  24.349  0.00  0.00    +0.257 A 
ATOM      7  O   UNL     1       3.605  -7.693  24.492  0.00  0.00    -0.267 OA
ATOM      8  C   UNL     1       5.270  -6.352  25.481  0.00  0.00    +0.036 A 
ATOM      9  C   UNL     1       4.896  -6.510  26.905  0.00  0.00    +0.043 C 
ATOM     10  C   UNL     1       5.993  -5.725  27.631  0.00  0.00    +0.011 C 
ATOM     11  C   UNL     1       6.847  -5.026  26.565  0.00  0.00    +0.054 C 
ATOM     12  C   UNL     1       6.338  -5.583  25.278  0.00  0.00    +0.032 A 
ENDROOT
BRANCH   1  13
ATOM     13  C   UNL     1       8.079  -4.563  23.818  0.00  0.00    +0.156 C 
BRANCH  13  14
ATOM     14  CA  UNL     1       7.881  -3.041  23.599  0.00  0.00    +0.181 C 
BRANCH  14  15
ATOM     15  N   UNL     1       7.447  -2.639  22.222  0.00  0.00    -0.317 NA
ATOM     16  H1  UNL     1       7.526  -1.617  22.146  0.00  0.00    +0.119 HD
ATOM     17  H2  UNL     1       8.196  -2.929  21.580  0.00  0.00    +0.119 HD
ENDBRANCH  14  15
BRANCH  14  18
ATOM     18  C   UNL     1       9.146  -2.255  23.959  0.00  0.00    +0.323 C 
ATOM     19  OXT UNL     1       9.172  -1.079  24.289  0.00  0.00    -0.249 OA
BRANCH  18  20
ATOM     20  O   UNL     1      10.263  -3.018  23.842  0.00  0.00    -0.479 OA
ATOM     21  H   UNL     1       9.941  -3.955  23.824  0.00  0.00    +0.295 HD
ENDBRANCH  18  20
ENDBRANCH  14  18
ENDBRANCH  13  14
ENDBRANCH   1  13
TORSDOF 5
ENDMDL
MODEL 7
REMARK VINA RESULT:      -5.4      2.410      5.527
REMARK  Name = 
REMARK  5 active torsions:
REMARK  status: ('A' for Active; 'I' for Inactive)
REMARK    1  A    between atoms: N_1  and  CA_2
REMARK    2  A    between atoms: CA_2  and  C_4
REMARK    3  A    between atoms: CA_2  and  C_16
REMARK    4  A    between atoms: C_4  and  N_5
REMARK    5  A    between atoms: C_16  and  O_17
REMARK                            x       y       z     vdW  Elec       q    Type
REMARK                         _______ _______ _______ _____ _____    ______ ____
ROOT
ATOM      1  N   UNL     1       8.500  -1.350  22.662  0.00  0.00    -0.295 N 
ATOM      2  C   UNL     1       9.831  -1.424  23.084  0.00  0.00    +0.330 A 
ATOM      3  O   UNL     1      10.653  -0.529  22.890  0.00  0.00    -0.246 OA
ATOM      4  N   UNL     1      10.182  -2.537  23.803  0.00  0.00    -0.275 N 
ATOM      5  H   UNL     1      11.129  -2.577  24.146  0.00  0.00    +0.173 HD
ATOM      6  C   UNL     1       9.339  -3.530  24.218  0.00  0.00    +0.257 A 
ATOM      7  O   UNL     1       9.691  -4.442  24.955  0.00  0.00    -0.267 OA
ATOM      8  C   UNL     1       7.977  -3.417  23.708  0.00  0.00    +0.036 A 
ATOM      9  C   UNL     1       6.894  -4.404  23.925  0.00  0.00    +0.043 C 
ATOM     10  C   UNL     1       5.704  -3.762  23.205  0.00  0.00    +0.011 C 
ATOM     11  C   UNL     1       6.219  -2.514  22.476  0.00  0.00    +0.054 C 
ATOM     12  C   UNL     1       7.625  -2.376  22.957  0.00  0.00    +0.032 A 
ENDROOT
BRANCH   1  13
ATOM     13  C   UNL     1       8.065  -0.158  21.911  0.00  0.00    +0.156 C 
BRANCH  13  14
ATOM     14  CA  UNL     1       7.685   1.069  22.778  0.00  0.00    +0.181 C 
BRANCH  14  15
ATOM     15  N   UNL     1       6.215   1.328  22.919  0.00  0.00    -0.317 NA
ATOM     16  H1  UNL     1       6.035   1.638  23.882  0.00  0.00    +0.119 HD
ATOM     17  H2  UNL     1       6.018   2.197  22.406  0.00  0.00    +0.119 HD
ENDBRANCH  14  15
BRANCH  14  18
ATOM     18  C   UNL     1       8.357   2.346  22.264  0.00  0.00    +0.323 C 
ATOM     19  OXT UNL     1       7.941   3.480  22.446  0.00  0.00    -0.249 OA
BRANCH  18  20
ATOM     20  O   UNL     1       9.475   2.072  21.545  0.00  0.00    -0.479 OA
ATOM     21  H   UNL     1       9.688   2.908  21.058  0.00  0.00    +0.295 HD
ENDBRANCH  18  20
ENDBRANCH  14  18
ENDBRANCH  13  14
ENDBRANCH   1  13
TORSDOF 5
ENDMDL
MODEL 8
REMARK VINA RESULT:      -5.3      3.135      5.711
REMARK  Name = 
REMARK  5 active torsions:
REMARK  status: ('A' for Active; 'I' for Inactive)
REMARK    1  A    between atoms: N_1  and  CA_2
REMARK    2  A    between atoms: CA_2  and  C_4
REMARK    3  A    between atoms: CA_2  and  C_16
REMARK    4  A    between atoms: C_4  and  N_5
REMARK    5  A    between atoms: C_16  and  O_17
REMARK                            x       y       z     vdW  Elec       q    Type
REMARK                         _______ _______ _______ _____ _____    ______ ____
ROOT
ATOM      1  N   UNL     1       7.977  -4.845  24.837  0.00  0.00    -0.295 N 
ATOM      2  C   UNL     1       7.718  -5.139  26.178  0.00  0.00    +0.330 A 
ATOM      3  O   UNL     1       8.470  -4.821  27.099  0.00  0.00    -0.246 OA
ATOM      4  N   UNL     1       6.524  -5.756  26.449  0.00  0.00    -0.275 N 
ATOM      5  H   UNL     1       6.312  -5.933  27.418  0.00  0.00    +0.173 HD
ATOM      6  C   UNL     1       5.533  -6.029  25.547  0.00  0.00    +0.257 A 
ATOM      7  O   UNL     1       4.441  -6.480  25.869  0.00  0.00    -0.267 OA
ATOM      8  C   UNL     1       5.884  -5.741  24.160  0.00  0.00    +0.036 A 
ATOM      9  C   UNL     1       5.034  -6.029  22.982  0.00  0.00    +0.043 C 
ATOM     10  C   UNL     1       5.877  -5.495  21.820  0.00  0.00    +0.011 C 
ATOM     11  C   UNL     1       7.239  -5.073  22.388  0.00  0.00    +0.054 C 
ATOM     12  C   UNL     1       7.062  -5.196  23.864  0.00  0.00    +0.032 A 
ENDROOT
BRANCH   1  13
ATOM     13  C   UNL     1       9.235  -4.155  24.497  0.00  0.00    +0.156 C 
BRANCH  13  14
ATOM     14  CA  UNL     1       9.163  -2.607  24.507  0.00  0.00    +0.181 C 
BRANCH  14  15
ATOM     15  N   UNL     1       7.967  -2.020  25.193  0.00  0.00    -0.317 NA
ATOM     16  H1  UNL     1       7.244  -2.748  25.256  0.00  0.00    +0.119 HD
ATOM     17  H2  UNL     1       8.214  -1.922  26.186  0.00  0.00    +0.119 HD
ENDBRANCH  14  15
BRANCH  14  18
ATOM     18  C   UNL     1       9.239  -2.034  23.088  0.00  0.00    +0.323 C 
ATOM     19  OXT UNL     1       8.281  -1.658  22.431  0.00  0.00    -0.249 OA
BRANCH  18  20
ATOM     20  O   UNL     1      10.513  -2.018  22.620  0.00  0.00    -0.479 OA
ATOM     21  H   UNL     1      11.084  -2.235  23.400  0.00  0.00    +0.295 HD
ENDBRANCH  18  20
ENDBRANCH  14  18
ENDBRANCH  13  14
ENDBRANCH   1  13
TORSDOF 5
ENDMDL
MODEL 9
REMARK VINA RESULT:      -5.3      3.652      5.175
REMARK  Name = 
REMARK  5 active torsions:
REMARK  status: ('A' for Active; 'I' for Inactive)
REMARK    1  A    between atoms: N_1  and  CA_2
REMARK    2  A    between atoms: CA_2  and  C_4
REMARK    3  A    between atoms: CA_2  and  C_16
REMARK    4  A    between atoms: C_4  and  N_5
REMARK    5  A    between atoms: C_16  and  O_17
REMARK                            x       y       z     vdW  Elec       q    Type
REMARK                         _______ _______ _______ _____ _____    ______ ____
ROOT
ATOM      1  N   UNL     1       6.537  -5.539  25.613  0.00  0.00    -0.295 N 
ATOM      2  C   UNL     1       7.625  -5.364  26.473  0.00  0.00    +0.330 A 
ATOM      3  O   UNL     1       7.692  -5.874  27.591  0.00  0.00    -0.246 OA
ATOM      4  N   UNL     1       8.679  -4.636  25.986  0.00  0.00    -0.275 N 
ATOM      5  H   UNL     1       9.483  -4.541  26.585  0.00  0.00    +0.173 HD
ATOM      6  C   UNL     1       8.801  -4.142  24.716  0.00  0.00    +0.257 A 
ATOM      7  O   UNL     1       9.817  -3.595  24.306  0.00  0.00    -0.267 OA
ATOM      8  C   UNL     1       7.616  -4.318  23.884  0.00  0.00    +0.036 A 
ATOM      9  C   UNL     1       7.448  -3.797  22.508  0.00  0.00    +0.043 C 
ATOM     10  C   UNL     1       6.054  -4.302  22.124  0.00  0.00    +0.011 C 
ATOM     11  C   UNL     1       5.435  -4.952  23.369  0.00  0.00    +0.054 C 
ATOM     12  C   UNL     1       6.555  -4.972  24.354  0.00  0.00    +0.032 A 
ENDROOT
BRANCH   1  13
ATOM     13  C   UNL     1       5.392  -6.341  26.079  0.00  0.00    +0.156 C 
BRANCH  13  14
ATOM     14  CA  UNL     1       4.500  -5.661  27.149  0.00  0.00    +0.181 C 
BRANCH  14  15
ATOM     15  N   UNL     1       4.900  -4.269  27.533  0.00  0.00    -0.317 NA
ATOM     16  H1  UNL     1       4.406  -3.611  26.918  0.00  0.00    +0.119 HD
ATOM     17  H2  UNL     1       4.439  -4.065  28.429  0.00  0.00    +0.119 HD
ENDBRANCH  14  15
BRANCH  14  18
ATOM     18  C   UNL     1       4.407  -6.509  28.422  0.00  0.00    +0.323 C 
ATOM     19  OXT UNL     1       3.636  -6.306  29.346  0.00  0.00    -0.249 OA
BRANCH  18  20
ATOM     20  O   UNL     1       5.317  -7.517  28.421  0.00  0.00    -0.479 OA
ATOM     21  H   UNL     1       4.807  -8.333  28.184  0.00  0.00    +0.295 HD
ENDBRANCH  18  20
ENDBRANCH  14  18
ENDBRANCH  13  14
ENDBRANCH   1  13
TORSDOF 5
ENDMDL
