MODEL 1
REMARK VINA RESULT:      -8.4      0.000      0.000
REMARK  Name = 
REMARK  11 active torsions:
REMARK  status: ('A' for Active; 'I' for Inactive)
REMARK    1  A    between atoms: C_10  and  C_11
REMARK    2  A    between atoms: C_11  and  N_12
REMARK    3  A    between atoms: N_12  and  C_13
REMARK    4  A    between atoms: C_16  and  C_19
REMARK    5  A    between atoms: N_21  and  CA_22
REMARK    6  A    between atoms: CA_22  and  CB_24
REMARK    7  A    between atoms: CA_22  and  C_29
REMARK    8  A    between atoms: CB_24  and  CG_25
REMARK    9  A    between atoms: CG_25  and  CD_26
REMARK   10  A    between atoms: CD_26  and  OE1_27
REMARK   11  A    between atoms: C_29  and  O_30
REMARK                            x       y       z     vdW  Elec       q    Type
REMARK                         _______ _______ _______ _____ _____    ______ ____
ROOT
ATOM      1  C   UNK A   0      10.030  -0.839  23.122  0.00  0.00    +0.027 A 
ATOM      2  C   UNK A   0      10.265  -0.208  24.352  0.00  0.00    +0.023 A 
ATOM      3  C   UNK A   0      10.362   1.190  24.460  0.00  0.00    +0.015 A 
ATOM      4  C   UNK A   0      10.210   1.991  23.325  0.00  0.00    +0.037 A 
ATOM      5  C   UNK A   0       9.907   1.374  22.107  0.00  0.00    +0.015 A 
ATOM      6  C   UNK A   0       9.798  -0.018  22.014  0.00  0.00    +0.023 A 
ENDROOT
BRANCH   4   7
ATOM      7  C   UNK A   0      10.451   3.464  23.304  0.00  0.00    +0.245 C 
ATOM      8  N   GLU A   1      11.760   3.918  23.320  0.00  0.00    -0.298 N 
ATOM      9  H   GLU A   1      12.502   3.307  23.643  0.00  0.00    +0.150 HD
ATOM     10  O   UNK A   0       9.515   4.244  23.190  0.00  0.00    -0.270 OA
BRANCH   8  11
ATOM     11  CA  GLU A   1      12.047   5.372  23.248  0.00  0.00    +0.182 C 
BRANCH  11  12
ATOM     12  C   GLU A   1      13.427   5.628  22.599  0.00  0.00    +0.325 C 
ATOM     13  OXT GLU A   1      13.618   6.391  21.662  0.00  0.00    -0.249 OA
BRANCH  12  14
ATOM     14  O   GLU A   1      14.450   4.969  23.195  0.00  0.00    -0.479 OA
ATOM     15  H   GLU A   1      14.974   4.500  22.518  0.00  0.00    +0.295 HD
ENDBRANCH  12  14
ENDBRANCH  11  12
BRANCH  11  16
ATOM     16  CB  GLU A   1      11.968   5.995  24.653  0.00  0.00    +0.045 C 
BRANCH  16  17
ATOM     17  CG  GLU A   1      10.770   6.933  24.837  0.00  0.00    +0.123 C 
BRANCH  17  18
ATOM     18  CD  GLU A   1       9.904   6.539  26.008  0.00  0.00    +0.305 C 
ATOM     19  OE2 GLU A   1      10.070   6.904  27.160  0.00  0.00    -0.251 OA
BRANCH  18  20
ATOM     20  OE1 GLU A   1       8.889   5.723  25.638  0.00  0.00    -0.481 OA
ATOM     21  HE1 GLU A   1       8.043   6.190  25.492  0.00  0.00    +0.295 HD
ENDBRANCH  18  20
ENDBRANCH  17  18
ENDBRANCH  16  17
ENDBRANCH  11  16
ENDBRANCH   8  11
ENDBRANCH   4   7
BRANCH   1  22
ATOM     22  N   UNK A   0       9.945  -2.235  23.091  0.00  0.00    -0.342 N 
ATOM     23  H   UNK A   0       9.291  -2.560  22.373  0.00  0.00    +0.146 HD
BRANCH  22  24
ATOM     24  C   UNK A   0       9.783  -2.971  24.346  0.00  0.00    +0.125 C 
BRANCH  24  35
ATOM     25  N   UNK A   0       3.710  -7.588  25.663  0.00  0.00    -0.329 N 
ATOM     26  H   UNK A   0       2.905  -7.202  25.189  0.00  0.00    +0.145 HD
ATOM     27  H   UNK A   0       3.455  -7.975  26.569  0.00  0.00    +0.145 HD
ATOM     28  C   UNK A   0       4.773  -6.755  25.777  0.00  0.00    +0.195 A 
ATOM     29  N   UNK A   0       5.026  -6.036  24.659  0.00  0.00    -0.315 N 
ATOM     30  H   UNK A   0       4.484  -6.174  23.823  0.00  0.00    +0.170 HD
ATOM     31  C   UNK A   0       6.061  -5.151  24.590  0.00  0.00    +0.125 A 
ATOM     32  N   UNK A   0       6.325  -4.442  23.422  0.00  0.00    -0.327 N 
ATOM     33  H   UNK A   0       6.091  -4.925  22.563  0.00  0.00    +0.148 HD
ATOM     34  C   UNK A   0       7.462  -3.500  23.359  0.00  0.00    +0.126 C 
ATOM     35  C   UNK A   0       8.603  -3.957  24.311  0.00  0.00    +0.105 C 
ATOM     36  N   UNK A   0       8.029  -4.203  25.656  0.00  0.00    -0.331 N 
ATOM     37  H   UNK A   0       8.680  -4.523  26.377  0.00  0.00    +0.147 HD
ATOM     38  C   UNK A   0       6.865  -5.004  25.676  0.00  0.00    +0.133 A 
ATOM     39  C   UNK A   0       6.552  -5.850  26.903  0.00  0.00    +0.297 A 
ATOM     40  O   UNK A   0       7.309  -5.774  27.871  0.00  0.00    -0.264 OA
ATOM     41  N   UNK A   0       5.461  -6.699  26.867  0.00  0.00    -0.176 NA
ENDBRANCH  24  35
ENDBRANCH  22  24
ENDBRANCH   1  22
TORSDOF 11
ENDMDL
MODEL 2
REMARK VINA RESULT:      -8.3      1.161      1.699
REMARK  Name = 
REMARK  11 active torsions:
REMARK  status: ('A' for Active; 'I' for Inactive)
REMARK    1  A    between atoms: C_10  and  C_11
REMARK    2  A    between atoms: C_11  and  N_12
REMARK    3  A    between atoms: N_12  and  C_13
REMARK    4  A    between atoms: C_16  and  C_19
REMARK    5  A    between atoms: N_21  and  CA_22
REMARK    6  A    between atoms: CA_22  and  CB_24
REMARK    7  A    between atoms: CA_22  and  C_29
REMARK    8  A    between atoms: CB_24  and  CG_25
REMARK    9  A    between atoms: CG_25  and  CD_26
REMARK   10  A    between atoms: CD_26  and  OE1_27
REMARK   11  A    between atoms: C_29  and  O_30
REMARK                            x       y       z     vdW  Elec       q    Type
REMARK                         _______ _______ _______ _____ _____    ______ ____
ROOT
ATOM      1  C   UNK A   0       9.978  -1.049  23.641  0.00  0.00    +0.027 A 
ATOM      2  C   UNK A   0       9.916  -0.274  24.808  0.00  0.00    +0.023 A 
ATOM      3  C   UNK A   0       9.972   1.130  24.767  0.00  0.00    +0.015 A 
ATOM      4  C   UNK A   0      10.079   1.790  23.540  0.00  0.00    +0.037 A 
ATOM      5  C   UNK A   0      10.073   1.028  22.368  0.00  0.00    +0.015 A 
ATOM      6  C   UNK A   0      10.002  -0.369  22.419  0.00  0.00    +0.023 A 
ENDROOT
BRANCH   4   7
ATOM      7  C   UNK A   0      10.304   3.259  23.399  0.00  0.00    +0.245 C 
ATOM      8  N   GLU A   1      11.605   3.735  23.447  0.00  0.00    -0.298 N 
ATOM      9  H   GLU A   1      12.334   3.167  23.865  0.00  0.00    +0.150 HD
ATOM     10  O   UNK A   0       9.367   4.010  23.163  0.00  0.00    -0.270 OA
BRANCH   8  11
ATOM     11  CA  GLU A   1      11.879   5.180  23.260  0.00  0.00    +0.182 C 
BRANCH  11  12
ATOM     12  C   GLU A   1      13.243   5.395  22.564  0.00  0.00    +0.325 C 
ATOM     13  OXT GLU A   1      13.382   5.907  21.461  0.00  0.00    -0.249 OA
BRANCH  12  14
ATOM     14  O   GLU A   1      14.310   5.015  23.307  0.00  0.00    -0.479 OA
ATOM     15  H   GLU A   1      14.502   4.071  23.144  0.00  0.00    +0.295 HD
ENDBRANCH  12  14
ENDBRANCH  11  12
BRANCH  11  16
ATOM     16  CB  GLU A   1      11.825   5.907  24.615  0.00  0.00    +0.045 C 
BRANCH  16  17
ATOM     17  CG  GLU A   1      10.614   6.836  24.761  0.00  0.00    +0.123 C 
BRANCH  17  18
ATOM     18  CD  GLU A   1       9.703   6.422  25.891  0.00  0.00    +0.305 C 
ATOM     19  OE2 GLU A   1       9.868   6.700  27.067  0.00  0.00    -0.251 OA
BRANCH  18  20
ATOM     20  OE1 GLU A   1       8.648   5.695  25.452  0.00  0.00    -0.481 OA
ATOM     21  HE1 GLU A   1       8.605   4.795  25.832  0.00  0.00    +0.295 HD
ENDBRANCH  18  20
ENDBRANCH  17  18
ENDBRANCH  16  17
ENDBRANCH  11  16
ENDBRANCH   8  11
ENDBRANCH   4   7
BRANCH   1  22
ATOM     22  N   UNK A   0       9.917  -2.441  23.758  0.00  0.00    -0.342 N 
ATOM     23  H   UNK A   0      10.706  -2.898  23.292  0.00  0.00    +0.146 HD
BRANCH  22  24
ATOM     24  C   UNK A   0       8.653  -3.128  23.482  0.00  0.00    +0.125 C 
BRANCH  24  35
ATOM     25  N   UNK A   0       4.885  -7.332  28.780  0.00  0.00    -0.329 N 
ATOM     26  H   UNK A   0       5.561  -7.882  29.293  0.00  0.00    +0.145 HD
ATOM     27  H   UNK A   0       4.032  -7.859  28.610  0.00  0.00    +0.145 HD
ATOM     28  C   UNK A   0       5.342  -6.769  27.634  0.00  0.00    +0.195 A 
ATOM     29  N   UNK A   0       6.584  -6.243  27.740  0.00  0.00    -0.315 N 
ATOM     30  H   UNK A   0       7.070  -6.242  28.621  0.00  0.00    +0.170 HD
ATOM     31  C   UNK A   0       7.199  -5.632  26.689  0.00  0.00    +0.125 A 
ATOM     32  N   UNK A   0       8.465  -5.069  26.825  0.00  0.00    -0.327 N 
ATOM     33  H   UNK A   0       8.676  -4.699  27.743  0.00  0.00    +0.148 HD
ATOM     34  C   UNK A   0       9.111  -4.395  25.679  0.00  0.00    +0.126 C 
ATOM     35  C   UNK A   0       8.041  -3.778  24.734  0.00  0.00    +0.105 C 
ATOM     36  N   UNK A   0       7.042  -4.823  24.402  0.00  0.00    -0.331 N 
ATOM     37  H   UNK A   0       6.272  -4.537  23.793  0.00  0.00    +0.147 HD
ATOM     38  C   UNK A   0       6.534  -5.541  25.507  0.00  0.00    +0.133 A 
ATOM     39  C   UNK A   0       5.131  -6.130  25.443  0.00  0.00    +0.297 A 
ATOM     40  O   UNK A   0       4.491  -6.000  24.399  0.00  0.00    -0.264 OA
ATOM     41  N   UNK A   0       4.615  -6.748  26.568  0.00  0.00    -0.176 NA
ENDBRANCH  24  35
ENDBRANCH  22  24
ENDBRANCH   1  22
TORSDOF 11
ENDMDL
MODEL 3
REMARK VINA RESULT:      -8.2      1.650      3.183
REMARK  Name = 
REMARK  11 active torsions:
REMARK  status: ('A' for Active; 'I' for Inactive)
REMARK    1  A    between atoms: C_10  and  C_11
REMARK    2  A    between atoms: C_11  and  N_12
REMARK    3  A    between atoms: N_12  and  C_13
REMARK    4  A    between atoms: C_16  and  C_19
REMARK    5  A    between atoms: N_21  and  CA_22
REMARK    6  A    between atoms: CA_22  and  CB_24
REMARK    7  A    between atoms: CA_22  and  C_29
REMARK    8  A    between atoms: CB_24  and  CG_25
REMARK    9  A    between atoms: CG_25  and  CD_26
REMARK   10  A    between atoms: CD_26  and  OE1_27
REMARK   11  A    between atoms: C_29  and  O_30
REMARK                            x       y       z     vdW  Elec       q    Type
REMARK                         _______ _______ _______ _____ _____    ______ ____
ROOT
ATOM      1  C   UNK A   0       8.944  -1.210  23.115  0.00  0.00    +0.027 A 
ATOM      2  C   UNK A   0       8.577  -0.218  22.194  0.00  0.00    +0.023 A 
ATOM      3  C   UNK A   0       8.659   1.149  22.507  0.00  0.00    +0.015 A 
ATOM      4  C   UNK A   0       9.128   1.552  23.761  0.00  0.00    +0.037 A 
ATOM      5  C   UNK A   0       9.559   0.572  24.660  0.00  0.00    +0.015 A 
ATOM      6  C   UNK A   0       9.487  -0.786  24.332  0.00  0.00    +0.023 A 
ENDROOT
BRANCH   4   7
ATOM      7  C   UNK A   0       9.104   2.963  24.247  0.00  0.00    +0.245 C 
ATOM      8  N   GLU A   1       9.628   3.952  23.430  0.00  0.00    -0.298 N 
ATOM      9  H   GLU A   1      10.271   3.703  22.686  0.00  0.00    +0.150 HD
ATOM     10  O   UNK A   0       8.559   3.245  25.307  0.00  0.00    -0.270 OA
BRANCH   8  11
ATOM     11  CA  GLU A   1       9.579   5.373  23.851  0.00  0.00    +0.182 C 
BRANCH  11  12
ATOM     12  C   GLU A   1       8.318   6.070  23.287  0.00  0.00    +0.325 C 
ATOM     13  OXT GLU A   1       7.464   6.612  23.975  0.00  0.00    -0.249 OA
BRANCH  12  14
ATOM     14  O   GLU A   1       8.253   6.086  21.935  0.00  0.00    -0.479 OA
ATOM     15  H   GLU A   1       8.458   6.984  21.609  0.00  0.00    +0.295 HD
ENDBRANCH  12  14
ENDBRANCH  11  12
BRANCH  11  16
ATOM     16  CB  GLU A   1      10.861   6.099  23.409  0.00  0.00    +0.045 C 
BRANCH  16  17
ATOM     17  CG  GLU A   1      12.146   5.396  23.860  0.00  0.00    +0.123 C 
BRANCH  17  18
ATOM     18  CD  GLU A   1      13.192   5.352  22.772  0.00  0.00    +0.305 C 
ATOM     19  OE2 GLU A   1      12.993   5.600  21.594  0.00  0.00    -0.251 OA
BRANCH  18  20
ATOM     20  OE1 GLU A   1      14.410   5.008  23.251  0.00  0.00    -0.481 OA
ATOM     21  HE1 GLU A   1      15.153   5.425  22.772  0.00  0.00    +0.295 HD
ENDBRANCH  18  20
ENDBRANCH  17  18
ENDBRANCH  16  17
ENDBRANCH  11  16
ENDBRANCH   8  11
ENDBRANCH   4   7
BRANCH   1  22
ATOM     22  N   UNK A   0       8.836  -2.551  22.733  0.00  0.00    -0.342 N 
ATOM     23  H   UNK A   0       9.573  -2.820  22.075  0.00  0.00    +0.146 HD
BRANCH  22  24
ATOM     24  C   UNK A   0       7.531  -3.080  22.330  0.00  0.00    +0.125 C 
BRANCH  24  35
ATOM     25  N   UNK A   0       5.423  -7.404  28.396  0.00  0.00    -0.329 N 
ATOM     26  H   UNK A   0       4.428  -7.295  28.536  0.00  0.00    +0.145 HD
ATOM     27  H   UNK A   0       5.919  -7.448  29.283  0.00  0.00    +0.145 HD
ATOM     28  C   UNK A   0       5.996  -6.496  27.568  0.00  0.00    +0.195 A 
ATOM     29  N   UNK A   0       5.263  -6.223  26.464  0.00  0.00    -0.315 N 
ATOM     30  H   UNK A   0       4.402  -6.710  26.284  0.00  0.00    +0.170 HD
ATOM     31  C   UNK A   0       5.687  -5.338  25.518  0.00  0.00    +0.125 A 
ATOM     32  N   UNK A   0       4.934  -5.093  24.374  0.00  0.00    -0.327 N 
ATOM     33  H   UNK A   0       4.390  -5.879  24.039  0.00  0.00    +0.148 HD
ATOM     34  C   UNK A   0       5.417  -4.143  23.350  0.00  0.00    +0.126 C 
ATOM     35  C   UNK A   0       6.971  -4.109  23.326  0.00  0.00    +0.105 C 
ATOM     36  N   UNK A   0       7.462  -3.889  24.708  0.00  0.00    -0.331 N 
ATOM     37  H   UNK A   0       8.477  -3.859  24.830  0.00  0.00    +0.147 HD
ATOM     38  C   UNK A   0       6.888  -4.727  25.690  0.00  0.00    +0.133 A 
ATOM     39  C   UNK A   0       7.685  -5.081  26.938  0.00  0.00    +0.297 A 
ATOM     40  O   UNK A   0       8.803  -4.584  27.077  0.00  0.00    -0.264 OA
ATOM     41  N   UNK A   0       7.145  -5.977  27.843  0.00  0.00    -0.176 NA
ENDBRANCH  24  35
ENDBRANCH  22  24
ENDBRANCH   1  22
TORSDOF 11
ENDMDL
MODEL 4
REMARK VINA RESULT:      -8.1      1.830      3.043
REMARK  Name = 
REMARK  11 active torsions:
REMARK  status: ('A' for Active; 'I' for Inactive)
REMARK    1  A    between atoms: C_10  and  C_11
REMARK    2  A    between atoms: C_11  and  N_12
REMARK    3  A    between atoms: N_12  and  C_13
REMARK    4  A    between atoms: C_16  and  C_19
REMARK    5  A    between atoms: N_21  and  CA_22
REMARK    6  A    between atoms: CA_22  and  CB_24
REMARK    7  A    between atoms: CA_22  and  C_29
REMARK    8  A    between atoms: CB_24  and  CG_25
REMARK    9  A    between atoms: CG_25  and  CD_26
REMARK   10  A    between atoms: CD_26  and  OE1_27
REMARK   11  A    between atoms: C_29  and  O_30
REMARK                            x       y       z     vdW  Elec       q    Type
REMARK                         _______ _______ _______ _____ _____    ______ ____
ROOT
ATOM      1  C   UNK A   0       9.607  -1.146  23.796  0.00  0.00    +0.027 A 
ATOM      2  C   UNK A   0      10.105  -0.183  22.907  0.00  0.00    +0.023 A 
ATOM      3  C   UNK A   0       9.883   1.191  23.105  0.00  0.00    +0.015 A 
ATOM      4  C   UNK A   0       9.161   1.629  24.218  0.00  0.00    +0.037 A 
ATOM      5  C   UNK A   0       8.720   0.680  25.145  0.00  0.00    +0.015 A 
ATOM      6  C   UNK A   0       8.959  -0.684  24.946  0.00  0.00    +0.023 A 
ENDROOT
BRANCH   4   7
ATOM      7  C   UNK A   0       8.737   3.044  24.433  0.00  0.00    +0.245 C 
ATOM      8  N   GLU A   1       8.920   3.953  23.403  0.00  0.00    -0.298 N 
ATOM      9  H   GLU A   1       9.585   3.749  22.664  0.00  0.00    +0.150 HD
ATOM     10  O   UNK A   0       8.165   3.369  25.466  0.00  0.00    -0.270 OA
BRANCH   8  11
ATOM     11  CA  GLU A   1       8.466   5.356  23.555  0.00  0.00    +0.182 C 
BRANCH  11  12
ATOM     12  C   GLU A   1       7.288   5.659  22.600  0.00  0.00    +0.325 C 
ATOM     13  OXT GLU A   1       6.109   5.512  22.892  0.00  0.00    -0.249 OA
BRANCH  12  14
ATOM     14  O   GLU A   1       7.663   6.167  21.402  0.00  0.00    -0.479 OA
ATOM     15  H   GLU A   1       8.611   6.401  21.429  0.00  0.00    +0.295 HD
ENDBRANCH  12  14
ENDBRANCH  11  12
BRANCH  11  16
ATOM     16  CB  GLU A   1       9.641   6.319  23.312  0.00  0.00    +0.045 C 
BRANCH  16  17
ATOM     17  CG  GLU A   1      10.778   6.163  24.329  0.00  0.00    +0.123 C 
BRANCH  17  18
ATOM     18  CD  GLU A   1      11.969   5.437  23.755  0.00  0.00    +0.305 C 
ATOM     19  OE2 GLU A   1      11.946   4.316  23.276  0.00  0.00    -0.251 OA
BRANCH  18  20
ATOM     20  OE1 GLU A   1      13.099   6.181  23.822  0.00  0.00    -0.481 OA
ATOM     21  HE1 GLU A   1      12.967   7.059  24.229  0.00  0.00    +0.295 HD
ENDBRANCH  18  20
ENDBRANCH  17  18
ENDBRANCH  16  17
ENDBRANCH  11  16
ENDBRANCH   8  11
ENDBRANCH   4   7
BRANCH   1  22
ATOM     22  N   UNK A   0       9.868  -2.496  23.537  0.00  0.00    -0.342 N 
ATOM     23  H   UNK A   0       9.565  -2.768  22.597  0.00  0.00    +0.146 HD
BRANCH  22  24
ATOM     24  C   UNK A   0       9.503  -3.502  24.536  0.00  0.00    +0.125 C 
BRANCH  24  35
ATOM     25  N   UNK A   0       3.021  -7.659  23.736  0.00  0.00    -0.329 N 
ATOM     26  H   UNK A   0       2.408  -7.176  23.093  0.00  0.00    +0.145 HD
ATOM     27  H   UNK A   0       2.498  -8.080  24.500  0.00  0.00    +0.145 HD
ATOM     28  C   UNK A   0       4.061  -6.929  24.208  0.00  0.00    +0.195 A 
ATOM     29  N   UNK A   0       4.663  -6.164  23.268  0.00  0.00    -0.315 N 
ATOM     30  H   UNK A   0       4.369  -6.202  22.307  0.00  0.00    +0.170 HD
ATOM     31  C   UNK A   0       5.730  -5.368  23.562  0.00  0.00    +0.125 A 
ATOM     32  N   UNK A   0       6.356  -4.611  22.576  0.00  0.00    -0.327 N 
ATOM     33  H   UNK A   0       6.342  -5.016  21.648  0.00  0.00    +0.148 HD
ATOM     34  C   UNK A   0       7.522  -3.766  22.908  0.00  0.00    +0.126 C 
ATOM     35  C   UNK A   0       8.319  -4.379  24.095  0.00  0.00    +0.105 C 
ATOM     36  N   UNK A   0       7.376  -4.661  25.204  0.00  0.00    -0.331 N 
ATOM     37  H   UNK A   0       7.778  -5.081  26.046  0.00  0.00    +0.147 HD
ATOM     38  C   UNK A   0       6.205  -5.359  24.835  0.00  0.00    +0.133 A 
ATOM     39  C   UNK A   0       5.507  -6.252  25.852  0.00  0.00    +0.297 A 
ATOM     40  O   UNK A   0       5.965  -6.303  26.994  0.00  0.00    -0.264 OA
ATOM     41  N   UNK A   0       4.418  -7.001  25.446  0.00  0.00    -0.176 NA
ENDBRANCH  24  35
ENDBRANCH  22  24
ENDBRANCH   1  22
TORSDOF 11
ENDMDL
MODEL 5
REMARK VINA RESULT:      -8.1      2.274      3.111
REMARK  Name = 
REMARK  11 active torsions:
REMARK  status: ('A' for Active; 'I' for Inactive)
REMARK    1  A    between atoms: C_10  and  C_11
REMARK    2  A    between atoms: C_11  and  N_12
REMARK    3  A    between atoms: N_12  and  C_13
REMARK    4  A    between atoms: C_16  and  C_19
REMARK    5  A    between atoms: N_21  and  CA_22
REMARK    6  A    between atoms: CA_22  and  CB_24
REMARK    7  A    between atoms: CA_22  and  C_29
REMARK    8  A    between atoms: CB_24  and  CG_25
REMARK    9  A    between atoms: CG_25  and  CD_26
REMARK   10  A    between atoms: CD_26  and  OE1_27
REMARK   11  A    between atoms: C_29  and  O_30
REMARK                            x       y       z     vdW  Elec       q    Type
REMARK                         _______ _______ _______ _____ _____    ______ ____
ROOT
ATOM      1  C   UNK A   0      10.012  -0.425  22.925  0.00  0.00    +0.027 A 
ATOM      2  C   UNK A   0      10.416   0.091  24.164  0.00  0.00    +0.023 A 
ATOM      3  C   UNK A   0      10.655   1.463  24.352  0.00  0.00    +0.015 A 
ATOM      4  C   UNK A   0      10.477   2.355  23.292  0.00  0.00    +0.037 A 
ATOM      5  C   UNK A   0      10.009   1.859  22.071  0.00  0.00    +0.015 A 
ATOM      6  C   UNK A   0       9.761   0.492  21.899  0.00  0.00    +0.023 A 
ENDROOT
BRANCH   4   7
ATOM      7  C   UNK A   0      10.854   3.799  23.342  0.00  0.00    +0.245 C 
ATOM      8  N   GLU A   1       9.878   4.725  23.675  0.00  0.00    -0.298 N 
ATOM      9  H   GLU A   1       8.898   4.479  23.584  0.00  0.00    +0.150 HD
ATOM     10  O   UNK A   0      12.017   4.143  23.175  0.00  0.00    -0.270 OA
BRANCH   8  11
ATOM     11  CA  GLU A   1      10.220   6.163  23.787  0.00  0.00    +0.182 C 
BRANCH  11  12
ATOM     12  C   GLU A   1      11.036   6.435  25.072  0.00  0.00    +0.325 C 
ATOM     13  OXT GLU A   1      10.554   6.496  26.195  0.00  0.00    -0.249 OA
BRANCH  12  14
ATOM     14  O   GLU A   1      12.370   6.549  24.867  0.00  0.00    -0.479 OA
ATOM     15  H   GLU A   1      12.686   7.395  25.241  0.00  0.00    +0.295 HD
ENDBRANCH  12  14
ENDBRANCH  11  12
BRANCH  11  16
ATOM     16  CB  GLU A   1       8.939   7.015  23.751  0.00  0.00    +0.045 C 
BRANCH  16  17
ATOM     17  CG  GLU A   1       7.660   6.185  23.591  0.00  0.00    +0.123 C 
BRANCH  17  18
ATOM     18  CD  GLU A   1       7.209   6.090  22.154  0.00  0.00    +0.305 C 
ATOM     19  OE2 GLU A   1       6.705   6.997  21.513  0.00  0.00    -0.251 OA
BRANCH  18  20
ATOM     20  OE1 GLU A   1       7.436   4.862  21.630  0.00  0.00    -0.481 OA
ATOM     21  HE1 GLU A   1       6.858   4.646  20.872  0.00  0.00    +0.295 HD
ENDBRANCH  18  20
ENDBRANCH  17  18
ENDBRANCH  16  17
ENDBRANCH  11  16
ENDBRANCH   8  11
ENDBRANCH   4   7
BRANCH   1  22
ATOM     22  N   UNK A   0       9.792  -1.801  22.812  0.00  0.00    -0.342 N 
ATOM     23  H   UNK A   0       8.968  -2.010  22.241  0.00  0.00    +0.146 HD
BRANCH  22  24
ATOM     24  C   UNK A   0       9.845  -2.637  24.013  0.00  0.00    +0.125 C 
BRANCH  24  35
ATOM     25  N   UNK A   0       3.342  -6.832  23.818  0.00  0.00    -0.329 N 
ATOM     26  H   UNK A   0       3.490  -7.678  24.352  0.00  0.00    +0.145 HD
ATOM     27  H   UNK A   0       2.787  -7.014  22.985  0.00  0.00    +0.145 HD
ATOM     28  C   UNK A   0       4.463  -6.135  23.509  0.00  0.00    +0.195 A 
ATOM     29  N   UNK A   0       5.352  -6.053  24.526  0.00  0.00    -0.315 N 
ATOM     30  H   UNK A   0       5.140  -6.441  25.429  0.00  0.00    +0.170 HD
ATOM     31  C   UNK A   0       6.533  -5.384  24.396  0.00  0.00    +0.125 A 
ATOM     32  N   UNK A   0       7.423  -5.284  25.462  0.00  0.00    -0.327 N 
ATOM     33  H   UNK A   0       6.995  -5.264  26.380  0.00  0.00    +0.148 HD
ATOM     34  C   UNK A   0       8.692  -4.541  25.311  0.00  0.00    +0.126 C 
ATOM     35  C   UNK A   0       8.534  -3.397  24.269  0.00  0.00    +0.105 C 
ATOM     36  N   UNK A   0       7.952  -3.962  23.028  0.00  0.00    -0.331 N 
ATOM     37  H   UNK A   0       7.785  -3.304  22.264  0.00  0.00    +0.147 HD
ATOM     38  C   UNK A   0       6.811  -4.775  23.214  0.00  0.00    +0.133 A 
ATOM     39  C   UNK A   0       5.771  -4.880  22.108  0.00  0.00    +0.297 A 
ATOM     40  O   UNK A   0       5.980  -4.280  21.052  0.00  0.00    -0.264 OA
ATOM     41  N   UNK A   0       4.616  -5.604  22.344  0.00  0.00    -0.176 NA
ENDBRANCH  24  35
ENDBRANCH  22  24
ENDBRANCH   1  22
TORSDOF 11
ENDMDL
MODEL 6
REMARK VINA RESULT:      -8.0      1.630      2.291
REMARK  Name = 
REMARK  11 active torsions:
REMARK  status: ('A' for Active; 'I' for Inactive)
REMARK    1  A    between atoms: C_10  and  C_11
REMARK    2  A    between atoms: C_11  and  N_12
REMARK    3  A    between atoms: N_12  and  C_13
REMARK    4  A    between atoms: C_16  and  C_19
REMARK    5  A    between atoms: N_21  and  CA_22
REMARK    6  A    between atoms: CA_22  and  CB_24
REMARK    7  A    between atoms: CA_22  and  C_29
REMARK    8  A    between atoms: CB_24  and  CG_25
REMARK    9  A    between atoms: CG_25  and  CD_26
REMARK   10  A    between atoms: CD_26  and  OE1_27
REMARK   11  A    between atoms: C_29  and  O_30
REMARK                            x       y       z     vdW  Elec       q    Type
REMARK                         _______ _______ _______ _____ _____    ______ ____
ROOT
ATOM      1  C   UNK A   0      10.044  -0.472  22.929  0.00  0.00    +0.027 A 
ATOM      2  C   UNK A   0      10.472   0.048  24.158  0.00  0.00    +0.023 A 
ATOM      3  C   UNK A   0      10.725   1.419  24.334  0.00  0.00    +0.015 A 
ATOM      4  C   UNK A   0      10.539   2.306  23.270  0.00  0.00    +0.037 A 
ATOM      5  C   UNK A   0      10.048   1.805  22.060  0.00  0.00    +0.015 A 
ATOM      6  C   UNK A   0       9.785   0.440  21.901  0.00  0.00    +0.023 A 
ENDROOT
BRANCH   4   7
ATOM      7  C   UNK A   0      10.929   3.747  23.305  0.00  0.00    +0.245 C 
ATOM      8  N   GLU A   1       9.983   4.677  23.709  0.00  0.00    -0.298 N 
ATOM      9  H   GLU A   1       8.998   4.438  23.681  0.00  0.00    +0.150 HD
ATOM     10  O   UNK A   0      12.080   4.084  23.062  0.00  0.00    -0.270 OA
BRANCH   8  11
ATOM     11  CA  GLU A   1      10.343   6.112  23.807  0.00  0.00    +0.182 C 
BRANCH  11  12
ATOM     12  C   GLU A   1      11.177   6.383  25.081  0.00  0.00    +0.325 C 
ATOM     13  OXT GLU A   1      10.700   6.543  26.196  0.00  0.00    -0.249 OA
BRANCH  12  14
ATOM     14  O   GLU A   1      12.515   6.376  24.878  0.00  0.00    -0.479 OA
ATOM     15  H   GLU A   1      12.976   6.467  25.735  0.00  0.00    +0.295 HD
ENDBRANCH  12  14
ENDBRANCH  11  12
BRANCH  11  16
ATOM     16  CB  GLU A   1       9.071   6.977  23.780  0.00  0.00    +0.045 C 
BRANCH  16  17
ATOM     17  CG  GLU A   1       7.776   6.157  23.734  0.00  0.00    +0.123 C 
BRANCH  17  18
ATOM     18  CD  GLU A   1       7.140   6.160  22.366  0.00  0.00    +0.305 C 
ATOM     19  OE2 GLU A   1       6.370   7.009  21.949  0.00  0.00    -0.251 OA
BRANCH  18  20
ATOM     20  OE1 GLU A   1       7.528   5.096  21.623  0.00  0.00    -0.481 OA
ATOM     21  HE1 GLU A   1       6.829   4.756  21.030  0.00  0.00    +0.295 HD
ENDBRANCH  18  20
ENDBRANCH  17  18
ENDBRANCH  16  17
ENDBRANCH  11  16
ENDBRANCH   8  11
ENDBRANCH   4   7
BRANCH   1  22
ATOM     22  N   UNK A   0       9.811  -1.848  22.828  0.00  0.00    -0.342 N 
ATOM     23  H   UNK A   0       9.027  -2.057  22.204  0.00  0.00    +0.146 HD
BRANCH  22  24
ATOM     24  C   UNK A   0       9.764  -2.658  24.047  0.00  0.00    +0.125 C 
BRANCH  24  35
ATOM     25  N   UNK A   0       3.870  -7.442  25.566  0.00  0.00    -0.329 N 
ATOM     26  H   UNK A   0       3.030  -7.056  25.154  0.00  0.00    +0.145 HD
ATOM     27  H   UNK A   0       3.678  -7.865  26.470  0.00  0.00    +0.145 HD
ATOM     28  C   UNK A   0       4.923  -6.591  25.644  0.00  0.00    +0.195 A 
ATOM     29  N   UNK A   0       5.093  -5.829  24.539  0.00  0.00    -0.315 N 
ATOM     30  H   UNK A   0       4.504  -5.950  23.733  0.00  0.00    +0.170 HD
ATOM     31  C   UNK A   0       6.106  -4.922  24.439  0.00  0.00    +0.125 A 
ATOM     32  N   UNK A   0       6.284  -4.167  23.283  0.00  0.00    -0.327 N 
ATOM     33  H   UNK A   0       6.007  -4.625  22.423  0.00  0.00    +0.148 HD
ATOM     34  C   UNK A   0       7.397  -3.200  23.185  0.00  0.00    +0.126 C 
ATOM     35  C   UNK A   0       8.603  -3.665  24.050  0.00  0.00    +0.105 C 
ATOM     36  N   UNK A   0       8.117  -3.970  25.417  0.00  0.00    -0.331 N 
ATOM     37  H   UNK A   0       8.817  -4.301  26.085  0.00  0.00    +0.147 HD
ATOM     38  C   UNK A   0       6.972  -4.795  25.479  0.00  0.00    +0.133 A 
ATOM     39  C   UNK A   0       6.750  -5.688  26.691  0.00  0.00    +0.297 A 
ATOM     40  O   UNK A   0       7.563  -5.631  27.615  0.00  0.00    -0.264 OA
ATOM     41  N   UNK A   0       5.675  -6.558  26.692  0.00  0.00    -0.176 NA
ENDBRANCH  24  35
ENDBRANCH  22  24
ENDBRANCH   1  22
TORSDOF 11
ENDMDL
MODEL 7
REMARK VINA RESULT:      -8.0      1.772      3.127
REMARK  Name = 
REMARK  11 active torsions:
REMARK  status: ('A' for Active; 'I' for Inactive)
REMARK    1  A    between atoms: C_10  and  C_11
REMARK    2  A    between atoms: C_11  and  N_12
REMARK    3  A    between atoms: N_12  and  C_13
REMARK    4  A    between atoms: C_16  and  C_19
REMARK    5  A    between atoms: N_21  and  CA_22
REMARK    6  A    between atoms: CA_22  and  CB_24
REMARK    7  A    between atoms: CA_22  and  C_29
REMARK    8  A    between atoms: CB_24  and  CG_25
REMARK    9  A    between atoms: CG_25  and  CD_26
REMARK   10  A    between atoms: CD_26  and  OE1_27
REMARK   11  A    between atoms: C_29  and  O_30
REMARK                            x       y       z     vdW  Elec       q    Type
REMARK                         _______ _______ _______ _____ _____    ______ ____
ROOT
ATOM      1  C   UNK A   0       9.613  -0.791  22.927  0.00  0.00    +0.027 A 
ATOM      2  C   UNK A   0       9.486   0.129  21.876  0.00  0.00    +0.023 A 
ATOM      3  C   UNK A   0       9.846   1.479  22.026  0.00  0.00    +0.015 A 
ATOM      4  C   UNK A   0      10.358   1.934  23.244  0.00  0.00    +0.037 A 
ATOM      5  C   UNK A   0      10.551   1.010  24.275  0.00  0.00    +0.015 A 
ATOM      6  C   UNK A   0      10.204  -0.336  24.110  0.00  0.00    +0.023 A 
ENDROOT
BRANCH   4   7
ATOM      7  C   UNK A   0      10.619   3.370  23.556  0.00  0.00    +0.245 C 
ATOM      8  N   GLU A   1       9.608   4.112  24.146  0.00  0.00    -0.298 N 
ATOM      9  H   GLU A   1       8.647   3.792  24.084  0.00  0.00    +0.150 HD
ATOM     10  O   UNK A   0      11.728   3.854  23.370  0.00  0.00    -0.270 OA
BRANCH   8  11
ATOM     11  CA  GLU A   1       9.840   5.528  24.519  0.00  0.00    +0.182 C 
BRANCH  11  12
ATOM     12  C   GLU A   1       9.049   5.897  25.796  0.00  0.00    +0.325 C 
ATOM     13  OXT GLU A   1       9.119   6.979  26.362  0.00  0.00    -0.249 OA
BRANCH  12  14
ATOM     14  O   GLU A   1       8.206   4.927  26.223  0.00  0.00    -0.479 OA
ATOM     15  H   GLU A   1       7.473   5.331  26.728  0.00  0.00    +0.295 HD
ENDBRANCH  12  14
ENDBRANCH  11  12
BRANCH  11  16
ATOM     16  CB  GLU A   1       9.467   6.451  23.347  0.00  0.00    +0.045 C 
BRANCH  16  17
ATOM     17  CG  GLU A   1       7.958   6.695  23.219  0.00  0.00    +0.123 C 
BRANCH  17  18
ATOM     18  CD  GLU A   1       7.347   5.938  22.065  0.00  0.00    +0.305 C 
ATOM     19  OE2 GLU A   1       7.301   4.724  21.965  0.00  0.00    -0.251 OA
BRANCH  18  20
ATOM     20  OE1 GLU A   1       6.834   6.770  21.127  0.00  0.00    -0.481 OA
ATOM     21  HE1 GLU A   1       7.013   6.485  20.210  0.00  0.00    +0.295 HD
ENDBRANCH  18  20
ENDBRANCH  17  18
ENDBRANCH  16  17
ENDBRANCH  11  16
ENDBRANCH   8  11
ENDBRANCH   4   7
BRANCH   1  22
ATOM     22  N   UNK A   0       9.236  -2.119  22.704  0.00  0.00    -0.342 N 
ATOM     23  H   UNK A   0       9.902  -2.608  22.099  0.00  0.00    +0.146 HD
BRANCH  22  24
ATOM     24  C   UNK A   0       7.850  -2.419  22.337  0.00  0.00    +0.125 C 
BRANCH  24  35
ATOM     25  N   UNK A   0       5.396  -7.205  27.905  0.00  0.00    -0.329 N 
ATOM     26  H   UNK A   0       4.399  -7.079  28.019  0.00  0.00    +0.145 HD
ATOM     27  H   UNK A   0       5.856  -7.345  28.801  0.00  0.00    +0.145 HD
ATOM     28  C   UNK A   0       6.025  -6.244  27.184  0.00  0.00    +0.195 A 
ATOM     29  N   UNK A   0       5.341  -5.851  26.084  0.00  0.00    -0.315 N 
ATOM     30  H   UNK A   0       4.474  -6.293  25.831  0.00  0.00    +0.170 HD
ATOM     31  C   UNK A   0       5.825  -4.898  25.239  0.00  0.00    +0.125 A 
ATOM     32  N   UNK A   0       5.123  -4.527  24.096  0.00  0.00    -0.327 N 
ATOM     33  H   UNK A   0       4.570  -5.262  23.672  0.00  0.00    +0.148 HD
ATOM     34  C   UNK A   0       5.670  -3.503  23.180  0.00  0.00    +0.126 C 
ATOM     35  C   UNK A   0       7.225  -3.516  23.214  0.00  0.00    +0.105 C 
ATOM     36  N   UNK A   0       7.669  -3.437  24.627  0.00  0.00    -0.331 N 
ATOM     37  H   UNK A   0       8.679  -3.450  24.786  0.00  0.00    +0.147 HD
ATOM     38  C   UNK A   0       7.036  -4.342  25.508  0.00  0.00    +0.133 A 
ATOM     39  C   UNK A   0       7.775  -4.832  26.745  0.00  0.00    +0.297 A 
ATOM     40  O   UNK A   0       8.901  -4.384  26.968  0.00  0.00    -0.264 OA
ATOM     41  N   UNK A   0       7.177  -5.789  27.544  0.00  0.00    -0.176 NA
ENDBRANCH  24  35
ENDBRANCH  22  24
ENDBRANCH   1  22
TORSDOF 11
ENDMDL
MODEL 8
REMARK VINA RESULT:      -8.0      2.048      3.341
REMARK  Name = 
REMARK  11 active torsions:
REMARK  status: ('A' for Active; 'I' for Inactive)
REMARK    1  A    between atoms: C_10  and  C_11
REMARK    2  A    between atoms: C_11  and  N_12
REMARK    3  A    between atoms: N_12  and  C_13
REMARK    4  A    between atoms: C_16  and  C_19
REMARK    5  A    between atoms: N_21  and  CA_22
REMARK    6  A    between atoms: CA_22  and  CB_24
REMARK    7  A    between atoms: CA_22  and  C_29
REMARK    8  A    between atoms: CB_24  and  CG_25
REMARK    9  A    between atoms: CG_25  and  CD_26
REMARK   10  A    between atoms: CD_26  and  OE1_27
REMARK   11  A    between atoms: C_29  and  O_30
REMARK                            x       y       z     vdW  Elec       q    Type
REMARK                         _______ _______ _______ _____ _____    ______ ____
ROOT
ATOM      1  C   UNK A   0       9.232  -0.898  23.386  0.00  0.00    +0.027 A 
ATOM      2  C   UNK A   0      10.210  -0.219  24.127  0.00  0.00    +0.023 A 
ATOM      3  C   UNK A   0      10.037   1.114  24.536  0.00  0.00    +0.015 A 
ATOM      4  C   UNK A   0       8.859   1.796  24.216  0.00  0.00    +0.037 A 
ATOM      5  C   UNK A   0       7.851   1.105  23.536  0.00  0.00    +0.015 A 
ATOM      6  C   UNK A   0       8.029  -0.227  23.147  0.00  0.00    +0.023 A 
ENDROOT
BRANCH   4   7
ATOM      7  C   UNK A   0       8.643   3.252  24.462  0.00  0.00    +0.245 C 
ATOM      8  N   GLU A   1       8.764   4.127  23.394  0.00  0.00    -0.298 N 
ATOM      9  H   GLU A   1       9.273   3.842  22.564  0.00  0.00    +0.150 HD
ATOM     10  O   UNK A   0       8.287   3.649  25.564  0.00  0.00    -0.270 OA
BRANCH   8  11
ATOM     11  CA  GLU A   1       8.508   5.575  23.582  0.00  0.00    +0.182 C 
BRANCH  11  12
ATOM     12  C   GLU A   1       7.346   6.050  22.679  0.00  0.00    +0.325 C 
ATOM     13  OXT GLU A   1       6.196   6.212  23.063  0.00  0.00    -0.249 OA
BRANCH  12  14
ATOM     14  O   GLU A   1       7.715   6.335  21.407  0.00  0.00    -0.479 OA
ATOM     15  H   GLU A   1       7.418   7.237  21.176  0.00  0.00    +0.295 HD
ENDBRANCH  12  14
ENDBRANCH  11  12
BRANCH  11  16
ATOM     16  CB  GLU A   1       9.791   6.378  23.307  0.00  0.00    +0.045 C 
BRANCH  16  17
ATOM     17  CG  GLU A   1      10.908   6.110  24.322  0.00  0.00    +0.123 C 
BRANCH  17  18
ATOM     18  CD  GLU A   1      12.032   5.289  23.740  0.00  0.00    +0.305 C 
ATOM     19  OE2 GLU A   1      11.913   4.177  23.252  0.00  0.00    -0.251 OA
BRANCH  18  20
ATOM     20  OE1 GLU A   1      13.221   5.933  23.809  0.00  0.00    -0.481 OA
ATOM     21  HE1 GLU A   1      13.969   5.353  24.055  0.00  0.00    +0.295 HD
ENDBRANCH  18  20
ENDBRANCH  17  18
ENDBRANCH  16  17
ENDBRANCH  11  16
ENDBRANCH   8  11
ENDBRANCH   4   7
BRANCH   1  22
ATOM     22  N   UNK A   0       9.474  -2.224  23.015  0.00  0.00    -0.342 N 
ATOM     23  H   UNK A   0      10.029  -2.285  22.157  0.00  0.00    +0.146 HD
BRANCH  22  24
ATOM     24  C   UNK A   0       8.365  -3.181  23.010  0.00  0.00    +0.125 C 
BRANCH  24  35
ATOM     25  N   UNK A   0       6.047  -7.143  29.244  0.00  0.00    -0.329 N 
ATOM     26  H   UNK A   0       6.836  -7.663  29.605  0.00  0.00    +0.145 HD
ATOM     27  H   UNK A   0       5.188  -7.684  29.307  0.00  0.00    +0.145 HD
ATOM     28  C   UNK A   0       6.207  -6.635  27.998  0.00  0.00    +0.195 A 
ATOM     29  N   UNK A   0       7.428  -6.096  27.779  0.00  0.00    -0.315 N 
ATOM     30  H   UNK A   0       8.110  -6.048  28.517  0.00  0.00    +0.170 HD
ATOM     31  C   UNK A   0       7.764  -5.533  26.584  0.00  0.00    +0.125 A 
ATOM     32  N   UNK A   0       9.015  -4.956  26.387  0.00  0.00    -0.327 N 
ATOM     33  H   UNK A   0       9.432  -4.539  27.211  0.00  0.00    +0.148 HD
ATOM     34  C   UNK A   0       9.357  -4.335  25.090  0.00  0.00    +0.126 C 
ATOM     35  C   UNK A   0       8.082  -3.772  24.401  0.00  0.00    +0.105 C 
ATOM     36  N   UNK A   0       7.051  -4.838  24.366  0.00  0.00    -0.331 N 
ATOM     37  H   UNK A   0       6.153  -4.588  23.946  0.00  0.00    +0.147 HD
ATOM     38  C   UNK A   0       6.834  -5.505  25.593  0.00  0.00    +0.133 A 
ATOM     39  C   UNK A   0       5.468  -6.106  25.893  0.00  0.00    +0.297 A 
ATOM     40  O   UNK A   0       4.595  -6.031  25.028  0.00  0.00    -0.264 OA
ATOM     41  N   UNK A   0       5.247  -6.671  27.136  0.00  0.00    -0.176 NA
ENDBRANCH  24  35
ENDBRANCH  22  24
ENDBRANCH   1  22
TORSDOF 11
ENDMDL
MODEL 9
REMARK VINA RESULT:      -7.9      4.405      9.212
REMARK  Name = 
REMARK  11 active torsions:
REMARK  status: ('A' for Active; 'I' for Inactive)
REMARK    1  A    between atoms: C_10  and  C_11
REMARK    2  A    between atoms: C_11  and  N_12
REMARK    3  A    between atoms: N_12  and  C_13
REMARK    4  A    between atoms: C_16  and  C_19
REMARK    5  A    between atoms: N_21  and  CA_22
REMARK    6  A    between atoms: CA_22  and  CB_24
REMARK    7  A    between atoms: CA_22  and  C_29
REMARK    8  A    between atoms: CB_24  and  CG_25
REMARK    9  A    between atoms: CG_25  and  CD_26
REMARK   10  A    between atoms: CD_26  and  OE1_27
REMARK   11  A    between atoms: C_29  and  O_30
REMARK                            x       y       z     vdW  Elec       q    Type
REMARK                         _______ _______ _______ _____ _____    ______ ____
ROOT
ATOM      1  C   UNK A   0      10.094   1.921  23.076  0.00  0.00    +0.027 A 
ATOM      2  C   UNK A   0      10.278   1.306  24.322  0.00  0.00    +0.023 A 
ATOM      3  C   UNK A   0      10.096  -0.076  24.500  0.00  0.00    +0.015 A 
ATOM      4  C   UNK A   0       9.734  -0.878  23.414  0.00  0.00    +0.037 A 
ATOM      5  C   UNK A   0       9.614  -0.283  22.154  0.00  0.00    +0.015 A 
ATOM      6  C   UNK A   0       9.813   1.091  21.986  0.00  0.00    +0.023 A 
ENDROOT
BRANCH   4   7
ATOM      7  C   UNK A   0       9.363  -2.320  23.527  0.00  0.00    +0.245 C 
ATOM      8  N   GLU A   1       8.062  -2.692  23.229  0.00  0.00    -0.298 N 
ATOM      9  H   GLU A   1       7.324  -1.996  23.237  0.00  0.00    +0.150 HD
ATOM     10  O   UNK A   0      10.212  -3.159  23.796  0.00  0.00    -0.270 OA
BRANCH   8  11
ATOM     11  CA  GLU A   1       7.663  -4.119  23.279  0.00  0.00    +0.182 C 
BRANCH  11  12
ATOM     12  C   GLU A   1       6.861  -4.510  22.015  0.00  0.00    +0.325 C 
ATOM     13  OXT GLU A   1       5.972  -3.828  21.524  0.00  0.00    -0.249 OA
BRANCH  12  14
ATOM     14  O   GLU A   1       7.263  -5.668  21.441  0.00  0.00    -0.479 OA
ATOM     15  H   GLU A   1       7.354  -5.541  20.477  0.00  0.00    +0.295 HD
ENDBRANCH  12  14
ENDBRANCH  11  12
BRANCH  11  16
ATOM     16  CB  GLU A   1       6.855  -4.397  24.558  0.00  0.00    +0.045 C 
BRANCH  16  17
ATOM     17  CG  GLU A   1       7.481  -5.473  25.453  0.00  0.00    +0.123 C 
BRANCH  17  18
ATOM     18  CD  GLU A   1       8.771  -5.016  26.090  0.00  0.00    +0.305 C 
ATOM     19  OE2 GLU A   1       8.865  -4.154  26.947  0.00  0.00    -0.251 OA
BRANCH  18  20
ATOM     20  OE1 GLU A   1       9.843  -5.685  25.604  0.00  0.00    -0.481 OA
ATOM     21  HE1 GLU A   1       9.679  -6.637  25.458  0.00  0.00    +0.295 HD
ENDBRANCH  18  20
ENDBRANCH  17  18
ENDBRANCH  16  17
ENDBRANCH  11  16
ENDBRANCH   8  11
ENDBRANCH   4   7
BRANCH   1  22
ATOM     22  N   UNK A   0      10.294   3.302  22.975  0.00  0.00    -0.342 N 
ATOM     23  H   UNK A   0      11.277   3.555  23.102  0.00  0.00    +0.146 HD
BRANCH  22  24
ATOM     24  C   UNK A   0       9.402   4.210  23.699  0.00  0.00    +0.125 C 
BRANCH  24  35
ATOM     25  N   UNK A   0       1.863   3.989  21.952  0.00  0.00    -0.329 N 
ATOM     26  H   UNK A   0       1.519   4.938  21.898  0.00  0.00    +0.145 HD
ATOM     27  H   UNK A   0       1.181   3.372  22.384  0.00  0.00    +0.145 HD
ATOM     28  C   UNK A   0       3.081   3.844  22.531  0.00  0.00    +0.195 A 
ATOM     29  N   UNK A   0       3.978   4.786  22.160  0.00  0.00    -0.315 N 
ATOM     30  H   UNK A   0       3.741   5.482  21.474  0.00  0.00    +0.170 HD
ATOM     31  C   UNK A   0       5.255   4.792  22.639  0.00  0.00    +0.125 A 
ATOM     32  N   UNK A   0       6.174   5.751  22.223  0.00  0.00    -0.327 N 
ATOM     33  H   UNK A   0       6.050   6.084  21.275  0.00  0.00    +0.148 HD
ATOM     34  C   UNK A   0       7.559   5.734  22.739  0.00  0.00    +0.126 C 
ATOM     35  C   UNK A   0       7.995   4.281  23.084  0.00  0.00    +0.105 C 
ATOM     36  N   UNK A   0       6.962   3.671  23.956  0.00  0.00    -0.331 N 
ATOM     37  H   UNK A   0       7.126   2.703  24.245  0.00  0.00    +0.147 HD
ATOM     38  C   UNK A   0       5.631   3.813  23.503  0.00  0.00    +0.133 A 
ATOM     39  C   UNK A   0       4.592   2.765  23.874  0.00  0.00    +0.297 A 
ATOM     40  O   UNK A   0       4.936   1.836  24.606  0.00  0.00    -0.264 OA
ATOM     41  N   UNK A   0       3.319   2.871  23.344  0.00  0.00    -0.176 NA
ENDBRANCH  24  35
ENDBRANCH  22  24
ENDBRANCH   1  22
TORSDOF 11
ENDMDL
