MODEL 1
REMARK VINA RESULT:      -6.3      0.000      0.000
REMARK  Name = 
REMARK  18 active torsions:
REMARK  status: ('A' for Active; 'I' for Inactive)
REMARK    1  A    between atoms: C_1  and  C_2
REMARK    2  A    between atoms: C_2  and  C_3
REMARK    3  A    between atoms: C_3  and  C_4
REMARK    4  A    between atoms: C_4  and  C_5
REMARK    5  A    between atoms: C_5  and  C_7
REMARK    6  A    between atoms: C_5  and  C_8
REMARK    7  A    between atoms: C_8  and  C_9
REMARK    8  A    between atoms: C_9  and  O_11
REMARK    9  A    between atoms: C_9  and  C_12
REMARK   10  A    between atoms: C_13  and  C_14
REMARK   11  A    between atoms: C_16  and  O_18
REMARK   12  A    between atoms: C_22  and  C_24
REMARK   13  A    between atoms: C_24  and  C_25
REMARK   14  A    between atoms: C_25  and  C_26
REMARK   15  A    between atoms: C_26  and  C_27
REMARK   16  A    between atoms: C_27  and  C_28
REMARK   17  A    between atoms: C_29  and  C_30
REMARK   18  A    between atoms: C_30  and  O_31
REMARK                            x       y       z     vdW  Elec       q    Type
REMARK                         _______ _______ _______ _____ _____    ______ ____
ROOT
ATOM      1  C   UNL     1       9.319  -1.024  23.694  0.00  0.00    +0.051 C 
ATOM      2  C   UNL     1       7.986  -0.236  23.704  0.00  0.00    +0.065 C 
ATOM      3  C   UNL     1       8.023   0.447  22.348  0.00  0.00    +0.140 C 
ATOM      4  O   UNL     1       7.244   1.320  21.985  0.00  0.00    -0.297 OA
ATOM      5  C   UNL     1       9.127  -0.052  21.470  0.00  0.00    +0.106 C 
ATOM      6  C   UNL     1       9.542  -1.319  22.194  0.00  0.00    +0.129 C 
ENDROOT
BRANCH   6   7
ATOM      7  O   UNL     1      10.894  -1.645  21.903  0.00  0.00    -0.391 OA
ATOM      8  H   UNL     1      11.281  -0.941  21.355  0.00  0.00    +0.210 HD
ENDBRANCH   6   7
BRANCH   1  10
ATOM      9  C   UNL     1       9.510  -3.501  24.305  0.00  0.00    -0.000 C 
ATOM     10  C   UNL     1       9.212  -2.225  24.611  0.00  0.00    -0.022 C 
BRANCH   9  11
ATOM     11  C   UNL     1       9.226  -4.726  25.141  0.00  0.00    +0.137 C 
BRANCH  11  12
ATOM     12  O   UNL     1      10.441  -5.429  25.405  0.00  0.00    -0.388 OA
ATOM     13  H   UNL     1      10.669  -5.252  26.332  0.00  0.00    +0.210 HD
ENDBRANCH  11  12
BRANCH  11  14
ATOM     14  C   UNL     1       8.606  -4.378  26.510  0.00  0.00    +0.038 C 
BRANCH  14  15
ATOM     15  C   UNL     1       7.087  -4.616  26.672  0.00  0.00    -0.011 C 
ATOM     16  C   UNL     1       6.356  -3.343  27.116  0.00  0.00    +0.007 C 
BRANCH  15  17
ATOM     17  C   UNL     1       6.440  -5.114  25.357  0.00  0.00    +0.003 C 
BRANCH  17  18
ATOM     18  C   UNL     1       5.779  -4.051  24.470  0.00  0.00    -0.000 C 
BRANCH  18  20
ATOM     19  C   UNL     1       5.830  -2.898  22.228  0.00  0.00    +0.004 C 
ATOM     20  C   UNL     1       6.134  -4.181  22.988  0.00  0.00    -0.003 C 
ENDBRANCH  18  20
ENDBRANCH  17  18
ENDBRANCH  15  17
ENDBRANCH  14  15
ENDBRANCH  11  14
ENDBRANCH   9  11
ENDBRANCH   1  10
BRANCH   2  21
ATOM     21  C   UNL     1       7.878   0.762  24.865  0.00  0.00    +0.012 C 
BRANCH  21  22
ATOM     22  C   UNL     1       9.047   1.756  24.871  0.00  0.00    +0.001 C 
BRANCH  22  23
ATOM     23  C   UNL     1       8.636   3.215  24.684  0.00  0.00    +0.004 C 
BRANCH  23  24
ATOM     24  C   UNL     1       9.247   3.859  23.438  0.00  0.00    +0.027 C 
BRANCH  24  25
ATOM     25  C   UNL     1      10.388   4.758  23.816  0.00  0.00    -0.020 C 
ATOM     26  C   UNL     1      11.658   4.523  23.439  0.00  0.00    +0.087 C 
BRANCH  26  27
ATOM     27  C   UNL     1      12.825   5.380  23.733  0.00  0.00    +0.329 C 
ATOM     28  O   UNL     1      12.736   6.357  24.458  0.00  0.00    -0.246 OA
BRANCH  27  29
ATOM     29  O   UNL     1      13.970   5.018  23.125  0.00  0.00    -0.478 OA
ATOM     30  H   UNL     1      14.720   4.888  23.731  0.00  0.00    +0.295 HD
ENDBRANCH  27  29
ENDBRANCH  26  27
ENDBRANCH  24  25
ENDBRANCH  23  24
ENDBRANCH  22  23
ENDBRANCH  21  22
ENDBRANCH   2  21
TORSDOF 16
ENDMDL
MODEL 2
REMARK VINA RESULT:      -6.2      3.266      8.113
REMARK  Name = 
REMARK  18 active torsions:
REMARK  status: ('A' for Active; 'I' for Inactive)
REMARK    1  A    between atoms: C_1  and  C_2
REMARK    2  A    between atoms: C_2  and  C_3
REMARK    3  A    between atoms: C_3  and  C_4
REMARK    4  A    between atoms: C_4  and  C_5
REMARK    5  A    between atoms: C_5  and  C_7
REMARK    6  A    between atoms: C_5  and  C_8
REMARK    7  A    between atoms: C_8  and  C_9
REMARK    8  A    between atoms: C_9  and  O_11
REMARK    9  A    between atoms: C_9  and  C_12
REMARK   10  A    between atoms: C_13  and  C_14
REMARK   11  A    between atoms: C_16  and  O_18
REMARK   12  A    between atoms: C_22  and  C_24
REMARK   13  A    between atoms: C_24  and  C_25
REMARK   14  A    between atoms: C_25  and  C_26
REMARK   15  A    between atoms: C_26  and  C_27
REMARK   16  A    between atoms: C_27  and  C_28
REMARK   17  A    between atoms: C_29  and  C_30
REMARK   18  A    between atoms: C_30  and  O_31
REMARK                            x       y       z     vdW  Elec       q    Type
REMARK                         _______ _______ _______ _____ _____    ______ ____
ROOT
ATOM      1  C   UNL     1       7.171  -3.447  25.334  0.00  0.00    +0.051 C 
ATOM      2  C   UNL     1       6.806  -3.773  26.803  0.00  0.00    +0.065 C 
ATOM      3  C   UNL     1       7.493  -5.113  26.999  0.00  0.00    +0.140 C 
ATOM      4  O   UNL     1       7.334  -5.843  27.970  0.00  0.00    -0.297 OA
ATOM      5  C   UNL     1       8.404  -5.476  25.869  0.00  0.00    +0.106 C 
ATOM      6  C   UNL     1       8.533  -4.149  25.145  0.00  0.00    +0.129 C 
ENDROOT
BRANCH   6   7
ATOM      7  O   UNL     1       8.851  -4.353  23.775  0.00  0.00    -0.391 OA
ATOM      8  H   UNL     1       8.223  -3.857  23.224  0.00  0.00    +0.210 HD
ENDBRANCH   6   7
BRANCH   1  10
ATOM      9  C   UNL     1       6.384  -1.270  24.243  0.00  0.00    -0.000 C 
ATOM     10  C   UNL     1       7.148  -1.947  25.121  0.00  0.00    -0.022 C 
BRANCH   9  11
ATOM     11  C   UNL     1       6.490   0.193  23.887  0.00  0.00    +0.137 C 
BRANCH  11  12
ATOM     12  O   UNL     1       5.309   0.882  24.299  0.00  0.00    -0.388 OA
ATOM     13  H   UNL     1       4.806   1.078  23.492  0.00  0.00    +0.210 HD
ENDBRANCH  11  12
BRANCH  11  14
ATOM     14  C   UNL     1       7.678   0.888  24.583  0.00  0.00    +0.038 C 
BRANCH  14  15
ATOM     15  C   UNL     1       8.475   1.918  23.751  0.00  0.00    -0.011 C 
ATOM     16  C   UNL     1       9.947   1.979  24.178  0.00  0.00    +0.007 C 
BRANCH  15  17
ATOM     17  C   UNL     1       8.422   1.597  22.237  0.00  0.00    +0.003 C 
BRANCH  17  18
ATOM     18  C   UNL     1       9.597   0.795  21.663  0.00  0.00    -0.000 C 
BRANCH  18  20
ATOM     19  C   UNL     1      10.256  -1.467  22.559  0.00  0.00    +0.004 C 
ATOM     20  C   UNL     1       9.342  -0.711  21.606  0.00  0.00    -0.003 C 
ENDBRANCH  18  20
ENDBRANCH  17  18
ENDBRANCH  15  17
ENDBRANCH  14  15
ENDBRANCH  11  14
ENDBRANCH   9  11
ENDBRANCH   1  10
BRANCH   2  21
ATOM     21  C   UNL     1       5.294  -3.842  27.053  0.00  0.00    +0.012 C 
BRANCH  21  22
ATOM     22  C   UNL     1       4.543  -4.411  25.842  0.00  0.00    +0.001 C 
BRANCH  22  23
ATOM     23  C   UNL     1       4.193  -5.894  25.956  0.00  0.00    +0.004 C 
BRANCH  23  24
ATOM     24  C   UNL     1       4.636  -6.713  24.742  0.00  0.00    +0.027 C 
BRANCH  24  25
ATOM     25  C   UNL     1       4.874  -5.818  23.561  0.00  0.00    -0.020 C 
ATOM     26  C   UNL     1       5.940  -5.946  22.751  0.00  0.00    +0.087 C 
BRANCH  26  27
ATOM     27  C   UNL     1       6.221  -5.136  21.548  0.00  0.00    +0.329 C 
ATOM     28  O   UNL     1       5.991  -5.555  20.426  0.00  0.00    -0.246 OA
BRANCH  27  29
ATOM     29  O   UNL     1       6.766  -3.929  21.784  0.00  0.00    -0.478 OA
ATOM     30  H   UNL     1       6.175  -3.306  22.241  0.00  0.00    +0.295 HD
ENDBRANCH  27  29
ENDBRANCH  26  27
ENDBRANCH  24  25
ENDBRANCH  23  24
ENDBRANCH  22  23
ENDBRANCH  21  22
ENDBRANCH   2  21
TORSDOF 16
ENDMDL
MODEL 3
REMARK VINA RESULT:      -6.2      2.889      7.705
REMARK  Name = 
REMARK  18 active torsions:
REMARK  status: ('A' for Active; 'I' for Inactive)
REMARK    1  A    between atoms: C_1  and  C_2
REMARK    2  A    between atoms: C_2  and  C_3
REMARK    3  A    between atoms: C_3  and  C_4
REMARK    4  A    between atoms: C_4  and  C_5
REMARK    5  A    between atoms: C_5  and  C_7
REMARK    6  A    between atoms: C_5  and  C_8
REMARK    7  A    between atoms: C_8  and  C_9
REMARK    8  A    between atoms: C_9  and  O_11
REMARK    9  A    between atoms: C_9  and  C_12
REMARK   10  A    between atoms: C_13  and  C_14
REMARK   11  A    between atoms: C_16  and  O_18
REMARK   12  A    between atoms: C_22  and  C_24
REMARK   13  A    between atoms: C_24  and  C_25
REMARK   14  A    between atoms: C_25  and  C_26
REMARK   15  A    between atoms: C_26  and  C_27
REMARK   16  A    between atoms: C_27  and  C_28
REMARK   17  A    between atoms: C_29  and  C_30
REMARK   18  A    between atoms: C_30  and  O_31
REMARK                            x       y       z     vdW  Elec       q    Type
REMARK                         _______ _______ _______ _____ _____    ______ ____
ROOT
ATOM      1  C   UNL     1       8.071  -3.471  24.849  0.00  0.00    +0.051 C 
ATOM      2  C   UNL     1       7.637  -3.048  26.274  0.00  0.00    +0.065 C 
ATOM      3  C   UNL     1       7.255  -4.383  26.887  0.00  0.00    +0.140 C 
ATOM      4  O   UNL     1       6.684  -4.519  27.963  0.00  0.00    -0.297 OA
ATOM      5  C   UNL     1       7.644  -5.552  26.038  0.00  0.00    +0.106 C 
ATOM      6  C   UNL     1       8.603  -4.906  25.055  0.00  0.00    +0.129 C 
ENDROOT
BRANCH   6   7
ATOM      7  O   UNL     1       8.650  -5.644  23.842  0.00  0.00    -0.391 OA
ATOM      8  H   UNL     1       7.961  -5.316  23.241  0.00  0.00    +0.210 HD
ENDBRANCH   6   7
BRANCH   1  10
ATOM      9  C   UNL     1       8.893  -1.713  23.182  0.00  0.00    -0.000 C 
ATOM     10  C   UNL     1       9.051  -2.460  24.290  0.00  0.00    -0.022 C 
BRANCH   9  11
ATOM     11  C   UNL     1       9.935  -0.850  22.511  0.00  0.00    +0.137 C 
BRANCH  11  12
ATOM     12  O   UNL     1      10.777  -1.655  21.685  0.00  0.00    -0.388 OA
ATOM     13  H   UNL     1      10.471  -2.572  21.786  0.00  0.00    +0.210 HD
ENDBRANCH  11  12
BRANCH  11  14
ATOM     14  C   UNL     1       9.314   0.228  21.600  0.00  0.00    +0.038 C 
BRANCH  14  15
ATOM     15  C   UNL     1       9.577   1.703  21.978  0.00  0.00    -0.011 C 
ATOM     16  C   UNL     1       8.303   2.552  21.883  0.00  0.00    +0.007 C 
BRANCH  15  17
ATOM     17  C   UNL     1      10.143   1.836  23.413  0.00  0.00    +0.003 C 
BRANCH  17  18
ATOM     18  C   UNL     1       9.180   2.365  24.485  0.00  0.00    -0.000 C 
BRANCH  18  20
ATOM     19  C   UNL     1       6.993   1.183  24.901  0.00  0.00    +0.004 C 
ATOM     20  C   UNL     1       8.468   1.262  25.268  0.00  0.00    -0.003 C 
ENDBRANCH  18  20
ENDBRANCH  17  18
ENDBRANCH  15  17
ENDBRANCH  14  15
ENDBRANCH  11  14
ENDBRANCH   9  11
ENDBRANCH   1  10
BRANCH   2  21
ATOM     21  C   UNL     1       6.479  -2.041  26.283  0.00  0.00    +0.012 C 
BRANCH  21  22
ATOM     22  C   UNL     1       5.541  -2.242  25.085  0.00  0.00    +0.001 C 
BRANCH  22  23
ATOM     23  C   UNL     1       4.218  -2.925  25.428  0.00  0.00    +0.004 C 
BRANCH  23  24
ATOM     24  C   UNL     1       3.931  -4.154  24.562  0.00  0.00    +0.027 C 
BRANCH  24  25
ATOM     25  C   UNL     1       4.692  -4.077  23.271  0.00  0.00    -0.020 C 
ATOM     26  C   UNL     1       5.415  -5.104  22.787  0.00  0.00    +0.087 C 
BRANCH  26  27
ATOM     27  C   UNL     1       6.153  -5.121  21.508  0.00  0.00    +0.329 C 
ATOM     28  O   UNL     1       7.046  -5.925  21.295  0.00  0.00    -0.246 OA
BRANCH  27  29
ATOM     29  O   UNL     1       5.787  -4.178  20.621  0.00  0.00    -0.478 OA
ATOM     30  H   UNL     1       4.968  -3.709  20.853  0.00  0.00    +0.295 HD
ENDBRANCH  27  29
ENDBRANCH  26  27
ENDBRANCH  24  25
ENDBRANCH  23  24
ENDBRANCH  22  23
ENDBRANCH  21  22
ENDBRANCH   2  21
TORSDOF 16
ENDMDL
MODEL 4
REMARK VINA RESULT:      -6.1      3.195      8.579
REMARK  Name = 
REMARK  18 active torsions:
REMARK  status: ('A' for Active; 'I' for Inactive)
REMARK    1  A    between atoms: C_1  and  C_2
REMARK    2  A    between atoms: C_2  and  C_3
REMARK    3  A    between atoms: C_3  and  C_4
REMARK    4  A    between atoms: C_4  and  C_5
REMARK    5  A    between atoms: C_5  and  C_7
REMARK    6  A    between atoms: C_5  and  C_8
REMARK    7  A    between atoms: C_8  and  C_9
REMARK    8  A    between atoms: C_9  and  O_11
REMARK    9  A    between atoms: C_9  and  C_12
REMARK   10  A    between atoms: C_13  and  C_14
REMARK   11  A    between atoms: C_16  and  O_18
REMARK   12  A    between atoms: C_22  and  C_24
REMARK   13  A    between atoms: C_24  and  C_25
REMARK   14  A    between atoms: C_25  and  C_26
REMARK   15  A    between atoms: C_26  and  C_27
REMARK   16  A    between atoms: C_27  and  C_28
REMARK   17  A    between atoms: C_29  and  C_30
REMARK   18  A    between atoms: C_30  and  O_31
REMARK                            x       y       z     vdW  Elec       q    Type
REMARK                         _______ _______ _______ _____ _____    ______ ____
ROOT
ATOM      1  C   UNL     1       6.591  -3.218  23.357  0.00  0.00    +0.051 C 
ATOM      2  C   UNL     1       7.865  -3.459  24.203  0.00  0.00    +0.065 C 
ATOM      3  C   UNL     1       8.200  -4.897  23.850  0.00  0.00    +0.140 C 
ATOM      4  O   UNL     1       9.044  -5.578  24.420  0.00  0.00    -0.297 OA
ATOM      5  C   UNL     1       7.383  -5.428  22.714  0.00  0.00    +0.106 C 
ATOM      6  C   UNL     1       6.791  -4.153  22.144  0.00  0.00    +0.129 C 
ENDROOT
BRANCH   6   7
ATOM      7  O   UNL     1       5.574  -4.424  21.463  0.00  0.00    -0.391 OA
ATOM      8  H   UNL     1       4.938  -4.811  22.088  0.00  0.00    +0.210 HD
ENDBRANCH   6   7
BRANCH   1  10
ATOM      9  C   UNL     1       6.797  -0.717  23.857  0.00  0.00    -0.000 C 
ATOM     10  C   UNL     1       6.447  -1.740  23.055  0.00  0.00    -0.022 C 
BRANCH   9  11
ATOM     11  C   UNL     1       6.485   0.746  23.653  0.00  0.00    +0.137 C 
BRANCH  11  12
ATOM     12  O   UNL     1       5.239   1.069  24.271  0.00  0.00    -0.388 OA
ATOM     13  H   UNL     1       5.439   1.310  25.190  0.00  0.00    +0.210 HD
ENDBRANCH  11  12
BRANCH  11  14
ATOM     14  C   UNL     1       7.548   1.671  24.279  0.00  0.00    +0.038 C 
BRANCH  14  15
ATOM     15  C   UNL     1       8.247   2.676  23.335  0.00  0.00    -0.011 C 
ATOM     16  C   UNL     1       9.574   3.177  23.920  0.00  0.00    +0.007 C 
BRANCH  15  17
ATOM     17  C   UNL     1       8.534   2.054  21.946  0.00  0.00    +0.003 C 
BRANCH  17  18
ATOM     18  C   UNL     1       9.797   1.192  21.825  0.00  0.00    -0.000 C 
BRANCH  18  20
ATOM     19  C   UNL     1      10.175  -1.239  22.374  0.00  0.00    +0.004 C 
ATOM     20  C   UNL     1       9.516  -0.255  21.418  0.00  0.00    -0.003 C 
ENDBRANCH  18  20
ENDBRANCH  17  18
ENDBRANCH  15  17
ENDBRANCH  14  15
ENDBRANCH  11  14
ENDBRANCH   9  11
ENDBRANCH   1  10
BRANCH   2  21
ATOM     21  C   UNL     1       7.644  -3.257  25.707  0.00  0.00    +0.012 C 
BRANCH  21  22
ATOM     22  C   UNL     1       6.290  -3.818  26.163  0.00  0.00    +0.001 C 
BRANCH  22  23
ATOM     23  C   UNL     1       6.386  -5.084  27.012  0.00  0.00    +0.004 C 
BRANCH  23  24
ATOM     24  C   UNL     1       5.602  -6.262  26.429  0.00  0.00    +0.027 C 
BRANCH  24  25
ATOM     25  C   UNL     1       4.672  -5.792  25.348  0.00  0.00    -0.020 C 
ATOM     26  C   UNL     1       4.259  -6.586  24.344  0.00  0.00    +0.087 C 
BRANCH  26  27
ATOM     27  C   UNL     1       3.315  -6.213  23.271  0.00  0.00    +0.329 C 
ATOM     28  O   UNL     1       3.222  -5.064  22.871  0.00  0.00    -0.246 OA
BRANCH  27  29
ATOM     29  O   UNL     1       2.559  -7.219  22.797  0.00  0.00    -0.478 OA
ATOM     30  H   UNL     1       1.630  -7.189  23.082  0.00  0.00    +0.295 HD
ENDBRANCH  27  29
ENDBRANCH  26  27
ENDBRANCH  24  25
ENDBRANCH  23  24
ENDBRANCH  22  23
ENDBRANCH  21  22
ENDBRANCH   2  21
TORSDOF 16
ENDMDL
MODEL 5
REMARK VINA RESULT:      -6.1      2.206      7.848
REMARK  Name = 
REMARK  18 active torsions:
REMARK  status: ('A' for Active; 'I' for Inactive)
REMARK    1  A    between atoms: C_1  and  C_2
REMARK    2  A    between atoms: C_2  and  C_3
REMARK    3  A    between atoms: C_3  and  C_4
REMARK    4  A    between atoms: C_4  and  C_5
REMARK    5  A    between atoms: C_5  and  C_7
REMARK    6  A    between atoms: C_5  and  C_8
REMARK    7  A    between atoms: C_8  and  C_9
REMARK    8  A    between atoms: C_9  and  O_11
REMARK    9  A    between atoms: C_9  and  C_12
REMARK   10  A    between atoms: C_13  and  C_14
REMARK   11  A    between atoms: C_16  and  O_18
REMARK   12  A    between atoms: C_22  and  C_24
REMARK   13  A    between atoms: C_24  and  C_25
REMARK   14  A    between atoms: C_25  and  C_26
REMARK   15  A    between atoms: C_26  and  C_27
REMARK   16  A    between atoms: C_27  and  C_28
REMARK   17  A    between atoms: C_29  and  C_30
REMARK   18  A    between atoms: C_30  and  O_31
REMARK                            x       y       z     vdW  Elec       q    Type
REMARK                         _______ _______ _______ _____ _____    ______ ____
ROOT
ATOM      1  C   UNL     1       9.781   1.002  23.407  0.00  0.00    +0.051 C 
ATOM      2  C   UNL     1      10.241  -0.240  24.210  0.00  0.00    +0.065 C 
ATOM      3  C   UNL     1       9.820  -1.372  23.291  0.00  0.00    +0.140 C 
ATOM      4  O   UNL     1       9.828  -2.559  23.595  0.00  0.00    -0.297 OA
ATOM      5  C   UNL     1       9.377  -0.899  21.942  0.00  0.00    +0.106 C 
ATOM      6  C   UNL     1       9.885   0.531  21.940  0.00  0.00    +0.129 C 
ENDROOT
BRANCH   6   7
ATOM      7  O   UNL     1       9.115   1.336  21.058  0.00  0.00    -0.391 OA
ATOM      8  H   UNL     1       8.528   1.909  21.579  0.00  0.00    +0.210 HD
ENDBRANCH   6   7
BRANCH   1  10
ATOM      9  C   UNL     1      10.686   3.381  23.148  0.00  0.00    -0.000 C 
ATOM     10  C   UNL     1      10.623   2.202  23.793  0.00  0.00    -0.022 C 
BRANCH   9  11
ATOM     11  C   UNL     1      11.658   4.508  23.408  0.00  0.00    +0.137 C 
BRANCH  11  12
ATOM     12  O   UNL     1      12.310   4.880  22.193  0.00  0.00    -0.388 OA
ATOM     13  H   UNL     1      12.248   5.848  22.131  0.00  0.00    +0.210 HD
ENDBRANCH  11  12
BRANCH  11  14
ATOM     14  C   UNL     1      10.964   5.775  23.949  0.00  0.00    +0.038 C 
BRANCH  14  15
ATOM     15  C   UNL     1       9.440   5.691  24.193  0.00  0.00    -0.011 C 
ATOM     16  C   UNL     1       9.083   5.949  25.662  0.00  0.00    +0.007 C 
BRANCH  15  17
ATOM     17  C   UNL     1       8.662   6.705  23.319  0.00  0.00    +0.003 C 
BRANCH  17  18
ATOM     18  C   UNL     1       7.656   6.121  22.317  0.00  0.00    -0.000 C 
BRANCH  18  20
ATOM     19  C   UNL     1       6.968   3.702  22.150  0.00  0.00    +0.004 C 
ATOM     20  C   UNL     1       6.782   5.011  22.903  0.00  0.00    -0.003 C 
ENDBRANCH  18  20
ENDBRANCH  17  18
ENDBRANCH  15  17
ENDBRANCH  14  15
ENDBRANCH  11  14
ENDBRANCH   9  11
ENDBRANCH   1  10
BRANCH   2  21
ATOM     21  C   UNL     1       9.597  -0.337  25.600  0.00  0.00    +0.012 C 
BRANCH  21  22
ATOM     22  C   UNL     1       8.168   0.219  25.605  0.00  0.00    +0.001 C 
BRANCH  22  23
ATOM     23  C   UNL     1       7.107  -0.769  26.087  0.00  0.00    +0.004 C 
BRANCH  23  24
ATOM     24  C   UNL     1       5.840  -0.759  25.230  0.00  0.00    +0.027 C 
BRANCH  24  25
ATOM     25  C   UNL     1       6.110  -1.358  23.881  0.00  0.00    -0.020 C 
ATOM     26  C   UNL     1       6.192  -2.685  23.674  0.00  0.00    +0.087 C 
BRANCH  26  27
ATOM     27  C   UNL     1       6.412  -3.351  22.375  0.00  0.00    +0.329 C 
ATOM     28  O   UNL     1       5.559  -3.350  21.502  0.00  0.00    -0.246 OA
BRANCH  27  29
ATOM     29  O   UNL     1       7.598  -3.972  22.241  0.00  0.00    -0.478 OA
ATOM     30  H   UNL     1       8.106  -4.044  23.067  0.00  0.00    +0.295 HD
ENDBRANCH  27  29
ENDBRANCH  26  27
ENDBRANCH  24  25
ENDBRANCH  23  24
ENDBRANCH  22  23
ENDBRANCH  21  22
ENDBRANCH   2  21
TORSDOF 16
ENDMDL
MODEL 6
REMARK VINA RESULT:      -6.1      2.694      5.618
REMARK  Name = 
REMARK  18 active torsions:
REMARK  status: ('A' for Active; 'I' for Inactive)
REMARK    1  A    between atoms: C_1  and  C_2
REMARK    2  A    between atoms: C_2  and  C_3
REMARK    3  A    between atoms: C_3  and  C_4
REMARK    4  A    between atoms: C_4  and  C_5
REMARK    5  A    between atoms: C_5  and  C_7
REMARK    6  A    between atoms: C_5  and  C_8
REMARK    7  A    between atoms: C_8  and  C_9
REMARK    8  A    between atoms: C_9  and  O_11
REMARK    9  A    between atoms: C_9  and  C_12
REMARK   10  A    between atoms: C_13  and  C_14
REMARK   11  A    between atoms: C_16  and  O_18
REMARK   12  A    between atoms: C_22  and  C_24
REMARK   13  A    between atoms: C_24  and  C_25
REMARK   14  A    between atoms: C_25  and  C_26
REMARK   15  A    between atoms: C_26  and  C_27
REMARK   16  A    between atoms: C_27  and  C_28
REMARK   17  A    between atoms: C_29  and  C_30
REMARK   18  A    between atoms: C_30  and  O_31
REMARK                            x       y       z     vdW  Elec       q    Type
REMARK                         _______ _______ _______ _____ _____    ______ ____
ROOT
ATOM      1  C   UNL     1       8.389  -1.086  22.935  0.00  0.00    +0.051 C 
ATOM      2  C   UNL     1       7.646   0.237  23.246  0.00  0.00    +0.065 C 
ATOM      3  C   UNL     1       8.605   1.268  22.679  0.00  0.00    +0.140 C 
ATOM      4  O   UNL     1       8.512   2.477  22.852  0.00  0.00    -0.297 OA
ATOM      5  C   UNL     1       9.709   0.661  21.871  0.00  0.00    +0.106 C 
ATOM      6  C   UNL     1       9.188  -0.748  21.657  0.00  0.00    +0.129 C 
ENDROOT
BRANCH   6   7
ATOM      7  O   UNL     1      10.262  -1.652  21.437  0.00  0.00    -0.391 OA
ATOM      8  H   UNL     1      10.219  -1.983  20.524  0.00  0.00    +0.210 HD
ENDBRANCH   6   7
BRANCH   1  10
ATOM      9  C   UNL     1       7.672  -3.526  22.656  0.00  0.00    -0.000 C 
ATOM     10  C   UNL     1       7.391  -2.221  22.828  0.00  0.00    -0.022 C 
BRANCH   9  11
ATOM     11  C   UNL     1       6.692  -4.635  22.356  0.00  0.00    +0.137 C 
BRANCH  11  12
ATOM     12  O   UNL     1       7.203  -5.471  21.318  0.00  0.00    -0.388 OA
ATOM     13  H   UNL     1       7.733  -4.900  20.737  0.00  0.00    +0.210 HD
ENDBRANCH  11  12
BRANCH  11  14
ATOM     14  C   UNL     1       6.435  -5.544  23.576  0.00  0.00    +0.038 C 
BRANCH  14  15
ATOM     15  C   UNL     1       5.140  -5.290  24.380  0.00  0.00    -0.011 C 
ATOM     16  C   UNL     1       4.017  -4.741  23.491  0.00  0.00    +0.007 C 
BRANCH  15  17
ATOM     17  C   UNL     1       4.627  -6.581  25.065  0.00  0.00    +0.003 C 
BRANCH  17  18
ATOM     18  C   UNL     1       4.873  -6.702  26.575  0.00  0.00    -0.000 C 
BRANCH  18  20
ATOM     19  C   UNL     1       5.438  -5.480  28.706  0.00  0.00    +0.004 C 
ATOM     20  C   UNL     1       4.842  -5.362  27.310  0.00  0.00    -0.003 C 
ENDBRANCH  18  20
ENDBRANCH  17  18
ENDBRANCH  15  17
ENDBRANCH  14  15
ENDBRANCH  11  14
ENDBRANCH   9  11
ENDBRANCH   1  10
BRANCH   2  21
ATOM     21  C   UNL     1       7.373   0.443  24.742  0.00  0.00    +0.012 C 
BRANCH  21  22
ATOM     22  C   UNL     1       8.636   0.224  25.586  0.00  0.00    +0.001 C 
BRANCH  22  23
ATOM     23  C   UNL     1       8.469  -0.785  26.720  0.00  0.00    +0.004 C 
BRANCH  23  24
ATOM     24  C   UNL     1       7.157  -1.568  26.644  0.00  0.00    +0.027 C 
BRANCH  24  25
ATOM     25  C   UNL     1       7.424  -3.019  26.370  0.00  0.00    -0.020 C 
ATOM     26  C   UNL     1       8.662  -3.512  26.184  0.00  0.00    +0.087 C 
BRANCH  26  27
ATOM     27  C   UNL     1       9.009  -4.929  25.954  0.00  0.00    +0.329 C 
ATOM     28  O   UNL     1       9.796  -5.262  25.083  0.00  0.00    -0.246 OA
BRANCH  27  29
ATOM     29  O   UNL     1       8.378  -5.811  26.751  0.00  0.00    -0.478 OA
ATOM     30  H   UNL     1       7.938  -5.410  27.520  0.00  0.00    +0.295 HD
ENDBRANCH  27  29
ENDBRANCH  26  27
ENDBRANCH  24  25
ENDBRANCH  23  24
ENDBRANCH  22  23
ENDBRANCH  21  22
ENDBRANCH   2  21
TORSDOF 16
ENDMDL
MODEL 7
REMARK VINA RESULT:      -6.0      2.125      3.630
REMARK  Name = 
REMARK  18 active torsions:
REMARK  status: ('A' for Active; 'I' for Inactive)
REMARK    1  A    between atoms: C_1  and  C_2
REMARK    2  A    between atoms: C_2  and  C_3
REMARK    3  A    between atoms: C_3  and  C_4
REMARK    4  A    between atoms: C_4  and  C_5
REMARK    5  A    between atoms: C_5  and  C_7
REMARK    6  A    between atoms: C_5  and  C_8
REMARK    7  A    between atoms: C_8  and  C_9
REMARK    8  A    between atoms: C_9  and  O_11
REMARK    9  A    between atoms: C_9  and  C_12
REMARK   10  A    between atoms: C_13  and  C_14
REMARK   11  A    between atoms: C_16  and  O_18
REMARK   12  A    between atoms: C_22  and  C_24
REMARK   13  A    between atoms: C_24  and  C_25
REMARK   14  A    between atoms: C_25  and  C_26
REMARK   15  A    between atoms: C_26  and  C_27
REMARK   16  A    between atoms: C_27  and  C_28
REMARK   17  A    between atoms: C_29  and  C_30
REMARK   18  A    between atoms: C_30  and  O_31
REMARK                            x       y       z     vdW  Elec       q    Type
REMARK                         _______ _______ _______ _____ _____    ______ ____
ROOT
ATOM      1  C   UNL     1       7.581  -1.684  24.889  0.00  0.00    +0.051 C 
ATOM      2  C   UNL     1       9.124  -1.715  25.016  0.00  0.00    +0.065 C 
ATOM      3  C   UNL     1       9.439  -0.254  25.282  0.00  0.00    +0.140 C 
ATOM      4  O   UNL     1      10.564   0.229  25.281  0.00  0.00    -0.297 OA
ATOM      5  C   UNL     1       8.219   0.570  25.550  0.00  0.00    +0.106 C 
ATOM      6  C   UNL     1       7.176  -0.503  25.799  0.00  0.00    +0.129 C 
ENDROOT
BRANCH   6   7
ATOM      7  O   UNL     1       5.874  -0.017  25.507  0.00  0.00    -0.391 OA
ATOM      8  H   UNL     1       5.942   0.722  24.878  0.00  0.00    +0.210 HD
ENDBRANCH   6   7
BRANCH   1  10
ATOM      9  C   UNL     1       7.637  -4.029  25.911  0.00  0.00    -0.000 C 
ATOM     10  C   UNL     1       7.009  -3.041  25.248  0.00  0.00    -0.022 C 
BRANCH   9  11
ATOM     11  C   UNL     1       7.151  -5.446  26.104  0.00  0.00    +0.137 C 
BRANCH  11  12
ATOM     12  O   UNL     1       7.680  -5.982  27.317  0.00  0.00    -0.388 OA
ATOM     13  H   UNL     1       8.349  -5.352  27.631  0.00  0.00    +0.210 HD
ENDBRANCH  11  12
BRANCH  11  14
ATOM     14  C   UNL     1       5.615  -5.535  26.207  0.00  0.00    +0.038 C 
BRANCH  14  15
ATOM     15  C   UNL     1       4.879  -6.295  25.081  0.00  0.00    -0.011 C 
ATOM     16  C   UNL     1       3.848  -7.283  25.640  0.00  0.00    +0.007 C 
BRANCH  15  17
ATOM     17  C   UNL     1       4.149  -5.326  24.117  0.00  0.00    +0.003 C 
BRANCH  17  18
ATOM     18  C   UNL     1       4.957  -4.812  22.918  0.00  0.00    -0.000 C 
BRANCH  18  20
ATOM     19  C   UNL     1       7.334  -5.342  22.267  0.00  0.00    +0.004 C 
ATOM     20  C   UNL     1       5.902  -5.856  22.322  0.00  0.00    -0.003 C 
ENDBRANCH  18  20
ENDBRANCH  17  18
ENDBRANCH  15  17
ENDBRANCH  14  15
ENDBRANCH  11  14
ENDBRANCH   9  11
ENDBRANCH   1  10
BRANCH   2  21
ATOM     21  C   UNL     1       9.827  -2.252  23.763  0.00  0.00    +0.012 C 
BRANCH  21  22
ATOM     22  C   UNL     1       9.094  -1.838  22.479  0.00  0.00    +0.001 C 
BRANCH  22  23
ATOM     23  C   UNL     1       9.860  -0.846  21.606  0.00  0.00    +0.004 C 
BRANCH  23  24
ATOM     24  C   UNL     1       9.007   0.337  21.146  0.00  0.00    +0.027 C 
BRANCH  24  25
ATOM     25  C   UNL     1       9.107   1.471  22.124  0.00  0.00    -0.020 C 
ATOM     26  C   UNL     1      10.261   2.114  22.381  0.00  0.00    +0.087 C 
BRANCH  26  27
ATOM     27  C   UNL     1      10.433   3.262  23.293  0.00  0.00    +0.329 C 
ATOM     28  O   UNL     1       9.602   3.533  24.145  0.00  0.00    -0.246 OA
BRANCH  27  29
ATOM     29  O   UNL     1      11.547   3.991  23.096  0.00  0.00    -0.478 OA
ATOM     30  H   UNL     1      11.383   4.936  22.936  0.00  0.00    +0.295 HD
ENDBRANCH  27  29
ENDBRANCH  26  27
ENDBRANCH  24  25
ENDBRANCH  23  24
ENDBRANCH  22  23
ENDBRANCH  21  22
ENDBRANCH   2  21
TORSDOF 16
ENDMDL
MODEL 8
REMARK VINA RESULT:      -5.9      2.985      6.815
REMARK  Name = 
REMARK  18 active torsions:
REMARK  status: ('A' for Active; 'I' for Inactive)
REMARK    1  A    between atoms: C_1  and  C_2
REMARK    2  A    between atoms: C_2  and  C_3
REMARK    3  A    between atoms: C_3  and  C_4
REMARK    4  A    between atoms: C_4  and  C_5
REMARK    5  A    between atoms: C_5  and  C_7
REMARK    6  A    between atoms: C_5  and  C_8
REMARK    7  A    between atoms: C_8  and  C_9
REMARK    8  A    between atoms: C_9  and  O_11
REMARK    9  A    between atoms: C_9  and  C_12
REMARK   10  A    between atoms: C_13  and  C_14
REMARK   11  A    between atoms: C_16  and  O_18
REMARK   12  A    between atoms: C_22  and  C_24
REMARK   13  A    between atoms: C_24  and  C_25
REMARK   14  A    between atoms: C_25  and  C_26
REMARK   15  A    between atoms: C_26  and  C_27
REMARK   16  A    between atoms: C_27  and  C_28
REMARK   17  A    between atoms: C_29  and  C_30
REMARK   18  A    between atoms: C_30  and  O_31
REMARK                            x       y       z     vdW  Elec       q    Type
REMARK                         _______ _______ _______ _____ _____    ______ ____
ROOT
ATOM      1  C   UNL     1       6.316  -2.228  22.701  0.00  0.00    +0.051 C 
ATOM      2  C   UNL     1       6.108  -1.958  24.212  0.00  0.00    +0.065 C 
ATOM      3  C   UNL     1       4.928  -2.862  24.525  0.00  0.00    +0.140 C 
ATOM      4  O   UNL     1       4.299  -2.850  25.576  0.00  0.00    -0.297 OA
ATOM      5  C   UNL     1       4.589  -3.792  23.403  0.00  0.00    +0.106 C 
ATOM      6  C   UNL     1       5.826  -3.683  22.533  0.00  0.00    +0.129 C 
ENDROOT
BRANCH   6   7
ATOM      7  O   UNL     1       5.520  -3.997  21.181  0.00  0.00    -0.391 OA
ATOM      8  H   UNL     1       4.746  -4.585  21.158  0.00  0.00    +0.210 HD
ENDBRANCH   6   7
BRANCH   1  10
ATOM      9  C   UNL     1       8.832  -2.045  23.131  0.00  0.00    -0.000 C 
ATOM     10  C   UNL     1       7.758  -1.952  22.326  0.00  0.00    -0.022 C 
BRANCH   9  11
ATOM     11  C   UNL     1      10.239  -1.589  22.826  0.00  0.00    +0.137 C 
BRANCH  11  12
ATOM     12  O   UNL     1      10.405  -1.431  21.416  0.00  0.00    -0.388 OA
ATOM     13  H   UNL     1      11.220  -0.917  21.289  0.00  0.00    +0.210 HD
ENDBRANCH  11  12
BRANCH  11  14
ATOM     14  C   UNL     1      10.574  -0.229  23.471  0.00  0.00    +0.038 C 
BRANCH  14  15
ATOM     15  C   UNL     1       9.473   0.855  23.433  0.00  0.00    -0.011 C 
ATOM     16  C   UNL     1       9.704   1.938  24.495  0.00  0.00    +0.007 C 
BRANCH  15  17
ATOM     17  C   UNL     1       9.393   1.544  22.048  0.00  0.00    +0.003 C 
BRANCH  17  18
ATOM     18  C   UNL     1       7.990   1.740  21.458  0.00  0.00    -0.000 C 
BRANCH  18  20
ATOM     19  C   UNL     1       6.252   2.803  22.942  0.00  0.00    +0.004 C 
ATOM     20  C   UNL     1       7.321   3.046  21.886  0.00  0.00    -0.003 C 
ENDBRANCH  18  20
ENDBRANCH  17  18
ENDBRANCH  15  17
ENDBRANCH  14  15
ENDBRANCH  11  14
ENDBRANCH   9  11
ENDBRANCH   1  10
BRANCH   2  21
ATOM     21  C   UNL     1       5.825  -0.485  24.533  0.00  0.00    +0.012 C 
BRANCH  21  22
ATOM     22  C   UNL     1       6.872   0.100  25.489  0.00  0.00    +0.001 C 
BRANCH  22  23
ATOM     23  C   UNL     1       7.141  -0.751  26.729  0.00  0.00    +0.004 C 
BRANCH  23  24
ATOM     24  C   UNL     1       8.461  -1.520  26.658  0.00  0.00    +0.027 C 
BRANCH  24  25
ATOM     25  C   UNL     1       8.215  -2.999  26.743  0.00  0.00    -0.020 C 
ATOM     26  C   UNL     1       8.877  -3.894  25.988  0.00  0.00    +0.087 C 
BRANCH  26  27
ATOM     27  C   UNL     1       8.724  -5.362  26.044  0.00  0.00    +0.329 C 
ATOM     28  O   UNL     1       7.755  -5.885  26.569  0.00  0.00    -0.246 OA
BRANCH  27  29
ATOM     29  O   UNL     1       9.735  -6.065  25.502  0.00  0.00    -0.478 OA
ATOM     30  H   UNL     1      10.543  -6.085  26.044  0.00  0.00    +0.295 HD
ENDBRANCH  27  29
ENDBRANCH  26  27
ENDBRANCH  24  25
ENDBRANCH  23  24
ENDBRANCH  22  23
ENDBRANCH  21  22
ENDBRANCH   2  21
TORSDOF 16
ENDMDL
MODEL 9
REMARK VINA RESULT:      -5.9      2.680      7.419
REMARK  Name = 
REMARK  18 active torsions:
REMARK  status: ('A' for Active; 'I' for Inactive)
REMARK    1  A    between atoms: C_1  and  C_2
REMARK    2  A    between atoms: C_2  and  C_3
REMARK    3  A    between atoms: C_3  and  C_4
REMARK    4  A    between atoms: C_4  and  C_5
REMARK    5  A    between atoms: C_5  and  C_7
REMARK    6  A    between atoms: C_5  and  C_8
REMARK    7  A    between atoms: C_8  and  C_9
REMARK    8  A    between atoms: C_9  and  O_11
REMARK    9  A    between atoms: C_9  and  C_12
REMARK   10  A    between atoms: C_13  and  C_14
REMARK   11  A    between atoms: C_16  and  O_18
REMARK   12  A    between atoms: C_22  and  C_24
REMARK   13  A    between atoms: C_24  and  C_25
REMARK   14  A    between atoms: C_25  and  C_26
REMARK   15  A    between atoms: C_26  and  C_27
REMARK   16  A    between atoms: C_27  and  C_28
REMARK   17  A    between atoms: C_29  and  C_30
REMARK   18  A    between atoms: C_30  and  O_31
REMARK                            x       y       z     vdW  Elec       q    Type
REMARK                         _______ _______ _______ _____ _____    ______ ____
ROOT
ATOM      1  C   UNL     1       5.830  -3.457  22.662  0.00  0.00    +0.051 C 
ATOM      2  C   UNL     1       5.569  -3.776  24.154  0.00  0.00    +0.065 C 
ATOM      3  C   UNL     1       4.984  -5.175  24.071  0.00  0.00    +0.140 C 
ATOM      4  O   UNL     1       4.464  -5.772  25.006  0.00  0.00    -0.297 OA
ATOM      5  C   UNL     1       5.098  -5.778  22.706  0.00  0.00    +0.106 C 
ATOM      6  C   UNL     1       6.098  -4.848  22.045  0.00  0.00    +0.129 C 
ENDROOT
BRANCH   6   7
ATOM      7  O   UNL     1       5.934  -4.854  20.634  0.00  0.00    -0.391 OA
ATOM      8  H   UNL     1       6.361  -5.646  20.266  0.00  0.00    +0.210 HD
ENDBRANCH   6   7
BRANCH   1  10
ATOM      9  C   UNL     1       8.265  -2.692  22.489  0.00  0.00    -0.000 C 
ATOM     10  C   UNL     1       6.945  -2.438  22.542  0.00  0.00    -0.022 C 
BRANCH   9  11
ATOM     11  C   UNL     1       9.388  -1.685  22.565  0.00  0.00    +0.137 C 
BRANCH  11  12
ATOM     12  O   UNL     1       9.930  -1.459  21.263  0.00  0.00    -0.388 OA
ATOM     13  H   UNL     1      10.626  -2.124  21.133  0.00  0.00    +0.210 HD
ENDBRANCH  11  12
BRANCH  11  14
ATOM     14  C   UNL     1       8.920  -0.316  23.099  0.00  0.00    +0.038 C 
BRANCH  14  15
ATOM     15  C   UNL     1       9.513   0.941  22.423  0.00  0.00    -0.011 C 
ATOM     16  C   UNL     1       8.470   1.676  21.572  0.00  0.00    +0.007 C 
BRANCH  15  17
ATOM     17  C   UNL     1      10.081   1.938  23.462  0.00  0.00    +0.003 C 
BRANCH  17  18
ATOM     18  C   UNL     1       9.386   3.303  23.557  0.00  0.00    -0.000 C 
BRANCH  18  20
ATOM     19  C   UNL     1      11.751   4.138  23.298  0.00  0.00    +0.004 C 
ATOM     20  C   UNL     1      10.349   4.467  23.792  0.00  0.00    -0.003 C 
ENDBRANCH  18  20
ENDBRANCH  17  18
ENDBRANCH  15  17
ENDBRANCH  14  15
ENDBRANCH  11  14
ENDBRANCH   9  11
ENDBRANCH   1  10
BRANCH   2  21
ATOM     21  C   UNL     1       4.621  -2.779  24.833  0.00  0.00    +0.012 C 
BRANCH  21  22
ATOM     22  C   UNL     1       5.382  -1.786  25.721  0.00  0.00    +0.001 C 
BRANCH  22  23
ATOM     23  C   UNL     1       6.357  -2.434  26.702  0.00  0.00    +0.004 C 
BRANCH  23  24
ATOM     24  C   UNL     1       7.767  -1.845  26.629  0.00  0.00    +0.027 C 
BRANCH  24  25
ATOM     25  C   UNL     1       8.708  -2.812  25.971  0.00  0.00    -0.020 C 
ATOM     26  C   UNL     1       8.457  -4.131  25.884  0.00  0.00    +0.087 C 
BRANCH  26  27
ATOM     27  C   UNL     1       9.308  -5.137  25.217  0.00  0.00    +0.329 C 
ATOM     28  O   UNL     1       9.000  -5.627  24.143  0.00  0.00    -0.246 OA
BRANCH  27  29
ATOM     29  O   UNL     1      10.420  -5.485  25.891  0.00  0.00    -0.478 OA
ATOM     30  H   UNL     1      10.969  -6.148  25.439  0.00  0.00    +0.295 HD
ENDBRANCH  27  29
ENDBRANCH  26  27
ENDBRANCH  24  25
ENDBRANCH  23  24
ENDBRANCH  22  23
ENDBRANCH  21  22
ENDBRANCH   2  21
TORSDOF 16
ENDMDL
