MODEL 1
REMARK VINA RESULT:      -4.1      0.000      0.000
REMARK  Name = 
REMARK  8 active torsions:
REMARK  status: ('A' for Active; 'I' for Inactive)
REMARK    1  A    between atoms: C_1  and  C_2
REMARK    2  A    between atoms: C_2  and  C_3
REMARK    3  A    between atoms: C_2  and  C_4
REMARK    4  A    between atoms: C_4  and  C_5
REMARK    5  A    between atoms: C_5  and  C_6
REMARK    6  A    between atoms: C_5  and  N_7
REMARK    7  A    between atoms: C_5  and  C_8
REMARK    8  A    between atoms: C_8  and  O_9
REMARK                            x       y       z     vdW  Elec       q    Type
REMARK                         _______ _______ _______ _____ _____    ______ ____
ROOT
ATOM      1  C   UNL     1       8.515  -4.674  24.913  0.00  0.00    +0.112 C 
ATOM      2  C   UNL     1       9.146  -3.310  24.600  0.00  0.00    +0.039 C 
ENDROOT
BRANCH   1   3
ATOM      3  N   UNL     1       9.546  -5.720  24.631  0.00  0.00    -0.316 NA
ATOM      4  H   UNL     1       9.268  -6.576  25.122  0.00  0.00    +0.119 HD
ATOM      5  H   UNL     1       9.494  -5.976  23.640  0.00  0.00    +0.119 HD
ENDBRANCH   1   3
BRANCH   1   6
ATOM      6  C   UNL     1       8.166  -4.721  26.421  0.00  0.00    +0.325 C 
ATOM      7  O   UNL     1       7.814  -3.773  27.101  0.00  0.00    -0.249 OA
BRANCH   6   8
ATOM      8  O   UNL     1       8.286  -5.986  26.908  0.00  0.00    -0.479 OA
ATOM      9  H   UNL     1       9.138  -6.332  26.542  0.00  0.00    +0.295 HD
ENDBRANCH   6   8
ENDBRANCH   1   6
BRANCH   1  10
ATOM     10  C   UNL     1       7.230  -4.875  24.072  0.00  0.00    +0.036 C 
BRANCH  10  12
ATOM     11  C   UNL     1       7.130  -5.920  21.785  0.00  0.00    +0.007 C 
ATOM     12  C   UNL     1       7.301  -4.599  22.549  0.00  0.00    -0.015 C 
ATOM     13  C   UNL     1       6.254  -3.606  22.045  0.00  0.00    +0.007 C 
ENDBRANCH  10  12
ENDBRANCH   1  10
TORSDOF 5
ENDMDL
MODEL 2
REMARK VINA RESULT:      -4.0      2.640      3.763
REMARK  Name = 
REMARK  8 active torsions:
REMARK  status: ('A' for Active; 'I' for Inactive)
REMARK    1  A    between atoms: C_1  and  C_2
REMARK    2  A    between atoms: C_2  and  C_3
REMARK    3  A    between atoms: C_2  and  C_4
REMARK    4  A    between atoms: C_4  and  C_5
REMARK    5  A    between atoms: C_5  and  C_6
REMARK    6  A    between atoms: C_5  and  N_7
REMARK    7  A    between atoms: C_5  and  C_8
REMARK    8  A    between atoms: C_8  and  O_9
REMARK                            x       y       z     vdW  Elec       q    Type
REMARK                         _______ _______ _______ _____ _____    ______ ____
ROOT
ATOM      1  C   UNL     1       8.132  -4.733  26.100  0.00  0.00    +0.112 C 
ATOM      2  C   UNL     1       6.702  -4.511  25.588  0.00  0.00    +0.039 C 
ENDROOT
BRANCH   1   3
ATOM      3  N   UNL     1       8.061  -5.730  27.212  0.00  0.00    -0.316 NA
ATOM      4  H   UNL     1       8.902  -6.313  27.167  0.00  0.00    +0.119 HD
ATOM      5  H   UNL     1       8.149  -5.235  28.106  0.00  0.00    +0.119 HD
ENDBRANCH   1   3
BRANCH   1   6
ATOM      6  C   UNL     1       8.979  -5.337  24.952  0.00  0.00    +0.325 C 
ATOM      7  O   UNL     1       8.614  -5.481  23.798  0.00  0.00    -0.249 OA
BRANCH   6   8
ATOM      8  O   UNL     1      10.218  -5.682  25.393  0.00  0.00    -0.479 OA
ATOM      9  H   UNL     1      10.278  -5.335  26.318  0.00  0.00    +0.295 HD
ENDBRANCH   6   8
ENDBRANCH   1   6
BRANCH   1  10
ATOM     10  C   UNL     1       8.753  -3.389  26.556  0.00  0.00    +0.036 C 
BRANCH  10  12
ATOM     11  C   UNL     1       8.358  -0.915  26.790  0.00  0.00    +0.007 C 
ATOM     12  C   UNL     1       8.332  -2.097  25.810  0.00  0.00    -0.015 C 
ATOM     13  C   UNL     1       9.215  -1.755  24.610  0.00  0.00    +0.007 C 
ENDBRANCH  10  12
ENDBRANCH   1  10
TORSDOF 5
ENDMDL
MODEL 3
REMARK VINA RESULT:      -3.9      5.308      6.552
REMARK  Name = 
REMARK  8 active torsions:
REMARK  status: ('A' for Active; 'I' for Inactive)
REMARK    1  A    between atoms: C_1  and  C_2
REMARK    2  A    between atoms: C_2  and  C_3
REMARK    3  A    between atoms: C_2  and  C_4
REMARK    4  A    between atoms: C_4  and  C_5
REMARK    5  A    between atoms: C_5  and  C_6
REMARK    6  A    between atoms: C_5  and  N_7
REMARK    7  A    between atoms: C_5  and  C_8
REMARK    8  A    between atoms: C_8  and  O_9
REMARK                            x       y       z     vdW  Elec       q    Type
REMARK                         _______ _______ _______ _____ _____    ______ ____
ROOT
ATOM      1  C   UNL     1       9.342   1.104  23.494  0.00  0.00    +0.112 C 
ATOM      2  C   UNL     1      10.645   1.263  24.290  0.00  0.00    +0.039 C 
ENDROOT
BRANCH   1   3
ATOM      3  N   UNL     1       8.511   2.322  23.745  0.00  0.00    -0.316 NA
ATOM      4  H   UNL     1       8.877   2.786  24.582  0.00  0.00    +0.119 HD
ATOM      5  H   UNL     1       8.680   2.998  22.993  0.00  0.00    +0.119 HD
ENDBRANCH   1   3
BRANCH   1   6
ATOM      6  C   UNL     1       9.689   1.049  21.986  0.00  0.00    +0.325 C 
ATOM      7  O   UNL     1       9.495   0.101  21.244  0.00  0.00    -0.249 OA
BRANCH   6   8
ATOM      8  O   UNL     1      10.238   2.222  21.570  0.00  0.00    -0.479 OA
ATOM      9  H   UNL     1       9.533   2.906  21.698  0.00  0.00    +0.295 HD
ENDBRANCH   6   8
ENDBRANCH   1   6
BRANCH   1  10
ATOM     10  C   UNL     1       8.614  -0.198  23.911  0.00  0.00    +0.036 C 
BRANCH  10  12
ATOM     11  C   UNL     1       8.593  -1.824  25.831  0.00  0.00    +0.007 C 
ATOM     12  C   UNL     1       9.428  -1.283  24.661  0.00  0.00    -0.015 C 
ATOM     13  C   UNL     1       9.857  -2.459  23.784  0.00  0.00    +0.007 C 
ENDBRANCH  10  12
ENDBRANCH   1  10
TORSDOF 5
ENDMDL
MODEL 4
REMARK VINA RESULT:      -3.9      5.038      6.079
REMARK  Name = 
REMARK  8 active torsions:
REMARK  status: ('A' for Active; 'I' for Inactive)
REMARK    1  A    between atoms: C_1  and  C_2
REMARK    2  A    between atoms: C_2  and  C_3
REMARK    3  A    between atoms: C_2  and  C_4
REMARK    4  A    between atoms: C_4  and  C_5
REMARK    5  A    between atoms: C_5  and  C_6
REMARK    6  A    between atoms: C_5  and  N_7
REMARK    7  A    between atoms: C_5  and  C_8
REMARK    8  A    between atoms: C_8  and  O_9
REMARK                            x       y       z     vdW  Elec       q    Type
REMARK                         _______ _______ _______ _____ _____    ______ ____
ROOT
ATOM      1  C   UNL     1       9.507   1.139  22.697  0.00  0.00    +0.112 C 
ATOM      2  C   UNL     1       8.020   1.500  22.825  0.00  0.00    +0.039 C 
ENDROOT
BRANCH   1   3
ATOM      3  N   UNL     1      10.122   2.105  21.735  0.00  0.00    -0.316 NA
ATOM      4  H   UNL     1       9.770   3.040  21.959  0.00  0.00    +0.119 HD
ATOM      5  H   UNL     1      11.128   2.167  21.927  0.00  0.00    +0.119 HD
ENDBRANCH   1   3
BRANCH   1   6
ATOM      6  C   UNL     1      10.180   1.325  24.079  0.00  0.00    +0.325 C 
ATOM      7  O   UNL     1      11.307   0.967  24.376  0.00  0.00    -0.249 OA
BRANCH   6   8
ATOM      8  O   UNL     1       9.349   1.968  24.942  0.00  0.00    -0.479 OA
ATOM      9  H   UNL     1       8.442   1.623  24.746  0.00  0.00    +0.295 HD
ENDBRANCH   6   8
ENDBRANCH   1   6
BRANCH   1  10
ATOM     10  C   UNL     1       9.663  -0.330  22.233  0.00  0.00    +0.036 C 
BRANCH  10  12
ATOM     11  C   UNL     1       8.045  -2.257  22.214  0.00  0.00    +0.007 C 
ATOM     12  C   UNL     1       9.008  -1.443  23.089  0.00  0.00    -0.015 C 
ATOM     13  C   UNL     1      10.007  -2.403  23.736  0.00  0.00    +0.007 C 
ENDBRANCH  10  12
ENDBRANCH   1  10
TORSDOF 5
ENDMDL
MODEL 5
REMARK VINA RESULT:      -3.9      5.813      6.754
REMARK  Name = 
REMARK  8 active torsions:
REMARK  status: ('A' for Active; 'I' for Inactive)
REMARK    1  A    between atoms: C_1  and  C_2
REMARK    2  A    between atoms: C_2  and  C_3
REMARK    3  A    between atoms: C_2  and  C_4
REMARK    4  A    between atoms: C_4  and  C_5
REMARK    5  A    between atoms: C_5  and  C_6
REMARK    6  A    between atoms: C_5  and  N_7
REMARK    7  A    between atoms: C_5  and  C_8
REMARK    8  A    between atoms: C_8  and  O_9
REMARK                            x       y       z     vdW  Elec       q    Type
REMARK                         _______ _______ _______ _____ _____    ______ ____
ROOT
ATOM      1  C   UNL     1       9.718   1.522  23.928  0.00  0.00    +0.112 C 
ATOM      2  C   UNL     1      10.763   0.621  24.604  0.00  0.00    +0.039 C 
ENDROOT
BRANCH   1   3
ATOM      3  N   UNL     1       9.018   2.284  25.007  0.00  0.00    -0.316 NA
ATOM      4  H   UNL     1       8.014   2.269  24.803  0.00  0.00    +0.119 HD
ATOM      5  H   UNL     1       9.099   1.762  25.886  0.00  0.00    +0.119 HD
ENDBRANCH   1   3
BRANCH   1   6
ATOM      6  C   UNL     1      10.455   2.530  23.013  0.00  0.00    +0.325 C 
ATOM      7  O   UNL     1      11.168   3.444  23.389  0.00  0.00    -0.249 OA
BRANCH   6   8
ATOM      8  O   UNL     1      10.219   2.258  21.701  0.00  0.00    -0.479 OA
ATOM      9  H   UNL     1       9.517   2.897  21.419  0.00  0.00    +0.295 HD
ENDBRANCH   6   8
ENDBRANCH   1   6
BRANCH   1  10
ATOM     10  C   UNL     1       8.740   0.667  23.085  0.00  0.00    +0.036 C 
BRANCH  10  12
ATOM     11  C   UNL     1       7.518  -1.492  23.502  0.00  0.00    +0.007 C 
ATOM     12  C   UNL     1       8.877  -0.876  23.143  0.00  0.00    -0.015 C 
ATOM     13  C   UNL     1       9.371  -1.509  21.843  0.00  0.00    +0.007 C 
ENDBRANCH  10  12
ENDBRANCH   1  10
TORSDOF 5
ENDMDL
MODEL 6
REMARK VINA RESULT:      -3.9      4.511      5.540
REMARK  Name = 
REMARK  8 active torsions:
REMARK  status: ('A' for Active; 'I' for Inactive)
REMARK    1  A    between atoms: C_1  and  C_2
REMARK    2  A    between atoms: C_2  and  C_3
REMARK    3  A    between atoms: C_2  and  C_4
REMARK    4  A    between atoms: C_4  and  C_5
REMARK    5  A    between atoms: C_5  and  C_6
REMARK    6  A    between atoms: C_5  and  N_7
REMARK    7  A    between atoms: C_5  and  C_8
REMARK    8  A    between atoms: C_8  and  O_9
REMARK                            x       y       z     vdW  Elec       q    Type
REMARK                         _______ _______ _______ _____ _____    ______ ____
ROOT
ATOM      1  C   UNL     1       9.258  -1.388  22.719  0.00  0.00    +0.112 C 
ATOM      2  C   UNL     1      10.005  -2.278  23.722  0.00  0.00    +0.039 C 
ENDROOT
BRANCH   1   3
ATOM      3  N   UNL     1       9.924  -1.554  21.390  0.00  0.00    -0.316 NA
ATOM      4  H   UNL     1       9.268  -2.035  20.767  0.00  0.00    +0.119 HD
ATOM      5  H   UNL     1      10.040  -0.630  20.961  0.00  0.00    +0.119 HD
ENDBRANCH   1   3
BRANCH   1   6
ATOM      6  C   UNL     1       7.799  -1.892  22.604  0.00  0.00    +0.325 C 
ATOM      7  O   UNL     1       6.798  -1.230  22.818  0.00  0.00    -0.249 OA
BRANCH   6   8
ATOM      8  O   UNL     1       7.764  -3.193  22.210  0.00  0.00    -0.479 OA
ATOM      9  H   UNL     1       6.827  -3.487  22.342  0.00  0.00    +0.295 HD
ENDBRANCH   6   8
ENDBRANCH   1   6
BRANCH   1  10
ATOM     10  C   UNL     1       9.267   0.084  23.199  0.00  0.00    +0.036 C 
BRANCH  10  12
ATOM     11  C   UNL     1       8.308   1.719  21.544  0.00  0.00    +0.007 C 
ATOM     12  C   UNL     1       9.607   1.190  22.167  0.00  0.00    -0.015 C 
ATOM     13  C   UNL     1      10.384   2.370  22.750  0.00  0.00    +0.007 C 
ENDBRANCH  10  12
ENDBRANCH   1  10
TORSDOF 5
ENDMDL
MODEL 7
REMARK VINA RESULT:      -3.9      4.892      6.141
REMARK  Name = 
REMARK  8 active torsions:
REMARK  status: ('A' for Active; 'I' for Inactive)
REMARK    1  A    between atoms: C_1  and  C_2
REMARK    2  A    between atoms: C_2  and  C_3
REMARK    3  A    between atoms: C_2  and  C_4
REMARK    4  A    between atoms: C_4  and  C_5
REMARK    5  A    between atoms: C_5  and  C_6
REMARK    6  A    between atoms: C_5  and  N_7
REMARK    7  A    between atoms: C_5  and  C_8
REMARK    8  A    between atoms: C_8  and  O_9
REMARK                            x       y       z     vdW  Elec       q    Type
REMARK                         _______ _______ _______ _____ _____    ______ ____
ROOT
ATOM      1  C   UNL     1       9.443   0.112  22.682  0.00  0.00    +0.112 C 
ATOM      2  C   UNL     1       7.915   0.261  22.648  0.00  0.00    +0.039 C 
ENDROOT
BRANCH   1   3
ATOM      3  N   UNL     1       9.852  -0.598  21.431  0.00  0.00    -0.316 NA
ATOM      4  H   UNL     1       9.326  -0.191  20.651  0.00  0.00    +0.119 HD
ATOM      5  H   UNL     1      10.827  -0.361  21.221  0.00  0.00    +0.119 HD
ENDBRANCH   1   3
BRANCH   1   6
ATOM      6  C   UNL     1      10.076   1.525  22.675  0.00  0.00    +0.325 C 
ATOM      7  O   UNL     1      10.625   2.064  23.621  0.00  0.00    -0.249 OA
BRANCH   6   8
ATOM      8  O   UNL     1       9.959   2.104  21.450  0.00  0.00    -0.479 OA
ATOM      9  H   UNL     1      10.802   2.603  21.310  0.00  0.00    +0.295 HD
ENDBRANCH   6   8
ENDBRANCH   1   6
BRANCH   1  10
ATOM     10  C   UNL     1       9.878  -0.651  23.958  0.00  0.00    +0.036 C 
BRANCH  10  12
ATOM     11  C   UNL     1       9.510  -3.121  24.260  0.00  0.00    +0.007 C 
ATOM     12  C   UNL     1       8.923  -1.729  24.529  0.00  0.00    -0.015 C 
ATOM     13  C   UNL     1       8.655  -1.595  26.028  0.00  0.00    +0.007 C 
ENDBRANCH  10  12
ENDBRANCH   1  10
TORSDOF 5
ENDMDL
MODEL 8
REMARK VINA RESULT:      -3.8      4.325      5.618
REMARK  Name = 
REMARK  8 active torsions:
REMARK  status: ('A' for Active; 'I' for Inactive)
REMARK    1  A    between atoms: C_1  and  C_2
REMARK    2  A    between atoms: C_2  and  C_3
REMARK    3  A    between atoms: C_2  and  C_4
REMARK    4  A    between atoms: C_4  and  C_5
REMARK    5  A    between atoms: C_5  and  C_6
REMARK    6  A    between atoms: C_5  and  N_7
REMARK    7  A    between atoms: C_5  and  C_8
REMARK    8  A    between atoms: C_8  and  O_9
REMARK                            x       y       z     vdW  Elec       q    Type
REMARK                         _______ _______ _______ _____ _____    ______ ____
ROOT
ATOM      1  C   UNL     1       9.191  -1.110  24.286  0.00  0.00    +0.112 C 
ATOM      2  C   UNL     1       7.846  -0.977  23.558  0.00  0.00    +0.039 C 
ENDROOT
BRANCH   1   3
ATOM      3  N   UNL     1       8.897  -1.454  25.712  0.00  0.00    -0.316 NA
ATOM      4  H   UNL     1       7.906  -1.702  25.778  0.00  0.00    +0.119 HD
ATOM      5  H   UNL     1       9.386  -2.324  25.949  0.00  0.00    +0.119 HD
ENDBRANCH   1   3
BRANCH   1   6
ATOM      6  C   UNL     1       9.982  -2.280  23.651  0.00  0.00    +0.325 C 
ATOM      7  O   UNL     1      10.073  -3.408  24.106  0.00  0.00    -0.249 OA
BRANCH   6   8
ATOM      8  O   UNL     1      10.566  -1.896  22.485  0.00  0.00    -0.479 OA
ATOM      9  H   UNL     1      11.541  -1.967  22.640  0.00  0.00    +0.295 HD
ENDBRANCH   6   8
ENDBRANCH   1   6
BRANCH   1  10
ATOM     10  C   UNL     1      10.003   0.202  24.155  0.00  0.00    +0.036 C 
BRANCH  10  12
ATOM     11  C   UNL     1       9.397   2.641  24.271  0.00  0.00    +0.007 C 
ATOM     12  C   UNL     1       9.363   1.386  23.387  0.00  0.00    -0.015 C 
ATOM     13  C   UNL     1      10.044   1.708  22.057  0.00  0.00    +0.007 C 
ENDBRANCH  10  12
ENDBRANCH   1  10
TORSDOF 5
ENDMDL
MODEL 9
REMARK VINA RESULT:      -3.8      6.055      7.272
REMARK  Name = 
REMARK  8 active torsions:
REMARK  status: ('A' for Active; 'I' for Inactive)
REMARK    1  A    between atoms: C_1  and  C_2
REMARK    2  A    between atoms: C_2  and  C_3
REMARK    3  A    between atoms: C_2  and  C_4
REMARK    4  A    between atoms: C_4  and  C_5
REMARK    5  A    between atoms: C_5  and  C_6
REMARK    6  A    between atoms: C_5  and  N_7
REMARK    7  A    between atoms: C_5  and  C_8
REMARK    8  A    between atoms: C_8  and  O_9
REMARK                            x       y       z     vdW  Elec       q    Type
REMARK                         _______ _______ _______ _____ _____    ______ ____
ROOT
ATOM      1  C   UNL     1       8.059   1.623  22.734  0.00  0.00    +0.112 C 
ATOM      2  C   UNL     1       7.611   3.055  22.412  0.00  0.00    +0.039 C 
ENDROOT
BRANCH   1   3
ATOM      3  N   UNL     1       6.866   0.734  22.578  0.00  0.00    -0.316 NA
ATOM      4  H   UNL     1       6.624   0.704  21.583  0.00  0.00    +0.119 HD
ATOM      5  H   UNL     1       7.140  -0.229  22.795  0.00  0.00    +0.119 HD
ENDBRANCH   1   3
BRANCH   1   6
ATOM      6  C   UNL     1       9.128   1.196  21.699  0.00  0.00    +0.325 C 
ATOM      7  O   UNL     1       9.163   0.129  21.110  0.00  0.00    -0.249 OA
BRANCH   6   8
ATOM      8  O   UNL     1      10.041   2.186  21.507  0.00  0.00    -0.479 OA
ATOM      9  H   UNL     1      10.902   1.819  21.829  0.00  0.00    +0.295 HD
ENDBRANCH   6   8
ENDBRANCH   1   6
BRANCH   1  10
ATOM     10  C   UNL     1       8.656   1.556  24.162  0.00  0.00    +0.036 C 
BRANCH  10  12
ATOM     11  C   UNL     1      10.904   0.602  24.766  0.00  0.00    +0.007 C 
ATOM     12  C   UNL     1       9.416   0.272  24.579  0.00  0.00    -0.015 C 
ATOM     13  C   UNL     1       8.895  -0.372  25.863  0.00  0.00    +0.007 C 
ENDBRANCH  10  12
ENDBRANCH   1  10
TORSDOF 5
ENDMDL
