MODEL 1
REMARK VINA RESULT:      -7.1      0.000      0.000
REMARK  Name = 
REMARK  7 active torsions:
REMARK  status: ('A' for Active; 'I' for Inactive)
REMARK    1  A    between atoms: C_2  and  N_3
REMARK    2  A    between atoms: C_2  and  C_4
REMARK    3  A    between atoms: C_2  and  C_11
REMARK    4  A    between atoms: C_4  and  C_5
REMARK    5  A    between atoms: C_17  and  C_19
REMARK    6  A    between atoms: N_21  and  C_22
REMARK    7  A    between atoms: C_22  and  C_23
REMARK                            x       y       z     vdW  Elec       q    Type
REMARK                         _______ _______ _______ _____ _____    ______ ____
ROOT
ATOM      1  C   UNL     1       9.284  -1.263  23.633  0.00  0.00    +0.233 C 
ATOM      2  N   UNL     1       8.377  -0.841  24.589  0.00  0.00    -0.289 N 
ATOM      3  C   UNL     1       8.568  -1.175  25.999  0.00  0.00    +0.162 C 
ATOM      4  C   UNL     1       7.999   0.040  26.756  0.00  0.00    +0.033 C 
ATOM      5  C   UNL     1       7.456   0.981  25.679  0.00  0.00    +0.021 C 
ATOM      6  C   UNL     1       7.285   0.102  24.458  0.00  0.00    +0.108 C 
ATOM      7  O   UNL     1      10.139  -2.107  23.919  0.00  0.00    -0.274 OA
ENDROOT
BRANCH   3   8
ATOM      8  C   UNL     1       7.800  -2.461  26.368  0.00  0.00    +0.234 C 
ATOM      9  N   UNL     1       8.463  -3.631  26.058  0.00  0.00    -0.310 N 
ATOM     10  H   UNL     1       9.280  -3.574  25.462  0.00  0.00    +0.149 HD
ATOM     11  O   UNL     1       6.672  -2.448  26.856  0.00  0.00    -0.274 OA
BRANCH   9  12
ATOM     12  C   UNL     1       7.930  -4.925  26.408  0.00  0.00    +0.139 C 
BRANCH  12  13
ATOM     13  C   UNL     1       6.920  -5.400  25.388  0.00  0.00    -0.029 A 
ATOM     14  C   UNL     1       5.685  -5.930  25.791  0.00  0.00    +0.005 A 
ATOM     15  C   UNL     1       4.746  -6.351  24.848  0.00  0.00    +0.002 A 
ATOM     16  C   UNL     1       5.028  -6.239  23.486  0.00  0.00    +0.020 A 
ATOM     17  C   UNL     1       6.248  -5.705  23.075  0.00  0.00    +0.041 A 
ATOM     18 CL   UNL     1       6.591  -5.561  21.395  0.00  0.00    -0.084 Cl
ATOM     19  C   UNL     1       7.189  -5.284  24.016  0.00  0.00    +0.025 A 
ENDBRANCH  12  13
ENDBRANCH   9  12
ENDBRANCH   3   8
BRANCH   1  20
ATOM     20  C   UNL     1       9.227  -0.580  22.236  0.00  0.00    +0.142 C 
BRANCH  20  21
ATOM     21  N   UNL     1       9.599  -1.554  21.182  0.00  0.00    -0.320 NA
ATOM     22  H   UNL     1       9.957  -2.405  21.606  0.00  0.00    +0.119 HD
ATOM     23  H   UNL     1       8.748  -1.830  20.690  0.00  0.00    +0.119 HD
ENDBRANCH  20  21
BRANCH  20  24
ATOM     24  C   UNL     1      10.143   0.669  22.203  0.00  0.00    +0.063 C 
BRANCH  24  25
ATOM     25  C   UNL     1       9.391   1.959  22.475  0.00  0.00    -0.045 A 
ATOM     26  C   UNL     1       8.207   2.245  21.780  0.00  0.00    +0.004 A 
ATOM     27  C   UNL     1       7.447   3.371  22.099  0.00  0.00    +0.000 A 
ATOM     28  C   UNL     1       7.876   4.238  23.100  0.00  0.00    +0.000 A 
ATOM     29  C   UNL     1       9.074   3.989  23.768  0.00  0.00    +0.000 A 
ATOM     30  C   UNL     1       9.830   2.855  23.460  0.00  0.00    +0.004 A 
ENDBRANCH  24  25
ENDBRANCH  20  24
ENDBRANCH   1  20
TORSDOF 7
ENDMDL
MODEL 2
REMARK VINA RESULT:      -7.1      2.614      7.615
REMARK  Name = 
REMARK  7 active torsions:
REMARK  status: ('A' for Active; 'I' for Inactive)
REMARK    1  A    between atoms: C_2  and  N_3
REMARK    2  A    between atoms: C_2  and  C_4
REMARK    3  A    between atoms: C_2  and  C_11
REMARK    4  A    between atoms: C_4  and  C_5
REMARK    5  A    between atoms: C_17  and  C_19
REMARK    6  A    between atoms: N_21  and  C_22
REMARK    7  A    between atoms: C_22  and  C_23
REMARK                            x       y       z     vdW  Elec       q    Type
REMARK                         _______ _______ _______ _____ _____    ______ ____
ROOT
ATOM      1  C   UNL     1       7.592  -4.874  25.137  0.00  0.00    +0.233 C 
ATOM      2  N   UNL     1       7.210  -3.741  24.442  0.00  0.00    -0.289 N 
ATOM      3  C   UNL     1       7.623  -3.541  23.054  0.00  0.00    +0.162 C 
ATOM      4  C   UNL     1       6.443  -2.786  22.414  0.00  0.00    +0.033 C 
ATOM      5  C   UNL     1       5.437  -2.555  23.543  0.00  0.00    +0.021 C 
ATOM      6  C   UNL     1       6.245  -2.725  24.812  0.00  0.00    +0.108 C 
ATOM      7  O   UNL     1       8.463  -5.619  24.677  0.00  0.00    -0.274 OA
ENDROOT
BRANCH   3   8
ATOM      8  C   UNL     1       8.916  -2.702  22.982  0.00  0.00    +0.234 C 
ATOM      9  N   UNL     1       8.921  -1.744  21.989  0.00  0.00    -0.310 N 
ATOM     10  H   UNL     1       8.194  -1.784  21.282  0.00  0.00    +0.149 HD
ATOM     11  O   UNL     1       9.880  -2.897  23.719  0.00  0.00    -0.274 OA
BRANCH   9  12
ATOM     12  C   UNL     1      10.013  -0.815  21.830  0.00  0.00    +0.139 C 
BRANCH  12  13
ATOM     13  C   UNL     1       9.691   0.524  22.454  0.00  0.00    -0.029 A 
ATOM     14  C   UNL     1      10.449   1.019  23.526  0.00  0.00    +0.005 A 
ATOM     15  C   UNL     1      10.163   2.263  24.090  0.00  0.00    +0.002 A 
ATOM     16  C   UNL     1       9.116   3.035  23.582  0.00  0.00    +0.020 A 
ATOM     17  C   UNL     1       8.363   2.557  22.512  0.00  0.00    +0.041 A 
ATOM     18 CL   UNL     1       7.077   3.512  21.882  0.00  0.00    -0.084 Cl
ATOM     19  C   UNL     1       8.647   1.313  21.947  0.00  0.00    +0.025 A 
ENDBRANCH  12  13
ENDBRANCH   9  12
ENDBRANCH   3   8
BRANCH   1  20
ATOM     20  C   UNL     1       6.834  -5.200  26.456  0.00  0.00    +0.142 C 
BRANCH  20  21
ATOM     21  N   UNL     1       7.796  -5.621  27.502  0.00  0.00    -0.320 NA
ATOM     22  H   UNL     1       7.341  -5.630  28.410  0.00  0.00    +0.119 HD
ATOM     23  H   UNL     1       8.061  -6.590  27.319  0.00  0.00    +0.119 HD
ENDBRANCH  20  21
BRANCH  20  24
ATOM     24  C   UNL     1       5.753  -6.283  26.210  0.00  0.00    +0.063 C 
BRANCH  24  25
ATOM     25  C   UNL     1       4.656  -5.819  25.270  0.00  0.00    -0.045 A 
ATOM     26  C   UNL     1       4.630  -6.267  23.941  0.00  0.00    +0.004 A 
ATOM     27  C   UNL     1       3.567  -5.939  23.099  0.00  0.00    +0.000 A 
ATOM     28  C   UNL     1       2.531  -5.137  23.568  0.00  0.00    +0.000 A 
ATOM     29  C   UNL     1       2.567  -4.647  24.873  0.00  0.00    +0.000 A 
ATOM     30  C   UNL     1       3.623  -4.987  25.723  0.00  0.00    +0.004 A 
ENDBRANCH  24  25
ENDBRANCH  20  24
ENDBRANCH   1  20
TORSDOF 7
ENDMDL
MODEL 3
REMARK VINA RESULT:      -6.9      2.675      7.715
REMARK  Name = 
REMARK  7 active torsions:
REMARK  status: ('A' for Active; 'I' for Inactive)
REMARK    1  A    between atoms: C_2  and  N_3
REMARK    2  A    between atoms: C_2  and  C_4
REMARK    3  A    between atoms: C_2  and  C_11
REMARK    4  A    between atoms: C_4  and  C_5
REMARK    5  A    between atoms: C_17  and  C_19
REMARK    6  A    between atoms: N_21  and  C_22
REMARK    7  A    between atoms: C_22  and  C_23
REMARK                            x       y       z     vdW  Elec       q    Type
REMARK                         _______ _______ _______ _____ _____    ______ ____
ROOT
ATOM      1  C   UNL     1       6.498  -4.159  22.595  0.00  0.00    +0.233 C 
ATOM      2  N   UNL     1       7.524  -4.127  23.522  0.00  0.00    -0.289 N 
ATOM      3  C   UNL     1       7.844  -2.894  24.240  0.00  0.00    +0.162 C 
ATOM      4  C   UNL     1       8.314  -3.374  25.625  0.00  0.00    +0.033 C 
ATOM      5  C   UNL     1       8.278  -4.903  25.568  0.00  0.00    +0.021 C 
ATOM      6  C   UNL     1       8.277  -5.227  24.089  0.00  0.00    +0.108 C 
ATOM      7  O   UNL     1       5.988  -3.107  22.197  0.00  0.00    -0.274 OA
ENDROOT
BRANCH   3   8
ATOM      8  C   UNL     1       8.965  -2.115  23.519  0.00  0.00    +0.234 C 
ATOM      9  N   UNL     1       8.535  -1.350  22.455  0.00  0.00    -0.310 N 
ATOM     10  H   UNL     1       7.593  -1.496  22.110  0.00  0.00    +0.149 HD
ATOM     11  O   UNL     1      10.149  -2.202  23.838  0.00  0.00    -0.274 OA
BRANCH   9  12
ATOM     12  C   UNL     1       9.433  -0.492  21.720  0.00  0.00    +0.139 C 
BRANCH  12  13
ATOM     13  C   UNL     1       9.440   0.910  22.285  0.00  0.00    -0.029 A 
ATOM     14  C   UNL     1      10.504   1.358  23.084  0.00  0.00    +0.005 A 
ATOM     15  C   UNL     1      10.518   2.659  23.591  0.00  0.00    +0.002 A 
ATOM     16  C   UNL     1       9.470   3.533  23.298  0.00  0.00    +0.020 A 
ATOM     17  C   UNL     1       8.414   3.101  22.498  0.00  0.00    +0.041 A 
ATOM     18 CL   UNL     1       7.126   4.182  22.131  0.00  0.00    -0.084 Cl
ATOM     19  C   UNL     1       8.397   1.801  21.991  0.00  0.00    +0.025 A 
ENDBRANCH  12  13
ENDBRANCH   9  12
ENDBRANCH   3   8
BRANCH   1  20
ATOM     20  C   UNL     1       5.976  -5.555  22.146  0.00  0.00    +0.142 C 
BRANCH  20  21
ATOM     21  N   UNL     1       6.027  -5.663  20.669  0.00  0.00    -0.320 NA
ATOM     22  H   UNL     1       5.303  -5.084  20.253  0.00  0.00    +0.119 HD
ATOM     23  H   UNL     1       6.911  -5.265  20.350  0.00  0.00    +0.119 HD
ENDBRANCH  20  21
BRANCH  20  24
ATOM     24  C   UNL     1       4.544  -5.799  22.685  0.00  0.00    +0.063 C 
BRANCH  24  25
ATOM     25  C   UNL     1       4.455  -5.687  24.196  0.00  0.00    -0.045 A 
ATOM     26  C   UNL     1       3.814  -4.587  24.784  0.00  0.00    +0.004 A 
ATOM     27  C   UNL     1       3.625  -4.526  26.165  0.00  0.00    +0.000 A 
ATOM     28  C   UNL     1       4.099  -5.553  26.977  0.00  0.00    +0.000 A 
ATOM     29  C   UNL     1       4.777  -6.631  26.409  0.00  0.00    +0.000 A 
ATOM     30  C   UNL     1       4.954  -6.701  25.025  0.00  0.00    +0.004 A 
ENDBRANCH  24  25
ENDBRANCH  20  24
ENDBRANCH   1  20
TORSDOF 7
ENDMDL
MODEL 4
REMARK VINA RESULT:      -6.9      2.110      3.921
REMARK  Name = 
REMARK  7 active torsions:
REMARK  status: ('A' for Active; 'I' for Inactive)
REMARK    1  A    between atoms: C_2  and  N_3
REMARK    2  A    between atoms: C_2  and  C_4
REMARK    3  A    between atoms: C_2  and  C_11
REMARK    4  A    between atoms: C_4  and  C_5
REMARK    5  A    between atoms: C_17  and  C_19
REMARK    6  A    between atoms: N_21  and  C_22
REMARK    7  A    between atoms: C_22  and  C_23
REMARK                            x       y       z     vdW  Elec       q    Type
REMARK                         _______ _______ _______ _____ _____    ______ ____
ROOT
ATOM      1  C   UNL     1       7.609   0.778  24.597  0.00  0.00    +0.233 C 
ATOM      2  N   UNL     1       8.597   0.683  23.634  0.00  0.00    -0.289 N 
ATOM      3  C   UNL     1       8.326   0.049  22.345  0.00  0.00    +0.162 C 
ATOM      4  C   UNL     1       9.202   0.830  21.348  0.00  0.00    +0.033 C 
ATOM      5  C   UNL     1       9.976   1.849  22.186  0.00  0.00    +0.021 C 
ATOM      6  C   UNL     1       9.903   1.311  23.600  0.00  0.00    +0.108 C 
ATOM      7  O   UNL     1       6.560   0.140  24.474  0.00  0.00    -0.274 OA
ENDROOT
BRANCH   3   8
ATOM      8  C   UNL     1       8.722  -1.442  22.373  0.00  0.00    +0.234 C 
ATOM      9  N   UNL     1       7.716  -2.293  22.784  0.00  0.00    -0.310 N 
ATOM     10  H   UNL     1       6.889  -1.886  23.207  0.00  0.00    +0.149 HD
ATOM     11  O   UNL     1       9.852  -1.838  22.095  0.00  0.00    -0.274 OA
BRANCH   9  12
ATOM     12  C   UNL     1       7.883  -3.726  22.790  0.00  0.00    +0.139 C 
BRANCH  12  13
ATOM     13  C   UNL     1       7.885  -4.274  24.199  0.00  0.00    -0.029 A 
ATOM     14  C   UNL     1       8.978  -4.059  25.053  0.00  0.00    +0.005 A 
ATOM     15  C   UNL     1       8.972  -4.550  26.359  0.00  0.00    +0.002 A 
ATOM     16  C   UNL     1       7.865  -5.257  26.833  0.00  0.00    +0.020 A 
ATOM     17  C   UNL     1       6.771  -5.467  25.996  0.00  0.00    +0.041 A 
ATOM     18 CL   UNL     1       5.404  -6.333  26.584  0.00  0.00    -0.084 Cl
ATOM     19  C   UNL     1       6.775  -4.978  24.689  0.00  0.00    +0.025 A 
ENDBRANCH  12  13
ENDBRANCH   9  12
ENDBRANCH   3   8
BRANCH   1  20
ATOM     20  C   UNL     1       7.845   1.767  25.775  0.00  0.00    +0.142 C 
BRANCH  20  21
ATOM     21  N   UNL     1       7.569   1.092  27.065  0.00  0.00    -0.320 NA
ATOM     22  H   UNL     1       7.272   1.774  27.758  0.00  0.00    +0.119 HD
ATOM     23  H   UNL     1       6.771   0.469  26.935  0.00  0.00    +0.119 HD
ENDBRANCH  20  21
BRANCH  20  24
ATOM     24  C   UNL     1       6.974   3.038  25.602  0.00  0.00    +0.063 C 
BRANCH  24  25
ATOM     25  C   UNL     1       7.587   4.048  24.649  0.00  0.00    -0.045 A 
ATOM     26  C   UNL     1       7.022   4.255  23.383  0.00  0.00    +0.004 A 
ATOM     27  C   UNL     1       7.505   5.258  22.542  0.00  0.00    +0.000 A 
ATOM     28  C   UNL     1       8.577   6.048  22.947  0.00  0.00    +0.000 A 
ATOM     29  C   UNL     1       9.177   5.823  24.185  0.00  0.00    +0.000 A 
ATOM     30  C   UNL     1       8.685   4.828  25.035  0.00  0.00    +0.004 A 
ENDBRANCH  24  25
ENDBRANCH  20  24
ENDBRANCH   1  20
TORSDOF 7
ENDMDL
MODEL 5
REMARK VINA RESULT:      -6.9      2.058      2.862
REMARK  Name = 
REMARK  7 active torsions:
REMARK  status: ('A' for Active; 'I' for Inactive)
REMARK    1  A    between atoms: C_2  and  N_3
REMARK    2  A    between atoms: C_2  and  C_4
REMARK    3  A    between atoms: C_2  and  C_11
REMARK    4  A    between atoms: C_4  and  C_5
REMARK    5  A    between atoms: C_17  and  C_19
REMARK    6  A    between atoms: N_21  and  C_22
REMARK    7  A    between atoms: C_22  and  C_23
REMARK                            x       y       z     vdW  Elec       q    Type
REMARK                         _______ _______ _______ _____ _____    ______ ____
ROOT
ATOM      1  C   UNL     1       9.363  -0.253  22.611  0.00  0.00    +0.233 C 
ATOM      2  N   UNL     1       8.696  -0.973  23.585  0.00  0.00    -0.289 N 
ATOM      3  C   UNL     1       8.962  -2.398  23.775  0.00  0.00    +0.162 C 
ATOM      4  C   UNL     1       8.786  -2.617  25.289  0.00  0.00    +0.033 C 
ATOM      5  C   UNL     1       8.361  -1.262  25.857  0.00  0.00    +0.021 C 
ATOM      6  C   UNL     1       7.850  -0.492  24.658  0.00  0.00    +0.108 C 
ATOM      7  O   UNL     1      10.021  -0.841  21.747  0.00  0.00    -0.274 OA
ENDROOT
BRANCH   3   8
ATOM      8  C   UNL     1       7.959  -3.255  22.976  0.00  0.00    +0.234 C 
ATOM      9  N   UNL     1       7.899  -4.578  23.364  0.00  0.00    -0.310 N 
ATOM     10  H   UNL     1       8.622  -4.927  23.984  0.00  0.00    +0.149 HD
ATOM     11  O   UNL     1       7.297  -2.809  22.040  0.00  0.00    -0.274 OA
BRANCH   9  12
ATOM     12  C   UNL     1       6.957  -5.503  22.783  0.00  0.00    +0.139 C 
BRANCH  12  13
ATOM     13  C   UNL     1       5.685  -5.577  23.597  0.00  0.00    -0.029 A 
ATOM     14  C   UNL     1       5.729  -5.598  25.000  0.00  0.00    +0.005 A 
ATOM     15  C   UNL     1       4.553  -5.649  25.751  0.00  0.00    +0.002 A 
ATOM     16  C   UNL     1       3.315  -5.670  25.107  0.00  0.00    +0.020 A 
ATOM     17  C   UNL     1       3.261  -5.639  23.714  0.00  0.00    +0.041 A 
ATOM     18 CL   UNL     1       1.733  -5.659  22.922  0.00  0.00    -0.084 Cl
ATOM     19  C   UNL     1       4.434  -5.590  22.961  0.00  0.00    +0.025 A 
ENDBRANCH  12  13
ENDBRANCH   9  12
ENDBRANCH   3   8
BRANCH   1  20
ATOM     20  C   UNL     1       9.311   1.299  22.700  0.00  0.00    +0.142 C 
BRANCH  20  21
ATOM     21  N   UNL     1       9.393   1.887  21.342  0.00  0.00    -0.320 NA
ATOM     22  H   UNL     1      10.215   2.479  21.269  0.00  0.00    +0.119 HD
ATOM     23  H   UNL     1       9.543   1.128  20.675  0.00  0.00    +0.119 HD
ENDBRANCH  20  21
BRANCH  20  24
ATOM     24  C   UNL     1      10.440   1.830  23.618  0.00  0.00    +0.063 C 
BRANCH  24  25
ATOM     25  C   UNL     1      10.492   3.346  23.673  0.00  0.00    -0.045 A 
ATOM     26  C   UNL     1       9.383   4.073  24.130  0.00  0.00    +0.004 A 
ATOM     27  C   UNL     1       9.455   5.457  24.293  0.00  0.00    +0.000 A 
ATOM     28  C   UNL     1      10.630   6.133  23.974  0.00  0.00    +0.000 A 
ATOM     29  C   UNL     1      11.725   5.428  23.477  0.00  0.00    +0.000 A 
ATOM     30  C   UNL     1      11.659   4.040  23.327  0.00  0.00    +0.004 A 
ENDBRANCH  24  25
ENDBRANCH  20  24
ENDBRANCH   1  20
TORSDOF 7
ENDMDL
MODEL 6
REMARK VINA RESULT:      -6.7      2.090      2.831
REMARK  Name = 
REMARK  7 active torsions:
REMARK  status: ('A' for Active; 'I' for Inactive)
REMARK    1  A    between atoms: C_2  and  N_3
REMARK    2  A    between atoms: C_2  and  C_4
REMARK    3  A    between atoms: C_2  and  C_11
REMARK    4  A    between atoms: C_4  and  C_5
REMARK    5  A    between atoms: C_17  and  C_19
REMARK    6  A    between atoms: N_21  and  C_22
REMARK    7  A    between atoms: C_22  and  C_23
REMARK                            x       y       z     vdW  Elec       q    Type
REMARK                         _______ _______ _______ _____ _____    ______ ____
ROOT
ATOM      1  C   UNL     1       9.923   0.693  23.617  0.00  0.00    +0.233 C 
ATOM      2  N   UNL     1       8.877  -0.019  24.175  0.00  0.00    -0.289 N 
ATOM      3  C   UNL     1       9.132  -1.114  25.109  0.00  0.00    +0.162 C 
ATOM      4  C   UNL     1       7.945  -1.061  26.088  0.00  0.00    +0.033 C 
ATOM      5  C   UNL     1       7.041   0.066  25.583  0.00  0.00    +0.021 C 
ATOM      6  C   UNL     1       7.457   0.267  24.141  0.00  0.00    +0.108 C 
ATOM      7  O   UNL     1      11.081   0.278  23.722  0.00  0.00    -0.274 OA
ENDROOT
BRANCH   3   8
ATOM      8  C   UNL     1       9.174  -2.468  24.369  0.00  0.00    +0.234 C 
ATOM      9  N   UNL     1       8.035  -3.233  24.513  0.00  0.00    -0.310 N 
ATOM     10  H   UNL     1       7.361  -2.959  25.219  0.00  0.00    +0.149 HD
ATOM     11  O   UNL     1      10.157  -2.853  23.739  0.00  0.00    -0.274 OA
BRANCH   9  12
ATOM     12  C   UNL     1       7.867  -4.489  23.823  0.00  0.00    +0.139 C 
BRANCH  12  13
ATOM     13  C   UNL     1       6.694  -5.267  24.373  0.00  0.00    -0.029 A 
ATOM     14  C   UNL     1       5.734  -5.825  23.514  0.00  0.00    +0.005 A 
ATOM     15  C   UNL     1       4.661  -6.558  24.023  0.00  0.00    +0.002 A 
ATOM     16  C   UNL     1       4.538  -6.751  25.400  0.00  0.00    +0.020 A 
ATOM     17  C   UNL     1       5.491  -6.210  26.260  0.00  0.00    +0.041 A 
ATOM     18 CL   UNL     1       5.342  -6.453  27.957  0.00  0.00    -0.084 Cl
ATOM     19  C   UNL     1       6.564  -5.475  25.755  0.00  0.00    +0.025 A 
ENDBRANCH  12  13
ENDBRANCH   9  12
ENDBRANCH   3   8
BRANCH   1  20
ATOM     20  C   UNL     1       9.588   2.051  22.937  0.00  0.00    +0.142 C 
BRANCH  20  21
ATOM     21  N   UNL     1       9.612   1.899  21.463  0.00  0.00    -0.320 NA
ATOM     22  H   UNL     1      10.009   2.730  21.034  0.00  0.00    +0.119 HD
ATOM     23  H   UNL     1      10.253   1.139  21.232  0.00  0.00    +0.119 HD
ENDBRANCH  20  21
BRANCH  20  24
ATOM     24  C   UNL     1      10.569   3.154  23.409  0.00  0.00    +0.063 C 
BRANCH  24  25
ATOM     25  C   UNL     1       9.863   4.347  24.026  0.00  0.00    -0.045 A 
ATOM     26  C   UNL     1       8.731   4.157  24.832  0.00  0.00    +0.004 A 
ATOM     27  C   UNL     1       8.140   5.233  25.497  0.00  0.00    +0.000 A 
ATOM     28  C   UNL     1       8.658   6.515  25.340  0.00  0.00    +0.000 A 
ATOM     29  C   UNL     1       9.755   6.725  24.506  0.00  0.00    +0.000 A 
ATOM     30  C   UNL     1      10.358   5.647  23.852  0.00  0.00    +0.004 A 
ENDBRANCH  24  25
ENDBRANCH  20  24
ENDBRANCH   1  20
TORSDOF 7
ENDMDL
MODEL 7
REMARK VINA RESULT:      -6.7      2.045      3.100
REMARK  Name = 
REMARK  7 active torsions:
REMARK  status: ('A' for Active; 'I' for Inactive)
REMARK    1  A    between atoms: C_2  and  N_3
REMARK    2  A    between atoms: C_2  and  C_4
REMARK    3  A    between atoms: C_2  and  C_11
REMARK    4  A    between atoms: C_4  and  C_5
REMARK    5  A    between atoms: C_17  and  C_19
REMARK    6  A    between atoms: N_21  and  C_22
REMARK    7  A    between atoms: C_22  and  C_23
REMARK                            x       y       z     vdW  Elec       q    Type
REMARK                         _______ _______ _______ _____ _____    ______ ____
ROOT
ATOM      1  C   UNL     1       7.362   0.459  23.266  0.00  0.00    +0.233 C 
ATOM      2  N   UNL     1       8.565   0.180  23.888  0.00  0.00    -0.289 N 
ATOM      3  C   UNL     1       9.493  -0.795  23.318  0.00  0.00    +0.162 C 
ATOM      4  C   UNL     1      10.886  -0.250  23.683  0.00  0.00    +0.033 C 
ATOM      5  C   UNL     1      10.633   1.010  24.513  0.00  0.00    +0.021 C 
ATOM      6  C   UNL     1       9.204   0.868  24.992  0.00  0.00    +0.108 C 
ATOM      7  O   UNL     1       6.955  -0.264  22.352  0.00  0.00    -0.274 OA
ENDROOT
BRANCH   3   8
ATOM      8  C   UNL     1       9.271  -2.192  23.936  0.00  0.00    +0.234 C 
ATOM      9  N   UNL     1       8.013  -2.387  24.469  0.00  0.00    -0.310 N 
ATOM     10  H   UNL     1       7.414  -1.578  24.590  0.00  0.00    +0.149 HD
ATOM     11  O   UNL     1      10.153  -3.046  23.991  0.00  0.00    -0.274 OA
BRANCH   9  12
ATOM     12  C   UNL     1       7.603  -3.659  25.012  0.00  0.00    +0.139 C 
BRANCH  12  13
ATOM     13  C   UNL     1       6.829  -4.468  23.996  0.00  0.00    -0.029 A 
ATOM     14  C   UNL     1       7.496  -5.217  23.014  0.00  0.00    +0.005 A 
ATOM     15  C   UNL     1       6.782  -5.978  22.087  0.00  0.00    +0.002 A 
ATOM     16  C   UNL     1       5.387  -6.006  22.136  0.00  0.00    +0.020 A 
ATOM     17  C   UNL     1       4.715  -5.273  23.113  0.00  0.00    +0.041 A 
ATOM     18 CL   UNL     1       2.996  -5.313  23.176  0.00  0.00    -0.084 Cl
ATOM     19  C   UNL     1       5.428  -4.511  24.040  0.00  0.00    +0.025 A 
ENDBRANCH  12  13
ENDBRANCH   9  12
ENDBRANCH   3   8
BRANCH   1  20
ATOM     20  C   UNL     1       6.602   1.742  23.710  0.00  0.00    +0.142 C 
BRANCH  20  21
ATOM     21  N   UNL     1       5.258   1.383  24.220  0.00  0.00    -0.320 NA
ATOM     22  H   UNL     1       4.770   0.807  23.540  0.00  0.00    +0.119 HD
ATOM     23  H   UNL     1       5.377   0.792  25.044  0.00  0.00    +0.119 HD
ENDBRANCH  20  21
BRANCH  20  24
ATOM     24  C   UNL     1       6.514   2.754  22.540  0.00  0.00    +0.063 C 
BRANCH  24  25
ATOM     25  C   UNL     1       7.384   3.979  22.752  0.00  0.00    -0.045 A 
ATOM     26  C   UNL     1       7.060   5.191  22.126  0.00  0.00    +0.004 A 
ATOM     27  C   UNL     1       7.784   6.352  22.400  0.00  0.00    +0.000 A 
ATOM     28  C   UNL     1       8.858   6.307  23.285  0.00  0.00    +0.000 A 
ATOM     29  C   UNL     1       9.219   5.100  23.880  0.00  0.00    +0.000 A 
ATOM     30  C   UNL     1       8.486   3.939  23.617  0.00  0.00    +0.004 A 
ENDBRANCH  24  25
ENDBRANCH  20  24
ENDBRANCH   1  20
TORSDOF 7
ENDMDL
MODEL 8
REMARK VINA RESULT:      -6.5      2.587      7.566
REMARK  Name = 
REMARK  7 active torsions:
REMARK  status: ('A' for Active; 'I' for Inactive)
REMARK    1  A    between atoms: C_2  and  N_3
REMARK    2  A    between atoms: C_2  and  C_4
REMARK    3  A    between atoms: C_2  and  C_11
REMARK    4  A    between atoms: C_4  and  C_5
REMARK    5  A    between atoms: C_17  and  C_19
REMARK    6  A    between atoms: N_21  and  C_22
REMARK    7  A    between atoms: C_22  and  C_23
REMARK                            x       y       z     vdW  Elec       q    Type
REMARK                         _______ _______ _______ _____ _____    ______ ____
ROOT
ATOM      1  C   UNL     1       7.415  -1.461  24.902  0.00  0.00    +0.233 C 
ATOM      2  N   UNL     1       8.251  -1.130  23.852  0.00  0.00    -0.289 N 
ATOM      3  C   UNL     1       9.704  -1.188  24.005  0.00  0.00    +0.162 C 
ATOM      4  C   UNL     1      10.215  -1.605  22.614  0.00  0.00    +0.033 C 
ATOM      5  C   UNL     1       8.973  -1.699  21.727  0.00  0.00    +0.021 C 
ATOM      6  C   UNL     1       7.921  -0.894  22.460  0.00  0.00    +0.108 C 
ATOM      7  O   UNL     1       7.873  -1.595  26.041  0.00  0.00    -0.274 OA
ENDROOT
BRANCH   3   8
ATOM      8  C   UNL     1      10.269   0.190  24.408  0.00  0.00    +0.234 C 
ATOM      9  N   UNL     1      10.349   1.099  23.374  0.00  0.00    -0.310 N 
ATOM     10  H   UNL     1      10.223   0.759  22.427  0.00  0.00    +0.149 HD
ATOM     11  O   UNL     1      10.658   0.445  25.546  0.00  0.00    -0.274 OA
BRANCH   9  12
ATOM     12  C   UNL     1      10.774   2.462  23.586  0.00  0.00    +0.139 C 
BRANCH  12  13
ATOM     13  C   UNL     1       9.625   3.430  23.415  0.00  0.00    -0.029 A 
ATOM     14  C   UNL     1       9.788   4.796  23.692  0.00  0.00    +0.005 A 
ATOM     15  C   UNL     1       8.733   5.692  23.516  0.00  0.00    +0.002 A 
ATOM     16  C   UNL     1       7.498   5.234  23.053  0.00  0.00    +0.020 A 
ATOM     17  C   UNL     1       7.329   3.880  22.766  0.00  0.00    +0.041 A 
ATOM     18 CL   UNL     1       5.809   3.317  22.188  0.00  0.00    -0.084 Cl
ATOM     19  C   UNL     1       8.383   2.982  22.941  0.00  0.00    +0.025 A 
ENDBRANCH  12  13
ENDBRANCH   9  12
ENDBRANCH   3   8
BRANCH   1  20
ATOM     20  C   UNL     1       5.918  -1.731  24.574  0.00  0.00    +0.142 C 
BRANCH  20  21
ATOM     21  N   UNL     1       5.052  -0.903  25.447  0.00  0.00    -0.320 NA
ATOM     22  H   UNL     1       4.597  -1.489  26.140  0.00  0.00    +0.119 HD
ATOM     23  H   UNL     1       5.649  -0.266  25.976  0.00  0.00    +0.119 HD
ENDBRANCH  20  21
BRANCH  20  24
ATOM     24  C   UNL     1       5.592  -3.239  24.715  0.00  0.00    +0.063 C 
BRANCH  24  25
ATOM     25  C   UNL     1       6.132  -4.070  23.566  0.00  0.00    -0.045 A 
ATOM     26  C   UNL     1       7.097  -5.060  23.805  0.00  0.00    +0.004 A 
ATOM     27  C   UNL     1       7.519  -5.906  22.779  0.00  0.00    +0.000 A 
ATOM     28  C   UNL     1       7.000  -5.754  21.496  0.00  0.00    +0.000 A 
ATOM     29  C   UNL     1       6.075  -4.746  21.235  0.00  0.00    +0.000 A 
ATOM     30  C   UNL     1       5.639  -3.906  22.264  0.00  0.00    +0.004 A 
ENDBRANCH  24  25
ENDBRANCH  20  24
ENDBRANCH   1  20
TORSDOF 7
ENDMDL
MODEL 9
REMARK VINA RESULT:      -6.4      2.172      3.533
REMARK  Name = 
REMARK  7 active torsions:
REMARK  status: ('A' for Active; 'I' for Inactive)
REMARK    1  A    between atoms: C_2  and  N_3
REMARK    2  A    between atoms: C_2  and  C_4
REMARK    3  A    between atoms: C_2  and  C_11
REMARK    4  A    between atoms: C_4  and  C_5
REMARK    5  A    between atoms: C_17  and  C_19
REMARK    6  A    between atoms: N_21  and  C_22
REMARK    7  A    between atoms: C_22  and  C_23
REMARK                            x       y       z     vdW  Elec       q    Type
REMARK                         _______ _______ _______ _____ _____    ______ ____
ROOT
ATOM      1  C   UNL     1       7.753   0.575  24.347  0.00  0.00    +0.233 C 
ATOM      2  N   UNL     1       8.601  -0.309  23.704  0.00  0.00    -0.289 N 
ATOM      3  C   UNL     1       8.067  -1.370  22.851  0.00  0.00    +0.162 C 
ATOM      4  C   UNL     1       9.123  -1.531  21.742  0.00  0.00    +0.033 C 
ATOM      5  C   UNL     1      10.245  -0.553  22.093  0.00  0.00    +0.021 C 
ATOM      6  C   UNL     1      10.042  -0.254  23.564  0.00  0.00    +0.108 C 
ATOM      7  O   UNL     1       6.540   0.349  24.393  0.00  0.00    -0.274 OA
ENDROOT
BRANCH   3   8
ATOM      8  C   UNL     1       7.901  -2.682  23.647  0.00  0.00    +0.234 C 
ATOM      9  N   UNL     1       7.647  -3.793  22.870  0.00  0.00    -0.310 N 
ATOM     10  H   UNL     1       7.402  -3.650  21.897  0.00  0.00    +0.149 HD
ATOM     11  O   UNL     1       7.949  -2.728  24.875  0.00  0.00    -0.274 OA
BRANCH   9  12
ATOM     12  C   UNL     1       7.547  -5.115  23.438  0.00  0.00    +0.139 C 
BRANCH  12  13
ATOM     13  C   UNL     1       6.114  -5.466  23.770  0.00  0.00    -0.029 A 
ATOM     14  C   UNL     1       5.141  -5.543  22.761  0.00  0.00    +0.005 A 
ATOM     15  C   UNL     1       3.822  -5.884  23.066  0.00  0.00    +0.002 A 
ATOM     16  C   UNL     1       3.461  -6.162  24.385  0.00  0.00    +0.020 A 
ATOM     17  C   UNL     1       4.422  -6.098  25.392  0.00  0.00    +0.041 A 
ATOM     18 CL   UNL     1       3.977  -6.447  27.018  0.00  0.00    -0.084 Cl
ATOM     19  C   UNL     1       5.741  -5.756  25.091  0.00  0.00    +0.025 A 
ENDBRANCH  12  13
ENDBRANCH   9  12
ENDBRANCH   3   8
BRANCH   1  20
ATOM     20  C   UNL     1       8.376   1.877  24.928  0.00  0.00    +0.142 C 
BRANCH  20  21
ATOM     21  N   UNL     1       7.825   2.143  26.278  0.00  0.00    -0.320 NA
ATOM     22  H   UNL     1       8.043   3.095  26.560  0.00  0.00    +0.119 HD
ATOM     23  H   UNL     1       6.807   2.102  26.220  0.00  0.00    +0.119 HD
ENDBRANCH  20  21
BRANCH  20  24
ATOM     24  C   UNL     1       8.135   3.071  23.970  0.00  0.00    +0.063 C 
BRANCH  24  25
ATOM     25  C   UNL     1       9.375   3.921  23.762  0.00  0.00    -0.045 A 
ATOM     26  C   UNL     1       9.318   5.309  23.956  0.00  0.00    +0.004 A 
ATOM     27  C   UNL     1      10.473   6.087  23.879  0.00  0.00    +0.000 A 
ATOM     28  C   UNL     1      11.695   5.490  23.581  0.00  0.00    +0.000 A 
ATOM     29  C   UNL     1      11.758   4.118  23.341  0.00  0.00    +0.000 A 
ATOM     30  C   UNL     1      10.604   3.334  23.433  0.00  0.00    +0.004 A 
ENDBRANCH  24  25
ENDBRANCH  20  24
ENDBRANCH   1  20
TORSDOF 7
ENDMDL
