MODEL 1
REMARK VINA RESULT:      -7.6      0.000      0.000
REMARK  Name = 
REMARK  6 active torsions:
REMARK  status: ('A' for Active; 'I' for Inactive)
REMARK    1  A    between atoms: O_1  and  C_2
REMARK    2  A    between atoms: C_2  and  C_21
REMARK    3  A    between atoms: N_3  and  C_4
REMARK    4  A    between atoms: N_7  and  C_8
REMARK    5  A    between atoms: C_8  and  C_9
REMARK    6  A    between atoms: C_9  and  C_10
REMARK                            x       y       z     vdW  Elec       q    Type
REMARK                         _______ _______ _______ _____ _____    ______ ____
ROOT
ATOM      1  C   UNL     1       8.548   1.265  22.239  0.00  0.00    +0.111 C 
ATOM      2  C   UNL     1       7.630   0.564  23.246  0.00  0.00    +0.042 C 
ATOM      3  C   UNL     1       8.410  -0.376  24.177  0.00  0.00    +0.086 C 
ATOM      4  N   UNL     1       9.300  -1.336  23.492  0.00  0.00    -0.302 NA
ATOM      5  C   UNL     1      10.161  -0.635  22.528  0.00  0.00    +0.086 C 
ATOM      6  C   UNL     1       9.378   0.203  21.513  0.00  0.00    +0.042 C 
ENDROOT
BRANCH   1   8
ATOM      7  C   UNL     1       9.274   3.422  23.047  0.00  0.00    +0.215 C 
ATOM      8  N   UNL     1       9.445   2.158  22.976  0.00  0.00    -0.247 NA
BRANCH   7   9
ATOM      9  C   UNL     1      10.270   4.356  23.600  0.00  0.00    +0.036 A 
ATOM     10  C   UNL     1      11.616   4.182  23.258  0.00  0.00    +0.013 A 
ATOM     11  C   UNL     1      12.557   5.146  23.619  0.00  0.00    +0.001 A 
ATOM     12  C   UNL     1      12.158   6.272  24.341  0.00  0.00    +0.000 A 
ATOM     13  C   UNL     1      10.824   6.424  24.723  0.00  0.00    +0.001 A 
ATOM     14  C   UNL     1       9.877   5.466  24.354  0.00  0.00    +0.013 A 
ENDBRANCH   7   9
BRANCH   7  15
ATOM     15  O   UNL     1       8.244   4.099  22.511  0.00  0.00    -0.492 OA
ATOM     16  H   UNL     1       7.571   3.501  22.158  0.00  0.00    +0.294 HD
ENDBRANCH   7  15
ENDBRANCH   1   8
BRANCH   4  17
ATOM     17  C   UNL     1       8.545  -2.453  22.905  0.00  0.00    +0.089 C 
BRANCH  17  18
ATOM     18  C   UNL     1       8.484  -3.701  23.807  0.00  0.00    +0.052 C 
BRANCH  18  19
ATOM     19  C   UNL     1       7.301  -4.544  23.469  0.00  0.00    -0.021 A 
ATOM     20  C   UNL     1       6.454  -5.235  24.389  0.00  0.00    +0.003 A 
ATOM     21  C   UNL     1       5.528  -5.951  23.631  0.00  0.00    +0.047 A 
ATOM     22  C   UNL     1       4.559  -6.780  24.213  0.00  0.00    +0.026 A 
ATOM     23  C   UNL     1       4.533  -6.873  25.607  0.00  0.00    +0.002 A 
ATOM     24  C   UNL     1       5.436  -6.159  26.390  0.00  0.00    +0.001 A 
ATOM     25  N   UNL     1       5.779  -5.677  22.311  0.00  0.00    -0.360 N 
ATOM     26  H   UNL     1       5.255  -6.061  21.536  0.00  0.00    +0.165 HD
ATOM     27  C   UNL     1       6.400  -5.337  25.795  0.00  0.00    +0.010 A 
ATOM     28  C   UNL     1       6.849  -4.837  22.197  0.00  0.00    +0.087 A 
ENDBRANCH  18  19
ENDBRANCH  17  18
ENDBRANCH   4  17
TORSDOF 6
ENDMDL
MODEL 2
REMARK VINA RESULT:      -7.6      1.246      2.138
REMARK  Name = 
REMARK  6 active torsions:
REMARK  status: ('A' for Active; 'I' for Inactive)
REMARK    1  A    between atoms: O_1  and  C_2
REMARK    2  A    between atoms: C_2  and  C_21
REMARK    3  A    between atoms: N_3  and  C_4
REMARK    4  A    between atoms: N_7  and  C_8
REMARK    5  A    between atoms: C_8  and  C_9
REMARK    6  A    between atoms: C_9  and  C_10
REMARK                            x       y       z     vdW  Elec       q    Type
REMARK                         _______ _______ _______ _____ _____    ______ ____
ROOT
ATOM      1  C   UNL     1       8.297   1.326  23.635  0.00  0.00    +0.111 C 
ATOM      2  C   UNL     1       8.271   0.284  24.758  0.00  0.00    +0.042 C 
ATOM      3  C   UNL     1       9.621  -0.434  24.907  0.00  0.00    +0.086 C 
ATOM      4  N   UNL     1      10.171  -0.995  23.657  0.00  0.00    -0.302 NA
ATOM      5  C   UNL     1      10.175   0.025  22.598  0.00  0.00    +0.086 C 
ATOM      6  C   UNL     1       8.799   0.652  22.356  0.00  0.00    +0.042 C 
ENDROOT
BRANCH   1   8
ATOM      7  C   UNL     1       9.184   3.569  23.521  0.00  0.00    +0.215 C 
ATOM      8  N   UNL     1       9.226   2.392  24.016  0.00  0.00    -0.247 NA
BRANCH   7   9
ATOM      9  C   UNL     1      10.229   4.587  23.730  0.00  0.00    +0.036 A 
ATOM     10  C   UNL     1       9.916   5.722  24.487  0.00  0.00    +0.013 A 
ATOM     11  C   UNL     1      10.924   6.615  24.852  0.00  0.00    +0.001 A 
ATOM     12  C   UNL     1      12.238   6.385  24.442  0.00  0.00    +0.000 A 
ATOM     13  C   UNL     1      12.543   5.278  23.648  0.00  0.00    +0.001 A 
ATOM     14  C   UNL     1      11.539   4.376  23.290  0.00  0.00    +0.013 A 
ENDBRANCH   7   9
BRANCH   7  15
ATOM     15  O   UNL     1       8.271   4.009  22.636  0.00  0.00    -0.492 OA
ATOM     16  H   UNL     1       8.268   3.472  21.833  0.00  0.00    +0.294 HD
ENDBRANCH   7  15
ENDBRANCH   1   8
BRANCH   4  17
ATOM     17  C   UNL     1       9.489  -2.240  23.275  0.00  0.00    +0.089 C 
BRANCH  17  18
ATOM     18  C   UNL     1       9.493  -3.313  24.379  0.00  0.00    +0.052 C 
BRANCH  18  19
ATOM     19  C   UNL     1       8.111  -3.811  24.643  0.00  0.00    -0.021 A 
ATOM     20  C   UNL     1       7.295  -4.576  23.754  0.00  0.00    +0.003 A 
ATOM     21  C   UNL     1       6.064  -4.753  24.383  0.00  0.00    +0.047 A 
ATOM     22  C   UNL     1       4.998  -5.431  23.774  0.00  0.00    +0.026 A 
ATOM     23  C   UNL     1       5.202  -5.949  22.493  0.00  0.00    +0.002 A 
ATOM     24  C   UNL     1       6.427  -5.800  21.846  0.00  0.00    +0.001 A 
ATOM     25  N   UNL     1       6.141  -4.153  25.613  0.00  0.00    -0.360 N 
ATOM     26  H   UNL     1       5.389  -4.128  26.288  0.00  0.00    +0.165 HD
ATOM     27  C   UNL     1       7.480  -5.117  22.464  0.00  0.00    +0.010 A 
ATOM     28  C   UNL     1       7.367  -3.575  25.781  0.00  0.00    +0.087 A 
ENDBRANCH  18  19
ENDBRANCH  17  18
ENDBRANCH   4  17
TORSDOF 6
ENDMDL
MODEL 3
REMARK VINA RESULT:      -7.5      2.524      9.481
REMARK  Name = 
REMARK  6 active torsions:
REMARK  status: ('A' for Active; 'I' for Inactive)
REMARK    1  A    between atoms: O_1  and  C_2
REMARK    2  A    between atoms: C_2  and  C_21
REMARK    3  A    between atoms: N_3  and  C_4
REMARK    4  A    between atoms: N_7  and  C_8
REMARK    5  A    between atoms: C_8  and  C_9
REMARK    6  A    between atoms: C_9  and  C_10
REMARK                            x       y       z     vdW  Elec       q    Type
REMARK                         _______ _______ _______ _____ _____    ______ ____
ROOT
ATOM      1  C   UNL     1       9.860  -1.850  23.857  0.00  0.00    +0.111 C 
ATOM      2  C   UNL     1       9.591  -0.639  24.756  0.00  0.00    +0.042 C 
ATOM      3  C   UNL     1       8.643   0.371  24.092  0.00  0.00    +0.086 C 
ATOM      4  N   UNL     1       9.027   0.782  22.727  0.00  0.00    -0.302 NA
ATOM      5  C   UNL     1       9.287  -0.400  21.892  0.00  0.00    +0.086 C 
ATOM      6  C   UNL     1      10.330  -1.347  22.490  0.00  0.00    +0.042 C 
ENDROOT
BRANCH   1   8
ATOM      7  C   UNL     1       8.486  -3.832  23.973  0.00  0.00    +0.215 C 
ATOM      8  N   UNL     1       8.608  -2.591  23.694  0.00  0.00    -0.247 NA
BRANCH   7   9
ATOM      9  C   UNL     1       7.306  -4.642  23.622  0.00  0.00    +0.036 A 
ATOM     10  C   UNL     1       7.216  -5.170  22.329  0.00  0.00    +0.013 A 
ATOM     11  C   UNL     1       6.206  -6.081  22.018  0.00  0.00    +0.001 A 
ATOM     12  C   UNL     1       5.275  -6.446  22.991  0.00  0.00    +0.000 A 
ATOM     13  C   UNL     1       5.336  -5.884  24.267  0.00  0.00    +0.001 A 
ATOM     14  C   UNL     1       6.351  -4.980  24.586  0.00  0.00    +0.013 A 
ENDBRANCH   7   9
BRANCH   7  15
ATOM     15  O   UNL     1       9.451  -4.611  24.493  0.00  0.00    -0.492 OA
ATOM     16  H   UNL     1       9.103  -5.468  24.775  0.00  0.00    +0.294 HD
ENDBRANCH   7  15
ENDBRANCH   1   8
BRANCH   4  17
ATOM     17  C   UNL     1      10.135   1.749  22.742  0.00  0.00    +0.089 C 
BRANCH  17  18
ATOM     18  C   UNL     1      10.177   2.623  24.009  0.00  0.00    +0.052 C 
BRANCH  18  19
ATOM     19  C   UNL     1       9.803   4.033  23.695  0.00  0.00    -0.021 A 
ATOM     20  C   UNL     1       8.503   4.515  23.347  0.00  0.00    +0.003 A 
ATOM     21  C   UNL     1       8.634   5.874  23.068  0.00  0.00    +0.047 A 
ATOM     22  C   UNL     1       7.554   6.665  22.652  0.00  0.00    +0.026 A 
ATOM     23  C   UNL     1       6.306   6.049  22.526  0.00  0.00    +0.002 A 
ATOM     24  C   UNL     1       6.142   4.696  22.811  0.00  0.00    +0.001 A 
ATOM     25  N   UNL     1       9.948   6.211  23.273  0.00  0.00    -0.360 N 
ATOM     26  H   UNL     1      10.329   7.138  23.146  0.00  0.00    +0.165 HD
ATOM     27  C   UNL     1       7.230   3.918  23.223  0.00  0.00    +0.010 A 
ATOM     28  C   UNL     1      10.665   5.110  23.643  0.00  0.00    +0.087 A 
ENDBRANCH  18  19
ENDBRANCH  17  18
ENDBRANCH   4  17
TORSDOF 6
ENDMDL
MODEL 4
REMARK VINA RESULT:      -7.4      2.016      2.865
REMARK  Name = 
REMARK  6 active torsions:
REMARK  status: ('A' for Active; 'I' for Inactive)
REMARK    1  A    between atoms: O_1  and  C_2
REMARK    2  A    between atoms: C_2  and  C_21
REMARK    3  A    between atoms: N_3  and  C_4
REMARK    4  A    between atoms: N_7  and  C_8
REMARK    5  A    between atoms: C_8  and  C_9
REMARK    6  A    between atoms: C_9  and  C_10
REMARK                            x       y       z     vdW  Elec       q    Type
REMARK                         _______ _______ _______ _____ _____    ______ ____
ROOT
ATOM      1  C   UNL     1       9.337  -0.437  22.183  0.00  0.00    +0.111 C 
ATOM      2  C   UNL     1       8.331  -1.588  22.091  0.00  0.00    +0.042 C 
ATOM      3  C   UNL     1       7.680  -1.892  23.449  0.00  0.00    +0.086 C 
ATOM      4  N   UNL     1       8.626  -2.085  24.566  0.00  0.00    -0.302 NA
ATOM      5  C   UNL     1       9.583  -0.970  24.623  0.00  0.00    +0.086 C 
ATOM      6  C   UNL     1      10.331  -0.746  23.306  0.00  0.00    +0.042 C 
ENDROOT
BRANCH   1   8
ATOM      7  C   UNL     1       9.026   1.957  22.205  0.00  0.00    +0.215 C 
ATOM      8  N   UNL     1       8.607   0.789  22.510  0.00  0.00    -0.247 NA
BRANCH   7   9
ATOM      9  C   UNL     1       8.418   3.204  22.703  0.00  0.00    +0.036 A 
ATOM     10  C   UNL     1       9.105   3.942  23.674  0.00  0.00    +0.013 A 
ATOM     11  C   UNL     1       8.648   5.210  24.038  0.00  0.00    +0.001 A 
ATOM     12  C   UNL     1       7.495   5.728  23.448  0.00  0.00    +0.000 A 
ATOM     13  C   UNL     1       6.783   4.973  22.513  0.00  0.00    +0.001 A 
ATOM     14  C   UNL     1       7.243   3.710  22.139  0.00  0.00    +0.013 A 
ENDBRANCH   7   9
BRANCH   7  15
ATOM     15  O   UNL     1      10.146   2.225  21.511  0.00  0.00    -0.492 OA
ATOM     16  H   UNL     1      10.159   1.760  20.664  0.00  0.00    +0.294 HD
ENDBRANCH   7  15
ENDBRANCH   1   8
BRANCH   4  17
ATOM     17  C   UNL     1       9.265  -3.408  24.515  0.00  0.00    +0.089 C 
BRANCH  17  18
ATOM     18  C   UNL     1       8.306  -4.544  24.111  0.00  0.00    +0.052 C 
BRANCH  18  19
ATOM     19  C   UNL     1       7.620  -5.112  25.308  0.00  0.00    -0.021 A 
ATOM     20  C   UNL     1       6.316  -5.693  25.349  0.00  0.00    +0.003 A 
ATOM     21  C   UNL     1       6.057  -6.020  26.679  0.00  0.00    +0.047 A 
ATOM     22  C   UNL     1       4.841  -6.580  27.094  0.00  0.00    +0.026 A 
ATOM     23  C   UNL     1       3.867  -6.819  26.121  0.00  0.00    +0.002 A 
ATOM     24  C   UNL     1       4.102  -6.516  24.782  0.00  0.00    +0.001 A 
ATOM     25  N   UNL     1       7.169  -5.685  27.408  0.00  0.00    -0.360 N 
ATOM     26  H   UNL     1       7.262  -5.815  28.406  0.00  0.00    +0.165 HD
ATOM     27  C   UNL     1       5.320  -5.954  24.383  0.00  0.00    +0.010 A 
ATOM     28  C   UNL     1       8.117  -5.130  26.596  0.00  0.00    +0.087 A 
ENDBRANCH  18  19
ENDBRANCH  17  18
ENDBRANCH   4  17
TORSDOF 6
ENDMDL
MODEL 5
REMARK VINA RESULT:      -7.2      1.654      2.654
REMARK  Name = 
REMARK  6 active torsions:
REMARK  status: ('A' for Active; 'I' for Inactive)
REMARK    1  A    between atoms: O_1  and  C_2
REMARK    2  A    between atoms: C_2  and  C_21
REMARK    3  A    between atoms: N_3  and  C_4
REMARK    4  A    between atoms: N_7  and  C_8
REMARK    5  A    between atoms: C_8  and  C_9
REMARK    6  A    between atoms: C_9  and  C_10
REMARK                            x       y       z     vdW  Elec       q    Type
REMARK                         _______ _______ _______ _____ _____    ______ ____
ROOT
ATOM      1  C   UNL     1      10.536   1.335  23.000  0.00  0.00    +0.111 C 
ATOM      2  C   UNL     1       9.664   0.586  21.986  0.00  0.00    +0.042 C 
ATOM      3  C   UNL     1       8.463  -0.098  22.656  0.00  0.00    +0.086 C 
ATOM      4  N   UNL     1       8.795  -0.946  23.818  0.00  0.00    -0.302 NA
ATOM      5  C   UNL     1       9.638  -0.203  24.767  0.00  0.00    +0.086 C 
ATOM      6  C   UNL     1      10.906   0.371  24.130  0.00  0.00    +0.042 C 
ENDROOT
BRANCH   1   8
ATOM      7  C   UNL     1      10.148   3.660  23.521  0.00  0.00    +0.215 C 
ATOM      8  N   UNL     1       9.755   2.445  23.548  0.00  0.00    -0.247 NA
BRANCH   7   9
ATOM      9  C   UNL     1       9.483   4.756  24.247  0.00  0.00    +0.036 A 
ATOM     10  C   UNL     1       8.494   4.436  25.184  0.00  0.00    +0.013 A 
ATOM     11  C   UNL     1       7.971   5.430  26.012  0.00  0.00    +0.001 A 
ATOM     12  C   UNL     1       8.419   6.746  25.888  0.00  0.00    +0.000 A 
ATOM     13  C   UNL     1       9.372   7.074  24.922  0.00  0.00    +0.001 A 
ATOM     14  C   UNL     1       9.906   6.081  24.099  0.00  0.00    +0.013 A 
ENDBRANCH   7   9
BRANCH   7  15
ATOM     15  O   UNL     1      11.286   4.097  22.953  0.00  0.00    -0.492 OA
ATOM     16  H   UNL     1      11.132   4.432  22.060  0.00  0.00    +0.294 HD
ENDBRANCH   7  15
ENDBRANCH   1   8
BRANCH   4  17
ATOM     17  C   UNL     1       9.368  -2.235  23.404  0.00  0.00    +0.089 C 
BRANCH  17  18
ATOM     18  C   UNL     1       9.328  -3.313  24.504  0.00  0.00    +0.052 C 
BRANCH  18  19
ATOM     19  C   UNL     1       7.936  -3.811  24.709  0.00  0.00    -0.021 A 
ATOM     20  C   UNL     1       7.159  -4.576  23.787  0.00  0.00    +0.003 A 
ATOM     21  C   UNL     1       5.902  -4.754  24.363  0.00  0.00    +0.047 A 
ATOM     22  C   UNL     1       4.863  -5.433  23.711  0.00  0.00    +0.026 A 
ATOM     23  C   UNL     1       5.121  -5.950  22.438  0.00  0.00    +0.002 A 
ATOM     24  C   UNL     1       6.371  -5.800  21.843  0.00  0.00    +0.001 A 
ATOM     25  N   UNL     1       5.927  -4.155  25.596  0.00  0.00    -0.360 N 
ATOM     26  H   UNL     1       5.147  -4.131  26.239  0.00  0.00    +0.165 HD
ATOM     27  C   UNL     1       7.397  -5.117  22.505  0.00  0.00    +0.010 A 
ATOM     28  C   UNL     1       7.144  -3.576  25.816  0.00  0.00    +0.087 A 
ENDBRANCH  18  19
ENDBRANCH  17  18
ENDBRANCH   4  17
TORSDOF 6
ENDMDL
MODEL 6
REMARK VINA RESULT:      -7.2      1.875      2.900
REMARK  Name = 
REMARK  6 active torsions:
REMARK  status: ('A' for Active; 'I' for Inactive)
REMARK    1  A    between atoms: O_1  and  C_2
REMARK    2  A    between atoms: C_2  and  C_21
REMARK    3  A    between atoms: N_3  and  C_4
REMARK    4  A    between atoms: N_7  and  C_8
REMARK    5  A    between atoms: C_8  and  C_9
REMARK    6  A    between atoms: C_9  and  C_10
REMARK                            x       y       z     vdW  Elec       q    Type
REMARK                         _______ _______ _______ _____ _____    ______ ____
ROOT
ATOM      1  C   UNL     1       9.445  -0.045  23.216  0.00  0.00    +0.111 C 
ATOM      2  C   UNL     1       8.365  -1.098  22.947  0.00  0.00    +0.042 C 
ATOM      3  C   UNL     1       7.445  -1.300  24.160  0.00  0.00    +0.086 C 
ATOM      4  N   UNL     1       8.142  -1.549  25.438  0.00  0.00    -0.302 NA
ATOM      5  C   UNL     1       9.176  -0.529  25.663  0.00  0.00    +0.086 C 
ATOM      6  C   UNL     1      10.176  -0.415  24.509  0.00  0.00    +0.042 C 
ENDROOT
BRANCH   1   8
ATOM      7  C   UNL     1       8.992   2.248  22.609  0.00  0.00    +0.215 C 
ATOM      8  N   UNL     1       8.791   1.254  23.386  0.00  0.00    -0.247 NA
BRANCH   7   9
ATOM      9  C   UNL     1       8.512   3.615  22.881  0.00  0.00    +0.036 A 
ATOM     10  C   UNL     1       9.280   4.443  23.707  0.00  0.00    +0.013 A 
ATOM     11  C   UNL     1       8.949   5.792  23.842  0.00  0.00    +0.001 A 
ATOM     12  C   UNL     1       7.838   6.306  23.171  0.00  0.00    +0.000 A 
ATOM     13  C   UNL     1       7.044   5.469  22.384  0.00  0.00    +0.001 A 
ATOM     14  C   UNL     1       7.379   4.122  22.238  0.00  0.00    +0.013 A 
ENDBRANCH   7   9
BRANCH   7  15
ATOM     15  O   UNL     1       9.777   2.235  21.517  0.00  0.00    -0.492 OA
ATOM     16  H   UNL     1       9.644   3.025  20.975  0.00  0.00    +0.294 HD
ENDBRANCH   7  15
ENDBRANCH   1   8
BRANCH   4  17
ATOM     17  C   UNL     1       8.646  -2.928  25.522  0.00  0.00    +0.089 C 
BRANCH  17  18
ATOM     18  C   UNL     1       7.752  -3.865  26.356  0.00  0.00    +0.052 C 
BRANCH  18  19
ATOM     19  C   UNL     1       6.590  -4.345  25.553  0.00  0.00    -0.021 A 
ATOM     20  C   UNL     1       6.634  -4.927  24.249  0.00  0.00    +0.003 A 
ATOM     21  C   UNL     1       5.316  -5.155  23.859  0.00  0.00    +0.047 A 
ATOM     22  C   UNL     1       4.982  -5.687  22.606  0.00  0.00    +0.026 A 
ATOM     23  C   UNL     1       6.027  -6.000  21.732  0.00  0.00    +0.002 A 
ATOM     24  C   UNL     1       7.354  -5.796  22.099  0.00  0.00    +0.001 A 
ATOM     25  N   UNL     1       4.508  -4.764  24.896  0.00  0.00    -0.360 N 
ATOM     26  H   UNL     1       3.498  -4.819  24.889  0.00  0.00    +0.165 HD
ATOM     27  C   UNL     1       7.672  -5.261  23.353  0.00  0.00    +0.010 A 
ATOM     28  C   UNL     1       5.261  -4.266  25.921  0.00  0.00    +0.087 A 
ENDBRANCH  18  19
ENDBRANCH  17  18
ENDBRANCH   4  17
TORSDOF 6
ENDMDL
MODEL 7
REMARK VINA RESULT:      -7.2      2.857      9.438
REMARK  Name = 
REMARK  6 active torsions:
REMARK  status: ('A' for Active; 'I' for Inactive)
REMARK    1  A    between atoms: O_1  and  C_2
REMARK    2  A    between atoms: C_2  and  C_21
REMARK    3  A    between atoms: N_3  and  C_4
REMARK    4  A    between atoms: N_7  and  C_8
REMARK    5  A    between atoms: C_8  and  C_9
REMARK    6  A    between atoms: C_9  and  C_10
REMARK                            x       y       z     vdW  Elec       q    Type
REMARK                         _______ _______ _______ _____ _____    ______ ____
ROOT
ATOM      1  C   UNL     1       8.720  -3.222  25.750  0.00  0.00    +0.111 C 
ATOM      2  C   UNL     1       8.544  -1.730  26.053  0.00  0.00    +0.042 C 
ATOM      3  C   UNL     1       7.990  -0.960  24.845  0.00  0.00    +0.086 C 
ATOM      4  N   UNL     1       8.720  -1.175  23.580  0.00  0.00    -0.302 NA
ATOM      5  C   UNL     1       8.881  -2.613  23.321  0.00  0.00    +0.086 C 
ATOM      6  C   UNL     1       9.553  -3.365  24.474  0.00  0.00    +0.042 C 
ENDROOT
BRANCH   1   8
ATOM      7  C   UNL     1       7.067  -4.971  25.944  0.00  0.00    +0.215 C 
ATOM      8  N   UNL     1       7.397  -3.808  25.531  0.00  0.00    -0.247 NA
BRANCH   7   9
ATOM      9  C   UNL     1       5.823  -5.660  25.556  0.00  0.00    +0.036 A 
ATOM     10  C   UNL     1       5.428  -5.624  24.214  0.00  0.00    +0.013 A 
ATOM     11  C   UNL     1       4.357  -6.408  23.783  0.00  0.00    +0.001 A 
ATOM     12  C   UNL     1       3.669  -7.208  24.695  0.00  0.00    +0.000 A 
ATOM     13  C   UNL     1       4.033  -7.208  26.043  0.00  0.00    +0.001 A 
ATOM     14  C   UNL     1       5.110  -6.434  26.477  0.00  0.00    +0.013 A 
ENDBRANCH   7   9
BRANCH   7  15
ATOM     15  O   UNL     1       7.850  -5.790  26.668  0.00  0.00    -0.492 OA
ATOM     16  H   UNL     1       8.083  -6.588  26.174  0.00  0.00    +0.294 HD
ENDBRANCH   7  15
ENDBRANCH   1   8
BRANCH   4  17
ATOM     17  C   UNL     1       9.985  -0.425  23.548  0.00  0.00    +0.089 C 
BRANCH  17  18
ATOM     18  C   UNL     1      10.102   0.542  22.355  0.00  0.00    +0.052 C 
BRANCH  18  19
ATOM     19  C   UNL     1       9.718   1.928  22.753  0.00  0.00    -0.021 A 
ATOM     20  C   UNL     1       8.413   2.506  22.685  0.00  0.00    +0.003 A 
ATOM     21  C   UNL     1       8.535   3.835  23.087  0.00  0.00    +0.047 A 
ATOM     22  C   UNL     1       7.447   4.719  23.104  0.00  0.00    +0.026 A 
ATOM     23  C   UNL     1       6.201   4.227  22.707  0.00  0.00    +0.002 A 
ATOM     24  C   UNL     1       6.046   2.900  22.314  0.00  0.00    +0.001 A 
ATOM     25  N   UNL     1       9.849   4.044  23.419  0.00  0.00    -0.360 N 
ATOM     26  H   UNL     1      10.224   4.924  23.748  0.00  0.00    +0.165 HD
ATOM     27  C   UNL     1       7.142   2.030  22.299  0.00  0.00    +0.010 A 
ATOM     28  C   UNL     1      10.575   2.906  23.216  0.00  0.00    +0.087 A 
ENDBRANCH  18  19
ENDBRANCH  17  18
ENDBRANCH   4  17
TORSDOF 6
ENDMDL
MODEL 8
REMARK VINA RESULT:      -7.2      2.075      2.753
REMARK  Name = 
REMARK  6 active torsions:
REMARK  status: ('A' for Active; 'I' for Inactive)
REMARK    1  A    between atoms: O_1  and  C_2
REMARK    2  A    between atoms: C_2  and  C_21
REMARK    3  A    between atoms: N_3  and  C_4
REMARK    4  A    between atoms: N_7  and  C_8
REMARK    5  A    between atoms: C_8  and  C_9
REMARK    6  A    between atoms: C_9  and  C_10
REMARK                            x       y       z     vdW  Elec       q    Type
REMARK                         _______ _______ _______ _____ _____    ______ ____
ROOT
ATOM      1  C   UNL     1       9.873  -0.173  23.001  0.00  0.00    +0.111 C 
ATOM      2  C   UNL     1       8.457  -0.377  22.451  0.00  0.00    +0.042 C 
ATOM      3  C   UNL     1       7.403  -0.386  23.568  0.00  0.00    +0.086 C 
ATOM      4  N   UNL     1       7.689  -1.303  24.690  0.00  0.00    -0.302 NA
ATOM      5  C   UNL     1       9.055  -1.089  25.189  0.00  0.00    +0.086 C 
ATOM      6  C   UNL     1      10.124  -1.209  24.099  0.00  0.00    +0.042 C 
ENDROOT
BRANCH   1   8
ATOM      7  C   UNL     1      10.145   2.223  22.879  0.00  0.00    +0.215 C 
ATOM      8  N   UNL     1       9.955   1.171  23.577  0.00  0.00    -0.247 NA
BRANCH   7   9
ATOM      9  C   UNL     1      10.439   3.549  23.452  0.00  0.00    +0.036 A 
ATOM     10  C   UNL     1      11.727   4.074  23.300  0.00  0.00    +0.013 A 
ATOM     11  C   UNL     1      11.990   5.393  23.674  0.00  0.00    +0.001 A 
ATOM     12  C   UNL     1      10.972   6.177  24.218  0.00  0.00    +0.000 A 
ATOM     13  C   UNL     1       9.699   5.639  24.413  0.00  0.00    +0.001 A 
ATOM     14  C   UNL     1       9.429   4.324  24.031  0.00  0.00    +0.013 A 
ENDBRANCH   7   9
BRANCH   7  15
ATOM     15  O   UNL     1      10.246   2.260  21.538  0.00  0.00    -0.492 OA
ATOM     16  H   UNL     1       9.724   2.981  21.162  0.00  0.00    +0.294 HD
ENDBRANCH   7  15
ENDBRANCH   1   8
BRANCH   4  17
ATOM     17  C   UNL     1       7.403  -2.701  24.334  0.00  0.00    +0.089 C 
BRANCH  17  18
ATOM     18  C   UNL     1       6.175  -3.285  25.057  0.00  0.00    +0.052 C 
BRANCH  18  19
ATOM     19  C   UNL     1       6.585  -4.330  26.041  0.00  0.00    -0.021 A 
ATOM     20  C   UNL     1       5.852  -4.752  27.193  0.00  0.00    +0.003 A 
ATOM     21  C   UNL     1       6.642  -5.689  27.857  0.00  0.00    +0.047 A 
ATOM     22  C   UNL     1       6.247  -6.289  29.061  0.00  0.00    +0.026 A 
ATOM     23  C   UNL     1       5.008  -5.926  29.594  0.00  0.00    +0.002 A 
ATOM     24  C   UNL     1       4.191  -5.003  28.946  0.00  0.00    +0.001 A 
ATOM     25  N   UNL     1       7.787  -5.856  27.121  0.00  0.00    -0.360 N 
ATOM     26  H   UNL     1       8.542  -6.482  27.368  0.00  0.00    +0.165 HD
ATOM     27  C   UNL     1       4.600  -4.410  27.746  0.00  0.00    +0.010 A 
ATOM     28  C   UNL     1       7.770  -5.038  26.028  0.00  0.00    +0.087 A 
ENDBRANCH  18  19
ENDBRANCH  17  18
ENDBRANCH   4  17
TORSDOF 6
ENDMDL
MODEL 9
REMARK VINA RESULT:      -7.2      1.792      2.526
REMARK  Name = 
REMARK  6 active torsions:
REMARK  status: ('A' for Active; 'I' for Inactive)
REMARK    1  A    between atoms: O_1  and  C_2
REMARK    2  A    between atoms: C_2  and  C_21
REMARK    3  A    between atoms: N_3  and  C_4
REMARK    4  A    between atoms: N_7  and  C_8
REMARK    5  A    between atoms: C_8  and  C_9
REMARK    6  A    between atoms: C_9  and  C_10
REMARK                            x       y       z     vdW  Elec       q    Type
REMARK                         _______ _______ _______ _____ _____    ______ ____
ROOT
ATOM      1  C   UNL     1       9.962  -0.223  23.018  0.00  0.00    +0.111 C 
ATOM      2  C   UNL     1       9.262  -1.118  21.991  0.00  0.00    +0.042 C 
ATOM      3  C   UNL     1       7.929  -1.668  22.521  0.00  0.00    +0.086 C 
ATOM      4  N   UNL     1       8.004  -2.317  23.845  0.00  0.00    -0.302 NA
ATOM      5  C   UNL     1       8.689  -1.439  24.806  0.00  0.00    +0.086 C 
ATOM      6  C   UNL     1      10.076  -0.992  24.337  0.00  0.00    +0.042 C 
ENDROOT
BRANCH   1   8
ATOM      7  C   UNL     1       9.312   2.061  22.579  0.00  0.00    +0.215 C 
ATOM      8  N   UNL     1       9.142   0.972  23.225  0.00  0.00    -0.247 NA
BRANCH   7   9
ATOM      9  C   UNL     1       8.643   3.330  22.916  0.00  0.00    +0.036 A 
ATOM     10  C   UNL     1       9.245   4.177  23.853  0.00  0.00    +0.013 A 
ATOM     11  C   UNL     1       8.734   5.458  24.063  0.00  0.00    +0.001 A 
ATOM     12  C   UNL     1       7.610   5.883  23.355  0.00  0.00    +0.000 A 
ATOM     13  C   UNL     1       6.981   5.022  22.453  0.00  0.00    +0.001 A 
ATOM     14  C   UNL     1       7.495   3.743  22.232  0.00  0.00    +0.013 A 
ENDBRANCH   7   9
BRANCH   7  15
ATOM     15  O   UNL     1      10.215   2.251  21.601  0.00  0.00    -0.492 OA
ATOM     16  H   UNL     1      10.513   1.413  21.224  0.00  0.00    +0.294 HD
ENDBRANCH   7  15
ENDBRANCH   1   8
BRANCH   4  17
ATOM     17  C   UNL     1       8.589  -3.663  23.758  0.00  0.00    +0.089 C 
BRANCH  17  18
ATOM     18  C   UNL     1       7.782  -4.738  24.510  0.00  0.00    +0.052 C 
BRANCH  18  19
ATOM     19  C   UNL     1       6.636  -5.219  23.684  0.00  0.00    -0.021 A 
ATOM     20  C   UNL     1       5.252  -5.166  24.031  0.00  0.00    +0.003 A 
ATOM     21  C   UNL     1       4.549  -5.790  23.002  0.00  0.00    +0.047 A 
ATOM     22  C   UNL     1       3.157  -5.953  23.031  0.00  0.00    +0.026 A 
ATOM     23  C   UNL     1       2.466  -5.457  24.139  0.00  0.00    +0.002 A 
ATOM     24  C   UNL     1       3.139  -4.816  25.176  0.00  0.00    +0.001 A 
ATOM     25  N   UNL     1       5.464  -6.173  22.055  0.00  0.00    -0.360 N 
ATOM     26  H   UNL     1       5.233  -6.650  21.193  0.00  0.00    +0.165 HD
ATOM     27  C   UNL     1       4.529  -4.663  25.135  0.00  0.00    +0.010 A 
ATOM     28  C   UNL     1       6.727  -5.843  22.455  0.00  0.00    +0.087 A 
ENDBRANCH  18  19
ENDBRANCH  17  18
ENDBRANCH   4  17
TORSDOF 6
ENDMDL
