MODEL 1
REMARK VINA RESULT:      -6.2      0.000      0.000
REMARK  Name = 
REMARK  11 active torsions:
REMARK  status: ('A' for Active; 'I' for Inactive)
REMARK    1  A    between atoms: CA_2  and  C_3
REMARK    2  A    between atoms: CA_2  and  C_5
REMARK    3  A    between atoms: CA_2  and  N_7
REMARK    4  A    between atoms: C_3  and  C_4
REMARK    5  A    between atoms: C_5  and  O_6
REMARK    6  A    between atoms: N_14  and  C_15
REMARK    7  A    between atoms: C_15  and  C_16
REMARK    8  A    between atoms: C_15  and  C_17
REMARK    9  A    between atoms: N_20  and  C_21
REMARK   10  A    between atoms: N_20  and  C_22
REMARK   11  A    between atoms: C_22  and  C_23
REMARK                            x       y       z     vdW  Elec       q    Type
REMARK                         _______ _______ _______ _____ _____    ______ ____
ROOT
ATOM      1  N   UNL     1       6.738  -5.794  27.689  0.00  0.00    -0.308 N 
ATOM      2  H   UNL     1       7.339  -4.989  27.845  0.00  0.00    +0.149 HD
ATOM      3  C   UNL     1       6.225  -5.614  26.397  0.00  0.00    +0.219 A 
ATOM      4  N   UNL     1       6.947  -4.810  25.579  0.00  0.00    -0.197 NA
ATOM      5  C   UNL     1       6.512  -4.530  24.304  0.00  0.00    +0.154 A 
ATOM      6  N   UNL     1       7.176  -3.611  23.505  0.00  0.00    -0.312 N 
ATOM      7  C   UNL     1       6.407  -2.822  22.554  0.00  0.00    +0.131 C 
ATOM      8  C   UNL     1       5.318  -5.167  23.895  0.00  0.00    +0.148 A 
ATOM      9  N   UNL     1       4.616  -5.149  22.702  0.00  0.00    -0.231 NA
ATOM     10  C   UNL     1       3.572  -5.918  22.910  0.00  0.00    +0.201 A 
ATOM     11  N   UNL     1       3.552  -6.421  24.181  0.00  0.00    -0.312 N 
ATOM     12  C   UNL     1       4.677  -5.967  24.822  0.00  0.00    +0.167 A 
ATOM     13  N   UNL     1       5.069  -6.214  26.074  0.00  0.00    -0.195 NA
ENDROOT
BRANCH  11  14
ATOM     14  C   UNL     1       2.492  -7.260  24.724  0.00  0.00    +0.084 C 
ATOM     15  C   UNL     1       1.849  -8.152  23.662  0.00  0.00    +0.030 C 
ATOM     16  C   UNL     1       1.450  -6.459  25.502  0.00  0.00    +0.030 C 
ENDBRANCH  11  14
BRANCH   1  17
ATOM     17  CA  UNL     1       5.759  -6.083  28.749  0.00  0.00    +0.098 C 
BRANCH  17  18
ATOM     18  C   UNL     1       5.073  -4.774  29.218  0.00  0.00    +0.021 C 
ATOM     19  C   UNL     1       3.557  -4.726  29.060  0.00  0.00    +0.006 C 
ENDBRANCH  17  18
BRANCH  17  20
ATOM     20  C   UNL     1       6.400  -6.841  29.939  0.00  0.00    +0.178 C 
BRANCH  20  21
ATOM     21  O   UNL     1       7.225  -7.923  29.499  0.00  0.00    -0.393 OA
ATOM     22  H   UNL     1       7.103  -8.659  30.123  0.00  0.00    +0.209 HD
ENDBRANCH  20  21
ENDBRANCH  17  20
ENDBRANCH   1  17
BRANCH   6  23
ATOM     23  C   UNL     1       8.626  -3.492  23.528  0.00  0.00    +0.141 C 
BRANCH  23  24
ATOM     24  C   UNL     1       9.176  -2.126  23.927  0.00  0.00    -0.030 A 
ATOM     25  C   UNL     1       8.812  -1.618  25.192  0.00  0.00    +0.005 A 
ATOM     26  C   UNL     1       9.274  -0.378  25.640  0.00  0.00    +0.000 A 
ATOM     27  C   UNL     1      10.104   0.389  24.830  0.00  0.00    +0.000 A 
ATOM     28  C   UNL     1      10.469  -0.088  23.572  0.00  0.00    +0.000 A 
ATOM     29  C   UNL     1      10.012  -1.335  23.126  0.00  0.00    +0.005 A 
ENDBRANCH  23  24
ENDBRANCH   6  23
TORSDOF 7
ENDMDL
MODEL 2
REMARK VINA RESULT:      -6.2      6.311     10.298
REMARK  Name = 
REMARK  11 active torsions:
REMARK  status: ('A' for Active; 'I' for Inactive)
REMARK    1  A    between atoms: CA_2  and  C_3
REMARK    2  A    between atoms: CA_2  and  C_5
REMARK    3  A    between atoms: CA_2  and  N_7
REMARK    4  A    between atoms: C_3  and  C_4
REMARK    5  A    between atoms: C_5  and  O_6
REMARK    6  A    between atoms: N_14  and  C_15
REMARK    7  A    between atoms: C_15  and  C_16
REMARK    8  A    between atoms: C_15  and  C_17
REMARK    9  A    between atoms: N_20  and  C_21
REMARK   10  A    between atoms: N_20  and  C_22
REMARK   11  A    between atoms: C_22  and  C_23
REMARK                            x       y       z     vdW  Elec       q    Type
REMARK                         _______ _______ _______ _____ _____    ______ ____
ROOT
ATOM      1  N   UNL     1      11.552   4.479  24.127  0.00  0.00    -0.308 N 
ATOM      2  H   UNL     1      12.325   3.900  23.813  0.00  0.00    +0.149 HD
ATOM      3  C   UNL     1      10.404   3.844  23.633  0.00  0.00    +0.219 A 
ATOM      4  N   UNL     1      10.533   2.525  23.347  0.00  0.00    -0.197 NA
ATOM      5  C   UNL     1       9.482   1.814  22.816  0.00  0.00    +0.154 A 
ATOM      6  N   UNL     1       9.641   0.499  22.403  0.00  0.00    -0.312 N 
ATOM      7  C   UNL     1       8.855   0.016  21.278  0.00  0.00    +0.131 C 
ATOM      8  C   UNL     1       8.270   2.521  22.644  0.00  0.00    +0.148 A 
ATOM      9  N   UNL     1       7.025   2.133  22.180  0.00  0.00    -0.231 NA
ATOM     10  C   UNL     1       6.290   3.220  22.228  0.00  0.00    +0.201 A 
ATOM     11  N   UNL     1       6.998   4.296  22.685  0.00  0.00    -0.312 N 
ATOM     12  C   UNL     1       8.266   3.862  22.977  0.00  0.00    +0.167 A 
ATOM     13  N   UNL     1       9.291   4.572  23.456  0.00  0.00    -0.195 NA
ENDROOT
BRANCH  11  14
ATOM     14  C   UNL     1       6.470   5.650  22.795  0.00  0.00    +0.084 C 
ATOM     15  C   UNL     1       4.942   5.684  22.798  0.00  0.00    +0.030 C 
ATOM     16  C   UNL     1       7.059   6.597  21.752  0.00  0.00    +0.030 C 
ENDBRANCH  11  14
BRANCH   1  17
ATOM     17  CA  UNL     1      11.671   5.920  23.854  0.00  0.00    +0.098 C 
BRANCH  17  18
ATOM     18  C   UNL     1      12.990   6.214  23.093  0.00  0.00    +0.021 C 
ATOM     19  C   UNL     1      13.223   5.394  21.829  0.00  0.00    +0.006 C 
ENDBRANCH  17  18
BRANCH  17  20
ATOM     20  C   UNL     1      11.568   6.765  25.149  0.00  0.00    +0.178 C 
BRANCH  20  21
ATOM     21  O   UNL     1      12.844   6.949  25.769  0.00  0.00    -0.393 OA
ATOM     22  H   UNL     1      13.358   6.136  25.629  0.00  0.00    +0.209 HD
ENDBRANCH  20  21
ENDBRANCH  17  20
ENDBRANCH   1  17
BRANCH   6  23
ATOM     23  C   UNL     1      10.497  -0.427  23.129  0.00  0.00    +0.141 C 
BRANCH  23  24
ATOM     24  C   UNL     1       9.798  -1.321  24.148  0.00  0.00    -0.030 A 
ATOM     25  C   UNL     1       9.800  -2.711  23.910  0.00  0.00    +0.005 A 
ATOM     26  C   UNL     1       9.188  -3.604  24.793  0.00  0.00    +0.000 A 
ATOM     27  C   UNL     1       8.551  -3.127  25.933  0.00  0.00    +0.000 A 
ATOM     28  C   UNL     1       8.527  -1.756  26.185  0.00  0.00    +0.000 A 
ATOM     29  C   UNL     1       9.148  -0.861  25.303  0.00  0.00    +0.005 A 
ENDBRANCH  23  24
ENDBRANCH   6  23
TORSDOF 7
ENDMDL
MODEL 3
REMARK VINA RESULT:      -6.1      3.390      7.379
REMARK  Name = 
REMARK  11 active torsions:
REMARK  status: ('A' for Active; 'I' for Inactive)
REMARK    1  A    between atoms: CA_2  and  C_3
REMARK    2  A    between atoms: CA_2  and  C_5
REMARK    3  A    between atoms: CA_2  and  N_7
REMARK    4  A    between atoms: C_3  and  C_4
REMARK    5  A    between atoms: C_5  and  O_6
REMARK    6  A    between atoms: N_14  and  C_15
REMARK    7  A    between atoms: C_15  and  C_16
REMARK    8  A    between atoms: C_15  and  C_17
REMARK    9  A    between atoms: N_20  and  C_21
REMARK   10  A    between atoms: N_20  and  C_22
REMARK   11  A    between atoms: C_22  and  C_23
REMARK                            x       y       z     vdW  Elec       q    Type
REMARK                         _______ _______ _______ _____ _____    ______ ____
ROOT
ATOM      1  N   UNL     1       6.442  -0.310  27.526  0.00  0.00    -0.308 N 
ATOM      2  H   UNL     1       6.401  -0.925  28.334  0.00  0.00    +0.149 HD
ATOM      3  C   UNL     1       7.271  -0.975  26.611  0.00  0.00    +0.219 A 
ATOM      4  N   UNL     1       7.380  -2.315  26.777  0.00  0.00    -0.197 NA
ATOM      5  C   UNL     1       8.201  -3.061  25.962  0.00  0.00    +0.154 A 
ATOM      6  N   UNL     1       8.417  -4.410  26.202  0.00  0.00    -0.312 N 
ATOM      7  C   UNL     1       9.709  -4.986  25.861  0.00  0.00    +0.131 C 
ATOM      8  C   UNL     1       8.864  -2.359  24.930  0.00  0.00    +0.148 A 
ATOM      9  N   UNL     1       9.720  -2.773  23.924  0.00  0.00    -0.231 NA
ATOM     10  C   UNL     1      10.035  -1.679  23.271  0.00  0.00    +0.201 A 
ATOM     11  N   UNL     1       9.439  -0.573  23.811  0.00  0.00    -0.312 N 
ATOM     12  C   UNL     1       8.667  -0.993  24.863  0.00  0.00    +0.167 A 
ATOM     13  N   UNL     1       7.904  -0.254  25.673  0.00  0.00    -0.195 NA
ENDROOT
BRANCH  11  14
ATOM     14  C   UNL     1       9.642   0.791  23.340  0.00  0.00    +0.084 C 
ATOM     15  C   UNL     1       9.772   0.872  21.819  0.00  0.00    +0.030 C 
ATOM     16  C   UNL     1      10.799   1.491  24.048  0.00  0.00    +0.030 C 
ENDBRANCH  11  14
BRANCH   1  17
ATOM     17  CA  UNL     1       6.769   1.098  27.801  0.00  0.00    +0.098 C 
BRANCH  17  18
ATOM     18  C   UNL     1       6.625   1.396  29.316  0.00  0.00    +0.021 C 
ATOM     19  C   UNL     1       7.927   1.448  30.108  0.00  0.00    +0.006 C 
ENDBRANCH  17  18
BRANCH  17  20
ATOM     20  C   UNL     1       5.909   2.069  26.953  0.00  0.00    +0.178 C 
BRANCH  20  21
ATOM     21  O   UNL     1       6.571   2.447  25.742  0.00  0.00    -0.393 OA
ATOM     22  H   UNL     1       7.528   2.424  25.910  0.00  0.00    +0.209 HD
ENDBRANCH  20  21
ENDBRANCH  17  20
ENDBRANCH   1  17
BRANCH   6  23
ATOM     23  C   UNL     1       7.354  -5.274  26.691  0.00  0.00    +0.141 C 
BRANCH  23  24
ATOM     24  C   UNL     1       6.306  -5.688  25.663  0.00  0.00    -0.030 A 
ATOM     25  C   UNL     1       5.211  -6.453  26.116  0.00  0.00    +0.005 A 
ATOM     26  C   UNL     1       4.202  -6.871  25.245  0.00  0.00    +0.000 A 
ATOM     27  C   UNL     1       4.268  -6.540  23.896  0.00  0.00    +0.000 A 
ATOM     28  C   UNL     1       5.346  -5.793  23.422  0.00  0.00    +0.000 A 
ATOM     29  C   UNL     1       6.353  -5.368  24.298  0.00  0.00    +0.005 A 
ENDBRANCH  23  24
ENDBRANCH   6  23
TORSDOF 7
ENDMDL
MODEL 4
REMARK VINA RESULT:      -6.1      5.312      9.446
REMARK  Name = 
REMARK  11 active torsions:
REMARK  status: ('A' for Active; 'I' for Inactive)
REMARK    1  A    between atoms: CA_2  and  C_3
REMARK    2  A    between atoms: CA_2  and  C_5
REMARK    3  A    between atoms: CA_2  and  N_7
REMARK    4  A    between atoms: C_3  and  C_4
REMARK    5  A    between atoms: C_5  and  O_6
REMARK    6  A    between atoms: N_14  and  C_15
REMARK    7  A    between atoms: C_15  and  C_16
REMARK    8  A    between atoms: C_15  and  C_17
REMARK    9  A    between atoms: N_20  and  C_21
REMARK   10  A    between atoms: N_20  and  C_22
REMARK   11  A    between atoms: C_22  and  C_23
REMARK                            x       y       z     vdW  Elec       q    Type
REMARK                         _______ _______ _______ _____ _____    ______ ____
ROOT
ATOM      1  N   UNL     1       5.242   2.178  22.567  0.00  0.00    -0.308 N 
ATOM      2  H   UNL     1       4.833   1.266  22.751  0.00  0.00    +0.149 HD
ATOM      3  C   UNL     1       6.615   2.009  22.799  0.00  0.00    +0.219 A 
ATOM      4  N   UNL     1       7.078   0.738  22.714  0.00  0.00    -0.197 NA
ATOM      5  C   UNL     1       8.400   0.453  22.966  0.00  0.00    +0.154 A 
ATOM      6  N   UNL     1       8.857  -0.857  23.006  0.00  0.00    -0.312 N 
ATOM      7  C   UNL     1       9.950  -1.192  23.906  0.00  0.00    +0.131 C 
ATOM      8  C   UNL     1       9.235   1.556  23.259  0.00  0.00    +0.148 A 
ATOM      9  N   UNL     1      10.590   1.653  23.526  0.00  0.00    -0.231 NA
ATOM     10  C   UNL     1      10.805   2.929  23.740  0.00  0.00    +0.201 A 
ATOM     11  N   UNL     1       9.657   3.665  23.641  0.00  0.00    -0.312 N 
ATOM     12  C   UNL     1       8.642   2.803  23.312  0.00  0.00    +0.167 A 
ATOM     13  N   UNL     1       7.352   3.086  23.108  0.00  0.00    -0.195 NA
ENDROOT
BRANCH  11  14
ATOM     14  C   UNL     1       9.567   5.100  23.882  0.00  0.00    +0.084 C 
ATOM     15  C   UNL     1      10.908   5.809  23.695  0.00  0.00    +0.030 C 
ATOM     16  C   UNL     1       8.931   5.430  25.230  0.00  0.00    +0.030 C 
ENDBRANCH  11  14
BRANCH   1  17
ATOM     17  CA  UNL     1       4.601   3.320  23.235  0.00  0.00    +0.098 C 
BRANCH  17  18
ATOM     18  C   UNL     1       4.071   2.898  24.630  0.00  0.00    +0.021 C 
ATOM     19  C   UNL     1       4.842   3.448  25.826  0.00  0.00    +0.006 C 
ENDBRANCH  17  18
BRANCH  17  20
ATOM     20  C   UNL     1       3.474   3.940  22.370  0.00  0.00    +0.178 C 
BRANCH  20  21
ATOM     21  O   UNL     1       3.844   5.220  21.851  0.00  0.00    -0.393 OA
ATOM     22  H   UNL     1       4.538   5.582  22.427  0.00  0.00    +0.209 HD
ENDBRANCH  20  21
ENDBRANCH  17  20
ENDBRANCH   1  17
BRANCH   6  23
ATOM     23  C   UNL     1       8.337  -1.870  22.101  0.00  0.00    +0.141 C 
BRANCH  23  24
ATOM     24  C   UNL     1       7.404  -2.904  22.723  0.00  0.00    -0.030 A 
ATOM     25  C   UNL     1       6.016  -2.707  22.572  0.00  0.00    +0.005 A 
ATOM     26  C   UNL     1       5.089  -3.606  23.106  0.00  0.00    +0.000 A 
ATOM     27  C   UNL     1       5.529  -4.721  23.810  0.00  0.00    +0.000 A 
ATOM     28  C   UNL     1       6.897  -4.932  23.981  0.00  0.00    +0.000 A 
ATOM     29  C   UNL     1       7.826  -4.033  23.439  0.00  0.00    +0.005 A 
ENDBRANCH  23  24
ENDBRANCH   6  23
TORSDOF 7
ENDMDL
MODEL 5
REMARK VINA RESULT:      -6.1      3.482      7.360
REMARK  Name = 
REMARK  11 active torsions:
REMARK  status: ('A' for Active; 'I' for Inactive)
REMARK    1  A    between atoms: CA_2  and  C_3
REMARK    2  A    between atoms: CA_2  and  C_5
REMARK    3  A    between atoms: CA_2  and  N_7
REMARK    4  A    between atoms: C_3  and  C_4
REMARK    5  A    between atoms: C_5  and  O_6
REMARK    6  A    between atoms: N_14  and  C_15
REMARK    7  A    between atoms: C_15  and  C_16
REMARK    8  A    between atoms: C_15  and  C_17
REMARK    9  A    between atoms: N_20  and  C_21
REMARK   10  A    between atoms: N_20  and  C_22
REMARK   11  A    between atoms: C_22  and  C_23
REMARK                            x       y       z     vdW  Elec       q    Type
REMARK                         _______ _______ _______ _____ _____    ______ ____
ROOT
ATOM      1  N   UNL     1       5.983  -0.202  26.028  0.00  0.00    -0.308 N 
ATOM      2  H   UNL     1       5.791  -0.750  26.862  0.00  0.00    +0.149 HD
ATOM      3  C   UNL     1       7.018  -0.888  25.377  0.00  0.00    +0.219 A 
ATOM      4  N   UNL     1       7.143  -2.202  25.687  0.00  0.00    -0.197 NA
ATOM      5  C   UNL     1       8.153  -2.960  25.140  0.00  0.00    +0.154 A 
ATOM      6  N   UNL     1       8.367  -4.270  25.545  0.00  0.00    -0.312 N 
ATOM      7  C   UNL     1       9.725  -4.792  25.544  0.00  0.00    +0.131 C 
ATOM      8  C   UNL     1       8.996  -2.307  24.213  0.00  0.00    +0.148 A 
ATOM      9  N   UNL     1      10.069  -2.749  23.457  0.00  0.00    -0.231 NA
ATOM     10  C   UNL     1      10.473  -1.695  22.788  0.00  0.00    +0.201 A 
ATOM     11  N   UNL     1       9.728  -0.587  23.082  0.00  0.00    -0.312 N 
ATOM     12  C   UNL     1       8.762  -0.965  23.979  0.00  0.00    +0.167 A 
ATOM     13  N   UNL     1       7.810  -0.209  24.534  0.00  0.00    -0.195 NA
ENDROOT
BRANCH  11  14
ATOM     14  C   UNL     1       9.972   0.744  22.540  0.00  0.00    +0.084 C 
ATOM     15  C   UNL     1      10.308   1.765  23.627  0.00  0.00    +0.030 C 
ATOM     16  C   UNL     1       8.840   1.226  21.637  0.00  0.00    +0.030 C 
ENDBRANCH  11  14
BRANCH   1  17
ATOM     17  CA  UNL     1       6.183   1.241  26.234  0.00  0.00    +0.098 C 
BRANCH  17  18
ATOM     18  C   UNL     1       6.019   1.597  27.734  0.00  0.00    +0.021 C 
ATOM     19  C   UNL     1       7.094   1.049  28.666  0.00  0.00    +0.006 C 
ENDBRANCH  17  18
BRANCH  17  20
ATOM     20  C   UNL     1       5.236   2.090  25.348  0.00  0.00    +0.178 C 
BRANCH  20  21
ATOM     21  O   UNL     1       5.051   1.507  24.055  0.00  0.00    -0.393 OA
ATOM     22  H   UNL     1       4.598   0.655  24.179  0.00  0.00    +0.209 HD
ENDBRANCH  20  21
ENDBRANCH  17  20
ENDBRANCH   1  17
BRANCH   6  23
ATOM     23  C   UNL     1       7.260  -5.154  25.873  0.00  0.00    +0.141 C 
BRANCH  23  24
ATOM     24  C   UNL     1       6.174  -5.284  24.810  0.00  0.00    -0.030 A 
ATOM     25  C   UNL     1       4.840  -5.049  25.205  0.00  0.00    +0.005 A 
ATOM     26  C   UNL     1       3.783  -5.142  24.296  0.00  0.00    +0.000 A 
ATOM     27  C   UNL     1       4.034  -5.480  22.971  0.00  0.00    +0.000 A 
ATOM     28  C   UNL     1       5.343  -5.726  22.559  0.00  0.00    +0.000 A 
ATOM     29  C   UNL     1       6.403  -5.625  23.470  0.00  0.00    +0.005 A 
ENDBRANCH  23  24
ENDBRANCH   6  23
TORSDOF 7
ENDMDL
MODEL 6
REMARK VINA RESULT:      -5.9      3.389      7.599
REMARK  Name = 
REMARK  11 active torsions:
REMARK  status: ('A' for Active; 'I' for Inactive)
REMARK    1  A    between atoms: CA_2  and  C_3
REMARK    2  A    between atoms: CA_2  and  C_5
REMARK    3  A    between atoms: CA_2  and  N_7
REMARK    4  A    between atoms: C_3  and  C_4
REMARK    5  A    between atoms: C_5  and  O_6
REMARK    6  A    between atoms: N_14  and  C_15
REMARK    7  A    between atoms: C_15  and  C_16
REMARK    8  A    between atoms: C_15  and  C_17
REMARK    9  A    between atoms: N_20  and  C_21
REMARK   10  A    between atoms: N_20  and  C_22
REMARK   11  A    between atoms: C_22  and  C_23
REMARK                            x       y       z     vdW  Elec       q    Type
REMARK                         _______ _______ _______ _____ _____    ______ ____
ROOT
ATOM      1  N   UNL     1       5.557  -0.270  25.315  0.00  0.00    -0.308 N 
ATOM      2  H   UNL     1       5.206  -0.919  26.013  0.00  0.00    +0.149 HD
ATOM      3  C   UNL     1       6.668  -0.913  24.751  0.00  0.00    +0.219 A 
ATOM      4  N   UNL     1       6.696  -2.263  24.876  0.00  0.00    -0.197 NA
ATOM      5  C   UNL     1       7.761  -2.992  24.397  0.00  0.00    +0.154 A 
ATOM      6  N   UNL     1       7.860  -4.356  24.630  0.00  0.00    -0.312 N 
ATOM      7  C   UNL     1       9.180  -4.949  24.778  0.00  0.00    +0.131 C 
ATOM      8  C   UNL     1       8.773  -2.260  23.735  0.00  0.00    +0.148 A 
ATOM      9  N   UNL     1       9.947  -2.651  23.111  0.00  0.00    -0.231 NA
ATOM     10  C   UNL     1      10.494  -1.536  22.687  0.00  0.00    +0.201 A 
ATOM     11  N   UNL     1       9.745  -0.441  23.015  0.00  0.00    -0.312 N 
ATOM     12  C   UNL     1       8.626  -0.888  23.670  0.00  0.00    +0.167 A 
ATOM     13  N   UNL     1       7.616  -0.167  24.165  0.00  0.00    -0.195 NA
ENDROOT
BRANCH  11  14
ATOM     14  C   UNL     1      10.121   0.938  22.730  0.00  0.00    +0.084 C 
ATOM     15  C   UNL     1      10.372   1.751  24.000  0.00  0.00    +0.030 C 
ATOM     16  C   UNL     1       9.135   1.633  21.794  0.00  0.00    +0.030 C 
ENDBRANCH  11  14
BRANCH   1  17
ATOM     17  CA  UNL     1       5.764   1.115  25.767  0.00  0.00    +0.098 C 
BRANCH  17  18
ATOM     18  C   UNL     1       5.473   1.233  27.286  0.00  0.00    +0.021 C 
ATOM     19  C   UNL     1       6.645   1.681  28.153  0.00  0.00    +0.006 C 
ENDBRANCH  17  18
BRANCH  17  20
ATOM     20  C   UNL     1       4.915   2.124  24.952  0.00  0.00    +0.178 C 
BRANCH  20  21
ATOM     21  O   UNL     1       4.960   1.847  23.550  0.00  0.00    -0.393 OA
ATOM     22  H   UNL     1       4.044   1.809  23.228  0.00  0.00    +0.209 HD
ENDBRANCH  20  21
ENDBRANCH  17  20
ENDBRANCH   1  17
BRANCH   6  23
ATOM     23  C   UNL     1       6.685  -5.213  24.631  0.00  0.00    +0.141 C 
BRANCH  23  24
ATOM     24  C   UNL     1       6.200  -5.678  26.000  0.00  0.00    -0.030 A 
ATOM     25  C   UNL     1       5.038  -6.476  26.046  0.00  0.00    +0.005 A 
ATOM     26  C   UNL     1       4.526  -6.950  27.257  0.00  0.00    +0.000 A 
ATOM     27  C   UNL     1       5.161  -6.631  28.452  0.00  0.00    +0.000 A 
ATOM     28  C   UNL     1       6.305  -5.836  28.433  0.00  0.00    +0.000 A 
ATOM     29  C   UNL     1       6.823  -5.367  27.218  0.00  0.00    +0.005 A 
ENDBRANCH  23  24
ENDBRANCH   6  23
TORSDOF 7
ENDMDL
MODEL 7
REMARK VINA RESULT:      -5.9      3.198      4.737
REMARK  Name = 
REMARK  11 active torsions:
REMARK  status: ('A' for Active; 'I' for Inactive)
REMARK    1  A    between atoms: CA_2  and  C_3
REMARK    2  A    between atoms: CA_2  and  C_5
REMARK    3  A    between atoms: CA_2  and  N_7
REMARK    4  A    between atoms: C_3  and  C_4
REMARK    5  A    between atoms: C_5  and  O_6
REMARK    6  A    between atoms: N_14  and  C_15
REMARK    7  A    between atoms: C_15  and  C_16
REMARK    8  A    between atoms: C_15  and  C_17
REMARK    9  A    between atoms: N_20  and  C_21
REMARK   10  A    between atoms: N_20  and  C_22
REMARK   11  A    between atoms: C_22  and  C_23
REMARK                            x       y       z     vdW  Elec       q    Type
REMARK                         _______ _______ _______ _____ _____    ______ ____
ROOT
ATOM      1  N   UNL     1       7.830   0.271  27.404  0.00  0.00    -0.308 N 
ATOM      2  H   UNL     1       8.198   0.901  26.697  0.00  0.00    +0.149 HD
ATOM      3  C   UNL     1       7.565  -0.923  26.717  0.00  0.00    +0.219 A 
ATOM      4  N   UNL     1       8.248  -1.106  25.562  0.00  0.00    -0.197 NA
ATOM      5  C   UNL     1       8.034  -2.221  24.785  0.00  0.00    +0.154 A 
ATOM      6  N   UNL     1       8.633  -2.358  23.542  0.00  0.00    -0.312 N 
ATOM      7  C   UNL     1       7.923  -3.077  22.495  0.00  0.00    +0.131 C 
ATOM      8  C   UNL     1       7.113  -3.168  25.291  0.00  0.00    +0.148 A 
ATOM      9  N   UNL     1       6.682  -4.394  24.812  0.00  0.00    -0.231 NA
ATOM     10  C   UNL     1       5.809  -4.817  25.696  0.00  0.00    +0.201 A 
ATOM     11  N   UNL     1       5.639  -3.922  26.715  0.00  0.00    -0.312 N 
ATOM     12  C   UNL     1       6.484  -2.867  26.484  0.00  0.00    +0.167 A 
ATOM     13  N   UNL     1       6.656  -1.769  27.225  0.00  0.00    -0.195 NA
ENDROOT
BRANCH  11  14
ATOM     14  C   UNL     1       4.695  -4.086  27.814  0.00  0.00    +0.084 C 
ATOM     15  C   UNL     1       4.819  -5.450  28.493  0.00  0.00    +0.030 C 
ATOM     16  C   UNL     1       3.257  -3.783  27.403  0.00  0.00    +0.030 C 
ENDBRANCH  11  14
BRANCH   1  17
ATOM     17  CA  UNL     1       6.740   0.802  28.238  0.00  0.00    +0.098 C 
BRANCH  17  18
ATOM     18  C   UNL     1       5.843   1.755  27.407  0.00  0.00    +0.021 C 
ATOM     19  C   UNL     1       4.478   1.202  27.010  0.00  0.00    +0.006 C 
ENDBRANCH  17  18
BRANCH  17  20
ATOM     20  C   UNL     1       7.275   1.502  29.512  0.00  0.00    +0.178 C 
BRANCH  20  21
ATOM     21  O   UNL     1       8.568   1.017  29.884  0.00  0.00    -0.393 OA
ATOM     22  H   UNL     1       8.767   1.360  30.771  0.00  0.00    +0.209 HD
ENDBRANCH  20  21
ENDBRANCH  17  20
ENDBRANCH   1  17
BRANCH   6  23
ATOM     23  C   UNL     1       9.987  -1.886  23.296  0.00  0.00    +0.141 C 
BRANCH  23  24
ATOM     24  C   UNL     1      10.150  -0.376  23.150  0.00  0.00    -0.030 A 
ATOM     25  C   UNL     1       9.665   0.223  21.969  0.00  0.00    +0.005 A 
ATOM     26  C   UNL     1       9.769   1.600  21.754  0.00  0.00    +0.000 A 
ATOM     27  C   UNL     1      10.368   2.410  22.712  0.00  0.00    +0.000 A 
ATOM     28  C   UNL     1      10.863   1.839  23.884  0.00  0.00    +0.000 A 
ATOM     29  C   UNL     1      10.752   0.459  24.102  0.00  0.00    +0.005 A 
ENDBRANCH  23  24
ENDBRANCH   6  23
TORSDOF 7
ENDMDL
MODEL 8
REMARK VINA RESULT:      -5.9      2.151      3.370
REMARK  Name = 
REMARK  11 active torsions:
REMARK  status: ('A' for Active; 'I' for Inactive)
REMARK    1  A    between atoms: CA_2  and  C_3
REMARK    2  A    between atoms: CA_2  and  C_5
REMARK    3  A    between atoms: CA_2  and  N_7
REMARK    4  A    between atoms: C_3  and  C_4
REMARK    5  A    between atoms: C_5  and  O_6
REMARK    6  A    between atoms: N_14  and  C_15
REMARK    7  A    between atoms: C_15  and  C_16
REMARK    8  A    between atoms: C_15  and  C_17
REMARK    9  A    between atoms: N_20  and  C_21
REMARK   10  A    between atoms: N_20  and  C_22
REMARK   11  A    between atoms: C_22  and  C_23
REMARK                            x       y       z     vdW  Elec       q    Type
REMARK                         _______ _______ _______ _____ _____    ______ ____
ROOT
ATOM      1  N   UNL     1       6.676  -4.057  27.485  0.00  0.00    -0.308 N 
ATOM      2  H   UNL     1       6.538  -3.232  28.061  0.00  0.00    +0.149 HD
ATOM      3  C   UNL     1       6.717  -3.575  26.169  0.00  0.00    +0.219 A 
ATOM      4  N   UNL     1       7.045  -2.268  26.028  0.00  0.00    -0.197 NA
ATOM      5  C   UNL     1       7.073  -1.679  24.784  0.00  0.00    +0.154 A 
ATOM      6  N   UNL     1       7.283  -0.316  24.640  0.00  0.00    -0.312 N 
ATOM      7  C   UNL     1       6.644   0.380  23.533  0.00  0.00    +0.131 C 
ATOM      8  C   UNL     1       6.797  -2.524  23.685  0.00  0.00    +0.148 A 
ATOM      9  N   UNL     1       6.768  -2.296  22.320  0.00  0.00    -0.231 NA
ATOM     10  C   UNL     1       6.436  -3.449  21.788  0.00  0.00    +0.201 A 
ATOM     11  N   UNL     1       6.232  -4.410  22.738  0.00  0.00    -0.312 N 
ATOM     12  C   UNL     1       6.480  -3.841  23.961  0.00  0.00    +0.167 A 
ATOM     13  N   UNL     1       6.412  -4.412  25.167  0.00  0.00    -0.195 NA
ENDROOT
BRANCH  11  14
ATOM     14  C   UNL     1       5.799  -5.774  22.459  0.00  0.00    +0.084 C 
ATOM     15  C   UNL     1       6.068  -6.188  21.013  0.00  0.00    +0.030 C 
ATOM     16  C   UNL     1       4.348  -6.023  22.863  0.00  0.00    +0.030 C 
ENDBRANCH  11  14
BRANCH   1  17
ATOM     17  CA  UNL     1       5.762  -5.183  27.741  0.00  0.00    +0.098 C 
BRANCH  17  18
ATOM     18  C   UNL     1       4.407  -4.661  28.284  0.00  0.00    +0.021 C 
ATOM     19  C   UNL     1       3.256  -4.641  27.285  0.00  0.00    +0.006 C 
ENDBRANCH  17  18
BRANCH  17  20
ATOM     20  C   UNL     1       6.387  -6.229  28.698  0.00  0.00    +0.178 C 
BRANCH  20  21
ATOM     21  O   UNL     1       5.727  -7.495  28.607  0.00  0.00    -0.393 OA
ATOM     22  H   UNL     1       5.033  -7.417  27.931  0.00  0.00    +0.209 HD
ENDBRANCH  20  21
ENDBRANCH  17  20
ENDBRANCH   1  17
BRANCH   6  23
ATOM     23  C   UNL     1       8.201   0.407  25.506  0.00  0.00    +0.141 C 
BRANCH  23  24
ATOM     24  C   UNL     1       8.828   1.664  24.912  0.00  0.00    -0.030 A 
ATOM     25  C   UNL     1      10.008   1.511  24.154  0.00  0.00    +0.005 A 
ATOM     26  C   UNL     1      10.646   2.608  23.569  0.00  0.00    +0.000 A 
ATOM     27  C   UNL     1      10.124   3.886  23.735  0.00  0.00    +0.000 A 
ATOM     28  C   UNL     1       8.965   4.063  24.488  0.00  0.00    +0.000 A 
ATOM     29  C   UNL     1       8.320   2.962  25.068  0.00  0.00    +0.005 A 
ENDBRANCH  23  24
ENDBRANCH   6  23
TORSDOF 7
ENDMDL
MODEL 9
REMARK VINA RESULT:      -5.7      4.175      6.164
REMARK  Name = 
REMARK  11 active torsions:
REMARK  status: ('A' for Active; 'I' for Inactive)
REMARK    1  A    between atoms: CA_2  and  C_3
REMARK    2  A    between atoms: CA_2  and  C_5
REMARK    3  A    between atoms: CA_2  and  N_7
REMARK    4  A    between atoms: C_3  and  C_4
REMARK    5  A    between atoms: C_5  and  O_6
REMARK    6  A    between atoms: N_14  and  C_15
REMARK    7  A    between atoms: C_15  and  C_16
REMARK    8  A    between atoms: C_15  and  C_17
REMARK    9  A    between atoms: N_20  and  C_21
REMARK   10  A    between atoms: N_20  and  C_22
REMARK   11  A    between atoms: C_22  and  C_23
REMARK                            x       y       z     vdW  Elec       q    Type
REMARK                         _______ _______ _______ _____ _____    ______ ____
ROOT
ATOM      1  N   UNL     1       7.682   1.246  27.224  0.00  0.00    -0.308 N 
ATOM      2  H   UNL     1       7.497   2.077  26.671  0.00  0.00    +0.149 HD
ATOM      3  C   UNL     1       8.102   0.283  26.297  0.00  0.00    +0.219 A 
ATOM      4  N   UNL     1       8.595   0.761  25.128  0.00  0.00    -0.197 NA
ATOM      5  C   UNL     1       8.996  -0.096  24.129  0.00  0.00    +0.154 A 
ATOM      6  N   UNL     1       9.382   0.381  22.885  0.00  0.00    -0.312 N 
ATOM      7  C   UNL     1       9.118  -0.432  21.708  0.00  0.00    +0.131 C 
ATOM      8  C   UNL     1       8.912  -1.477  24.418  0.00  0.00    +0.148 A 
ATOM      9  N   UNL     1       9.249  -2.603  23.686  0.00  0.00    -0.231 NA
ATOM     10  C   UNL     1       8.936  -3.618  24.458  0.00  0.00    +0.201 A 
ATOM     11  N   UNL     1       8.399  -3.210  25.647  0.00  0.00    -0.312 N 
ATOM     12  C   UNL     1       8.395  -1.838  25.648  0.00  0.00    +0.167 A 
ATOM     13  N   UNL     1       7.967  -1.015  26.609  0.00  0.00    -0.195 NA
ENDROOT
BRANCH  11  14
ATOM     14  C   UNL     1       7.904  -4.105  26.685  0.00  0.00    +0.084 C 
ATOM     15  C   UNL     1       8.315  -5.558  26.449  0.00  0.00    +0.030 C 
ATOM     16  C   UNL     1       6.399  -3.968  26.909  0.00  0.00    +0.030 C 
ENDBRANCH  11  14
BRANCH   1  17
ATOM     17  CA  UNL     1       6.617   0.838  28.154  0.00  0.00    +0.098 C 
BRANCH  17  18
ATOM     18  C   UNL     1       5.232   1.272  27.608  0.00  0.00    +0.021 C 
ATOM     19  C   UNL     1       4.149   1.502  28.656  0.00  0.00    +0.006 C 
ENDBRANCH  17  18
BRANCH  17  20
ATOM     20  C   UNL     1       6.855   1.388  29.584  0.00  0.00    +0.178 C 
BRANCH  20  21
ATOM     21  O   UNL     1       7.898   2.365  29.613  0.00  0.00    -0.393 OA
ATOM     22  H   UNL     1       8.504   2.127  30.335  0.00  0.00    +0.209 HD
ENDBRANCH  20  21
ENDBRANCH  17  20
ENDBRANCH   1  17
BRANCH   6  23
ATOM     23  C   UNL     1      10.128   1.622  22.747  0.00  0.00    +0.141 C 
BRANCH  23  24
ATOM     24  C   UNL     1       9.321   2.906  22.907  0.00  0.00    -0.030 A 
ATOM     25  C   UNL     1       8.104   3.006  22.201  0.00  0.00    +0.005 A 
ATOM     26  C   UNL     1       7.298   4.144  22.293  0.00  0.00    +0.000 A 
ATOM     27  C   UNL     1       7.696   5.214  23.087  0.00  0.00    +0.000 A 
ATOM     28  C   UNL     1       8.900   5.143  23.786  0.00  0.00    +0.000 A 
ATOM     29  C   UNL     1       9.703   3.998  23.699  0.00  0.00    +0.005 A 
ENDBRANCH  23  24
ENDBRANCH   6  23
TORSDOF 7
ENDMDL
