MODEL 1
REMARK VINA RESULT:      -8.8      0.000      0.000
REMARK  Name = 
REMARK  8 active torsions:
REMARK  status: ('A' for Active; 'I' for Inactive)
REMARK    1  A    between atoms: C_1  and  C_2
REMARK    2  A    between atoms: C_4  and  N_5
REMARK    3  A    between atoms: C_6  and  N_8
REMARK    4  A    between atoms: C_12  and  C_13
REMARK    5  A    between atoms: C_13  and  C_14
REMARK    6  A    between atoms: C_14  and  N_15
REMARK    7  A    between atoms: C_20  and  N_21
REMARK    8  A    between atoms: C_29  and  C_31
REMARK                            x       y       z     vdW  Elec       q    Type
REMARK                         _______ _______ _______ _____ _____    ______ ____
ROOT
ATOM      1  N   UNL     1      10.167   0.883  21.891  0.00  0.00    -0.139 NA
ATOM      2  C   UNL     1       9.999  -0.115  22.702  0.00  0.00    +0.165 A 
ATOM      3  S   UNL     1       9.387  -0.041  24.383  0.00  0.00    -0.057 S 
ATOM      4  C   UNL     1       9.243  -1.792  24.460  0.00  0.00    +0.010 A 
ATOM      5  C   UNL     1       9.747  -2.347  23.345  0.00  0.00    +0.095 A 
ATOM      6  N   UNL     1      10.237  -1.446  22.425  0.00  0.00    -0.342 N 
ATOM      7  H   UNL     1      10.437  -1.737  21.478  0.00  0.00    +0.167 HD
ENDROOT
BRANCH   1  10
ATOM      8  N   UNL     1      10.521   2.874  22.973  0.00  0.00    -0.265 N 
ATOM      9  H   UNL     1      11.489   2.588  22.951  0.00  0.00    +0.157 HD
ATOM     10  C   UNL     1       9.632   2.080  22.288  0.00  0.00    +0.330 C 
ATOM     11  O   UNL     1       8.498   2.433  21.980  0.00  0.00    -0.250 OA
BRANCH   8  16
ATOM     12  C   UNL     1       8.025   6.499  25.409  0.00  0.00    +0.086 C 
ATOM     13  C   UNL     1       8.989   5.643  24.695  0.00  0.00    +0.104 A 
ATOM     14  O   UNL     1      10.222   6.157  24.436  0.00  0.00    -0.454 OA
ATOM     15  C   UNL     1      10.933   5.190  23.767  0.00  0.00    +0.229 A 
ATOM     16  C   UNL     1      10.153   4.061  23.594  0.00  0.00    +0.085 A 
ATOM     17  C   UNL     1       8.904   4.363  24.206  0.00  0.00    +0.068 A 
BRANCH  15  18
ATOM     18  C   UNL     1      12.311   5.555  23.361  0.00  0.00    +0.452 C 
ATOM     19  F   UNL     1      12.392   5.901  22.050  0.00  0.00    -0.163 F 
ATOM     20  F   UNL     1      13.197   4.544  23.559  0.00  0.00    -0.163 F 
ATOM     21  F   UNL     1      12.778   6.621  24.070  0.00  0.00    -0.163 F 
ENDBRANCH  15  18
ENDBRANCH   8  16
ENDBRANCH   1  10
BRANCH   4  22
ATOM     22  C   UNL     1       8.598  -2.390  25.663  0.00  0.00    +0.062 C 
BRANCH  22  23
ATOM     23  C   UNL     1       8.673  -3.912  25.797  0.00  0.00    +0.108 C 
BRANCH  23  24
ATOM     24  N   UNL     1       7.313  -4.416  25.717  0.00  0.00    -0.329 N 
ATOM     25  H   UNL     1       6.619  -3.710  25.955  0.00  0.00    +0.147 HD
ATOM     26  C   UNL     1       6.931  -5.027  24.516  0.00  0.00    +0.124 A 
ATOM     27  C   UNL     1       5.631  -5.476  24.459  0.00  0.00    +0.087 A 
ATOM     28  C   UNL     1       5.165  -6.035  23.289  0.00  0.00    +0.130 A 
ATOM     29  N   UNL     1       5.987  -6.200  22.241  0.00  0.00    -0.220 NA
ATOM     30  C   UNL     1       7.257  -5.783  22.408  0.00  0.00    +0.225 A 
ATOM     31  N   UNL     1       7.775  -5.193  23.496  0.00  0.00    -0.221 NA
BRANCH  28  32
ATOM     32  N   UNL     1       3.829  -6.425  23.140  0.00  0.00    -0.267 N 
ATOM     33  H   UNL     1       3.384  -5.926  22.382  0.00  0.00    +0.156 HD
ATOM     34  C   UNL     1       3.075  -7.250  23.886  0.00  0.00    +0.239 A 
ATOM     35  N   UNL     1       1.747  -7.371  23.578  0.00  0.00    -0.202 NA
ATOM     36  C   UNL     1       1.294  -8.214  24.477  0.00  0.00    +0.217 A 
ATOM     37  N   UNL     1       2.311  -8.594  25.287  0.00  0.00    -0.264 N 
ATOM     38  H   UNL     1       2.315  -9.233  26.074  0.00  0.00    +0.190 HD
ATOM     39  N   UNL     1       3.447  -7.990  24.937  0.00  0.00    -0.136 NA
ENDBRANCH  28  32
ENDBRANCH  23  24
ENDBRANCH  22  23
ENDBRANCH   4  22
TORSDOF 7
ENDMDL
MODEL 2
REMARK VINA RESULT:      -8.6      1.312      2.011
REMARK  Name = 
REMARK  8 active torsions:
REMARK  status: ('A' for Active; 'I' for Inactive)
REMARK    1  A    between atoms: C_1  and  C_2
REMARK    2  A    between atoms: C_4  and  N_5
REMARK    3  A    between atoms: C_6  and  N_8
REMARK    4  A    between atoms: C_12  and  C_13
REMARK    5  A    between atoms: C_13  and  C_14
REMARK    6  A    between atoms: C_14  and  N_15
REMARK    7  A    between atoms: C_20  and  N_21
REMARK    8  A    between atoms: C_29  and  C_31
REMARK                            x       y       z     vdW  Elec       q    Type
REMARK                         _______ _______ _______ _____ _____    ______ ____
ROOT
ATOM      1  N   UNL     1      10.170   0.805  21.927  0.00  0.00    -0.139 NA
ATOM      2  C   UNL     1       9.982  -0.171  22.760  0.00  0.00    +0.165 A 
ATOM      3  S   UNL     1       9.354  -0.050  24.432  0.00  0.00    -0.057 S 
ATOM      4  C   UNL     1       9.187  -1.797  24.549  0.00  0.00    +0.010 A 
ATOM      5  C   UNL     1       9.696  -2.384  23.453  0.00  0.00    +0.095 A 
ATOM      6  N   UNL     1      10.207  -1.512  22.517  0.00  0.00    -0.342 N 
ATOM      7  H   UNL     1      10.412  -1.828  21.580  0.00  0.00    +0.167 HD
ENDROOT
BRANCH   1  10
ATOM      8  N   UNL     1      10.503   2.777  23.051  0.00  0.00    -0.265 N 
ATOM      9  H   UNL     1      11.460   2.457  23.104  0.00  0.00    +0.157 HD
ATOM     10  C   UNL     1       9.645   2.017  22.290  0.00  0.00    +0.330 C 
ATOM     11  O   UNL     1       8.553   2.411  21.895  0.00  0.00    -0.250 OA
BRANCH   8  16
ATOM     12  C   UNL     1       7.984   6.425  25.426  0.00  0.00    +0.086 C 
ATOM     13  C   UNL     1       8.953   5.564  24.725  0.00  0.00    +0.104 A 
ATOM     14  O   UNL     1      10.180   6.084  24.451  0.00  0.00    -0.454 OA
ATOM     15  C   UNL     1      10.897   5.111  23.798  0.00  0.00    +0.229 A 
ATOM     16  C   UNL     1      10.127   3.972  23.650  0.00  0.00    +0.085 A 
ATOM     17  C   UNL     1       8.877   4.275  24.261  0.00  0.00    +0.068 A 
BRANCH  15  18
ATOM     18  C   UNL     1      12.270   5.480  23.380  0.00  0.00    +0.452 C 
ATOM     19  F   UNL     1      12.322   5.919  22.095  0.00  0.00    -0.163 F 
ATOM     20  F   UNL     1      13.141   4.442  23.478  0.00  0.00    -0.163 F 
ATOM     21  F   UNL     1      12.778   6.483  24.150  0.00  0.00    -0.163 F 
ENDBRANCH  15  18
ENDBRANCH   8  16
ENDBRANCH   1  10
BRANCH   4  22
ATOM     22  C   UNL     1       8.522  -2.359  25.759  0.00  0.00    +0.062 C 
BRANCH  22  23
ATOM     23  C   UNL     1       8.732  -3.849  26.027  0.00  0.00    +0.108 C 
BRANCH  23  24
ATOM     24  N   UNL     1       7.558  -4.543  25.526  0.00  0.00    -0.329 N 
ATOM     25  H   UNL     1       7.766  -5.135  24.724  0.00  0.00    +0.147 HD
ATOM     26  C   UNL     1       6.819  -5.292  26.451  0.00  0.00    +0.124 A 
ATOM     27  C   UNL     1       5.724  -5.957  25.946  0.00  0.00    +0.087 A 
ATOM     28  C   UNL     1       4.984  -6.761  26.782  0.00  0.00    +0.130 A 
ATOM     29  N   UNL     1       5.285  -6.843  28.088  0.00  0.00    -0.220 NA
ATOM     30  C   UNL     1       6.337  -6.113  28.504  0.00  0.00    +0.225 A 
ATOM     31  N   UNL     1       7.132  -5.341  27.747  0.00  0.00    -0.221 NA
BRANCH  28  32
ATOM     32  N   UNL     1       3.917  -7.533  26.308  0.00  0.00    -0.267 N 
ATOM     33  H   UNL     1       3.636  -8.227  26.987  0.00  0.00    +0.156 HD
ATOM     34  C   UNL     1       3.317  -7.543  25.106  0.00  0.00    +0.239 A 
ATOM     35  N   UNL     1       2.358  -8.491  24.867  0.00  0.00    -0.202 NA
ATOM     36  C   UNL     1       1.986  -8.253  23.630  0.00  0.00    +0.217 A 
ATOM     37  N   UNL     1       2.685  -7.198  23.148  0.00  0.00    -0.264 N 
ATOM     38  H   UNL     1       2.645  -6.749  22.240  0.00  0.00    +0.190 HD
ATOM     39  N   UNL     1       3.540  -6.737  24.061  0.00  0.00    -0.136 NA
ENDBRANCH  28  32
ENDBRANCH  23  24
ENDBRANCH  22  23
ENDBRANCH   4  22
TORSDOF 7
ENDMDL
MODEL 3
REMARK VINA RESULT:      -8.6      4.422      7.601
REMARK  Name = 
REMARK  8 active torsions:
REMARK  status: ('A' for Active; 'I' for Inactive)
REMARK    1  A    between atoms: C_1  and  C_2
REMARK    2  A    between atoms: C_4  and  N_5
REMARK    3  A    between atoms: C_6  and  N_8
REMARK    4  A    between atoms: C_12  and  C_13
REMARK    5  A    between atoms: C_13  and  C_14
REMARK    6  A    between atoms: C_14  and  N_15
REMARK    7  A    between atoms: C_20  and  N_21
REMARK    8  A    between atoms: C_29  and  C_31
REMARK                            x       y       z     vdW  Elec       q    Type
REMARK                         _______ _______ _______ _____ _____    ______ ____
ROOT
ATOM      1  N   UNL     1      10.589  -0.267  23.830  0.00  0.00    -0.139 NA
ATOM      2  C   UNL     1      10.002   0.843  23.506  0.00  0.00    +0.165 A 
ATOM      3  S   UNL     1       8.813   1.084  22.190  0.00  0.00    -0.057 S 
ATOM      4  C   UNL     1       8.429   2.701  22.765  0.00  0.00    +0.010 A 
ATOM      5  C   UNL     1       9.244   3.036  23.780  0.00  0.00    +0.095 A 
ATOM      6  N   UNL     1      10.156   2.065  24.130  0.00  0.00    -0.342 N 
ATOM      7  H   UNL     1      10.661   2.126  25.003  0.00  0.00    +0.167 HD
ENDROOT
BRANCH   1  10
ATOM      8  N   UNL     1       8.930  -1.851  23.809  0.00  0.00    -0.265 N 
ATOM      9  H   UNL     1       8.472  -1.221  24.451  0.00  0.00    +0.157 HD
ATOM     10  C   UNL     1      10.100  -1.403  23.240  0.00  0.00    +0.330 C 
ATOM     11  O   UNL     1      10.614  -1.909  22.249  0.00  0.00    -0.250 OA
BRANCH   8  16
ATOM     12  C   UNL     1       6.349  -5.508  21.514  0.00  0.00    +0.086 C 
ATOM     13  C   UNL     1       7.174  -4.659  22.392  0.00  0.00    +0.104 A 
ATOM     14  O   UNL     1       7.712  -5.232  23.503  0.00  0.00    -0.454 OA
ATOM     15  C   UNL     1       8.425  -4.257  24.157  0.00  0.00    +0.229 A 
ATOM     16  C   UNL     1       8.339  -3.062  23.468  0.00  0.00    +0.085 A 
ATOM     17  C   UNL     1       7.535  -3.337  22.326  0.00  0.00    +0.068 A 
BRANCH  15  18
ATOM     18  C   UNL     1       9.080  -4.664  25.423  0.00  0.00    +0.452 C 
ATOM     19  F   UNL     1       8.547  -5.801  25.942  0.00  0.00    -0.163 F 
ATOM     20  F   UNL     1       8.991  -3.710  26.386  0.00  0.00    -0.163 F 
ATOM     21  F   UNL     1      10.408  -4.909  25.245  0.00  0.00    -0.163 F 
ENDBRANCH  15  18
ENDBRANCH   8  16
ENDBRANCH   1  10
BRANCH   4  22
ATOM     22  C   UNL     1       7.306   3.430  22.111  0.00  0.00    +0.062 C 
BRANCH  22  23
ATOM     23  C   UNL     1       5.912   3.214  22.700  0.00  0.00    +0.108 C 
BRANCH  23  24
ATOM     24  N   UNL     1       5.804   1.805  23.037  0.00  0.00    -0.329 N 
ATOM     25  H   UNL     1       6.483   1.231  22.543  0.00  0.00    +0.147 HD
ATOM     26  C   UNL     1       5.845   1.472  24.396  0.00  0.00    +0.124 A 
ATOM     27  C   UNL     1       5.762   0.128  24.687  0.00  0.00    +0.087 A 
ATOM     28  C   UNL     1       5.856  -0.281  25.998  0.00  0.00    +0.130 A 
ATOM     29  N   UNL     1       5.960   0.622  26.986  0.00  0.00    -0.220 NA
ATOM     30  C   UNL     1       5.976   1.916  26.612  0.00  0.00    +0.225 A 
ATOM     31  N   UNL     1       5.931   2.392  25.358  0.00  0.00    -0.221 NA
BRANCH  28  32
ATOM     32  N   UNL     1       5.871  -1.637  26.347  0.00  0.00    -0.267 N 
ATOM     33  H   UNL     1       6.469  -1.802  27.146  0.00  0.00    +0.156 HD
ATOM     34  C   UNL     1       5.313  -2.698  25.742  0.00  0.00    +0.239 A 
ATOM     35  N   UNL     1       5.582  -3.945  26.238  0.00  0.00    -0.202 NA
ATOM     36  C   UNL     1       4.921  -4.748  25.438  0.00  0.00    +0.217 A 
ATOM     37  N   UNL     1       4.271  -4.015  24.503  0.00  0.00    -0.264 N 
ATOM     38  H   UNL     1       3.671  -4.311  23.742  0.00  0.00    +0.190 HD
ATOM     39  N   UNL     1       4.512  -2.714  24.669  0.00  0.00    -0.136 NA
ENDBRANCH  28  32
ENDBRANCH  23  24
ENDBRANCH  22  23
ENDBRANCH   4  22
TORSDOF 7
ENDMDL
MODEL 4
REMARK VINA RESULT:      -8.4      2.656      3.042
REMARK  Name = 
REMARK  8 active torsions:
REMARK  status: ('A' for Active; 'I' for Inactive)
REMARK    1  A    between atoms: C_1  and  C_2
REMARK    2  A    between atoms: C_4  and  N_5
REMARK    3  A    between atoms: C_6  and  N_8
REMARK    4  A    between atoms: C_12  and  C_13
REMARK    5  A    between atoms: C_13  and  C_14
REMARK    6  A    between atoms: C_14  and  N_15
REMARK    7  A    between atoms: C_20  and  N_21
REMARK    8  A    between atoms: C_29  and  C_31
REMARK                            x       y       z     vdW  Elec       q    Type
REMARK                         _______ _______ _______ _____ _____    ______ ____
ROOT
ATOM      1  N   UNL     1       9.877   1.711  21.859  0.00  0.00    -0.139 NA
ATOM      2  C   UNL     1       9.895   0.443  22.130  0.00  0.00    +0.165 A 
ATOM      3  S   UNL     1      10.320  -0.315  23.695  0.00  0.00    -0.057 S 
ATOM      4  C   UNL     1       9.754  -1.887  23.145  0.00  0.00    +0.010 A 
ATOM      5  C   UNL     1       9.409  -1.826  21.848  0.00  0.00    +0.095 A 
ATOM      6  N   UNL     1       9.564  -0.585  21.269  0.00  0.00    -0.342 N 
ATOM      7  H   UNL     1       9.139  -0.379  20.377  0.00  0.00    +0.167 HD
ENDROOT
BRANCH   1  10
ATOM      8  N   UNL     1       8.791   2.873  23.512  0.00  0.00    -0.265 N 
ATOM      9  H   UNL     1       7.994   2.325  23.222  0.00  0.00    +0.157 HD
ATOM     10  C   UNL     1       9.996   2.558  22.929  0.00  0.00    +0.330 C 
ATOM     11  O   UNL     1      11.082   2.920  23.369  0.00  0.00    -0.250 OA
BRANCH   8  16
ATOM     12  C   UNL     1       9.011   7.086  26.251  0.00  0.00    +0.086 C 
ATOM     13  C   UNL     1       8.784   5.742  25.690  0.00  0.00    +0.104 A 
ATOM     14  O   UNL     1       8.090   4.849  26.446  0.00  0.00    -0.454 OA
ATOM     15  C   UNL     1       8.011   3.682  25.726  0.00  0.00    +0.229 A 
ATOM     16  C   UNL     1       8.661   3.827  24.514  0.00  0.00    +0.085 A 
ATOM     17  C   UNL     1       9.148   5.164  24.499  0.00  0.00    +0.068 A 
BRANCH  15  18
ATOM     18  C   UNL     1       7.309   2.554  26.383  0.00  0.00    +0.452 C 
ATOM     19  F   UNL     1       7.225   2.709  27.730  0.00  0.00    -0.163 F 
ATOM     20  F   UNL     1       7.918   1.360  26.159  0.00  0.00    -0.163 F 
ATOM     21  F   UNL     1       6.031   2.426  25.929  0.00  0.00    -0.163 F 
ENDBRANCH  15  18
ENDBRANCH   8  16
ENDBRANCH   1  10
BRANCH   4  22
ATOM     22  C   UNL     1       9.710  -3.002  24.133  0.00  0.00    +0.062 C 
BRANCH  22  23
ATOM     23  C   UNL     1       8.592  -2.952  25.175  0.00  0.00    +0.108 C 
BRANCH  23  24
ATOM     24  N   UNL     1       7.882  -4.217  25.100  0.00  0.00    -0.329 N 
ATOM     25  H   UNL     1       7.632  -4.581  26.018  0.00  0.00    +0.147 HD
ATOM     26  C   UNL     1       6.748  -4.261  24.280  0.00  0.00    +0.124 A 
ATOM     27  C   UNL     1       6.080  -5.465  24.244  0.00  0.00    +0.087 A 
ATOM     28  C   UNL     1       4.922  -5.568  23.507  0.00  0.00    +0.130 A 
ATOM     29  N   UNL     1       4.485  -4.528  22.779  0.00  0.00    -0.220 NA
ATOM     30  C   UNL     1       5.234  -3.409  22.830  0.00  0.00    +0.225 A 
ATOM     31  N   UNL     1       6.347  -3.216  23.554  0.00  0.00    -0.221 NA
BRANCH  28  32
ATOM     32  N   UNL     1       4.152  -6.737  23.505  0.00  0.00    -0.267 N 
ATOM     33  H   UNL     1       4.177  -7.191  22.602  0.00  0.00    +0.156 HD
ATOM     34  C   UNL     1       3.352  -7.253  24.452  0.00  0.00    +0.239 A 
ATOM     35  N   UNL     1       2.615  -8.365  24.144  0.00  0.00    -0.202 NA
ATOM     36  C   UNL     1       1.940  -8.607  25.244  0.00  0.00    +0.217 A 
ATOM     37  N   UNL     1       2.266  -7.684  26.181  0.00  0.00    -0.264 N 
ATOM     38  H   UNL     1       1.939  -7.579  27.135  0.00  0.00    +0.190 HD
ATOM     39  N   UNL     1       3.151  -6.811  25.699  0.00  0.00    -0.136 NA
ENDBRANCH  28  32
ENDBRANCH  23  24
ENDBRANCH  22  23
ENDBRANCH   4  22
TORSDOF 7
ENDMDL
MODEL 5
REMARK VINA RESULT:      -8.3      5.373     10.078
REMARK  Name = 
REMARK  8 active torsions:
REMARK  status: ('A' for Active; 'I' for Inactive)
REMARK    1  A    between atoms: C_1  and  C_2
REMARK    2  A    between atoms: C_4  and  N_5
REMARK    3  A    between atoms: C_6  and  N_8
REMARK    4  A    between atoms: C_12  and  C_13
REMARK    5  A    between atoms: C_13  and  C_14
REMARK    6  A    between atoms: C_14  and  N_15
REMARK    7  A    between atoms: C_20  and  N_21
REMARK    8  A    between atoms: C_29  and  C_31
REMARK                            x       y       z     vdW  Elec       q    Type
REMARK                         _______ _______ _______ _____ _____    ______ ____
ROOT
ATOM      1  N   UNL     1       8.275  -3.175  26.349  0.00  0.00    -0.139 NA
ATOM      2  C   UNL     1       8.778  -2.345  25.489  0.00  0.00    +0.165 A 
ATOM      3  S   UNL     1       9.084  -2.653  23.752  0.00  0.00    -0.057 S 
ATOM      4  C   UNL     1       9.422  -0.951  23.459  0.00  0.00    +0.010 A 
ATOM      5  C   UNL     1       9.422  -0.274  24.619  0.00  0.00    +0.095 A 
ATOM      6  N   UNL     1       9.158  -1.040  25.734  0.00  0.00    -0.342 N 
ATOM      7  H   UNL     1       8.924  -0.603  26.613  0.00  0.00    +0.167 HD
ENDROOT
BRANCH   1  10
ATOM      8  N   UNL     1       6.484  -4.150  25.299  0.00  0.00    -0.265 N 
ATOM      9  H   UNL     1       6.177  -3.197  25.176  0.00  0.00    +0.157 HD
ATOM     10  C   UNL     1       7.739  -4.325  25.834  0.00  0.00    +0.330 C 
ATOM     11  O   UNL     1       8.362  -5.381  25.781  0.00  0.00    -0.250 OA
BRANCH   8  16
ATOM     12  C   UNL     1       3.086  -7.841  24.937  0.00  0.00    +0.086 C 
ATOM     13  C   UNL     1       4.151  -6.840  24.750  0.00  0.00    +0.104 A 
ATOM     14  O   UNL     1       4.795  -6.815  23.552  0.00  0.00    -0.454 OA
ATOM     15  C   UNL     1       5.735  -5.815  23.616  0.00  0.00    +0.229 A 
ATOM     16  C   UNL     1       5.695  -5.205  24.857  0.00  0.00    +0.085 A 
ATOM     17  C   UNL     1       4.662  -5.870  25.576  0.00  0.00    +0.068 A 
BRANCH  15  18
ATOM     18  C   UNL     1       6.577  -5.631  22.411  0.00  0.00    +0.452 C 
ATOM     19  F   UNL     1       6.617  -4.337  21.998  0.00  0.00    -0.163 F 
ATOM     20  F   UNL     1       6.146  -6.370  21.356  0.00  0.00    -0.163 F 
ATOM     21  F   UNL     1       7.868  -6.001  22.640  0.00  0.00    -0.163 F 
ENDBRANCH  15  18
ENDBRANCH   8  16
ENDBRANCH   1  10
BRANCH   4  22
ATOM     22  C   UNL     1       9.625  -0.509  22.051  0.00  0.00    +0.062 C 
BRANCH  22  23
ATOM     23  C   UNL     1       9.939   0.972  21.835  0.00  0.00    +0.108 C 
BRANCH  23  24
ATOM     24  N   UNL     1       8.704   1.616  21.425  0.00  0.00    -0.329 N 
ATOM     25  H   UNL     1       7.950   0.951  21.264  0.00  0.00    +0.147 HD
ATOM     26  C   UNL     1       8.221   2.645  22.244  0.00  0.00    +0.124 A 
ATOM     27  C   UNL     1       7.037   3.224  21.845  0.00  0.00    +0.087 A 
ATOM     28  C   UNL     1       6.470   4.201  22.631  0.00  0.00    +0.130 A 
ATOM     29  N   UNL     1       7.097   4.631  23.739  0.00  0.00    -0.220 NA
ATOM     30  C   UNL     1       8.278   4.047  24.019  0.00  0.00    +0.225 A 
ATOM     31  N   UNL     1       8.875   3.063  23.329  0.00  0.00    -0.221 NA
BRANCH  28  32
ATOM     32  N   UNL     1       5.224   4.761  22.327  0.00  0.00    -0.267 N 
ATOM     33  H   UNL     1       5.326   5.670  21.896  0.00  0.00    +0.156 HD
ATOM     34  C   UNL     1       3.983   4.326  22.602  0.00  0.00    +0.239 A 
ATOM     35  N   UNL     1       2.926   5.135  22.284  0.00  0.00    -0.202 NA
ATOM     36  C   UNL     1       1.879   4.452  22.685  0.00  0.00    +0.217 A 
ATOM     37  N   UNL     1       2.288   3.273  23.213  0.00  0.00    -0.264 N 
ATOM     38  H   UNL     1       1.748   2.512  23.607  0.00  0.00    +0.190 HD
ATOM     39  N   UNL     1       3.618   3.175  23.180  0.00  0.00    -0.136 NA
ENDBRANCH  28  32
ENDBRANCH  23  24
ENDBRANCH  22  23
ENDBRANCH   4  22
TORSDOF 7
ENDMDL
MODEL 6
REMARK VINA RESULT:      -8.2      2.166      2.889
REMARK  Name = 
REMARK  8 active torsions:
REMARK  status: ('A' for Active; 'I' for Inactive)
REMARK    1  A    between atoms: C_1  and  C_2
REMARK    2  A    between atoms: C_4  and  N_5
REMARK    3  A    between atoms: C_6  and  N_8
REMARK    4  A    between atoms: C_12  and  C_13
REMARK    5  A    between atoms: C_13  and  C_14
REMARK    6  A    between atoms: C_14  and  N_15
REMARK    7  A    between atoms: C_20  and  N_21
REMARK    8  A    between atoms: C_29  and  C_31
REMARK                            x       y       z     vdW  Elec       q    Type
REMARK                         _______ _______ _______ _____ _____    ______ ____
ROOT
ATOM      1  N   UNL     1       9.648   1.672  21.893  0.00  0.00    -0.139 NA
ATOM      2  C   UNL     1       9.725   0.413  22.193  0.00  0.00    +0.165 A 
ATOM      3  S   UNL     1      10.010  -0.289  23.815  0.00  0.00    -0.057 S 
ATOM      4  C   UNL     1       9.631  -1.907  23.236  0.00  0.00    +0.010 A 
ATOM      5  C   UNL     1       9.443  -1.889  21.906  0.00  0.00    +0.095 A 
ATOM      6  N   UNL     1       9.577  -0.648  21.322  0.00  0.00    -0.342 N 
ATOM      7  H   UNL     1       9.250  -0.487  20.380  0.00  0.00    +0.167 HD
ENDROOT
BRANCH   1  10
ATOM      8  N   UNL     1       8.283   2.808  23.346  0.00  0.00    -0.265 N 
ATOM      9  H   UNL     1       7.562   2.219  22.956  0.00  0.00    +0.157 HD
ATOM     10  C   UNL     1       9.573   2.540  22.950  0.00  0.00    +0.330 C 
ATOM     11  O   UNL     1      10.567   2.959  23.534  0.00  0.00    -0.250 OA
BRANCH   8  16
ATOM     12  C   UNL     1       7.190   5.217  27.624  0.00  0.00    +0.086 C 
ATOM     13  C   UNL     1       7.490   4.795  26.244  0.00  0.00    +0.104 A 
ATOM     14  O   UNL     1       7.501   5.752  25.277  0.00  0.00    -0.454 OA
ATOM     15  C   UNL     1       7.796   5.126  24.090  0.00  0.00    +0.229 A 
ATOM     16  C   UNL     1       7.968   3.770  24.298  0.00  0.00    +0.085 A 
ATOM     17  C   UNL     1       7.777   3.571  25.694  0.00  0.00    +0.068 A 
BRANCH  15  18
ATOM     18  C   UNL     1       7.834   5.991  22.887  0.00  0.00    +0.452 C 
ATOM     19  F   UNL     1       7.013   7.068  22.995  0.00  0.00    -0.163 F 
ATOM     20  F   UNL     1       7.470   5.328  21.758  0.00  0.00    -0.163 F 
ATOM     21  F   UNL     1       9.084   6.482  22.660  0.00  0.00    -0.163 F 
ENDBRANCH  15  18
ENDBRANCH   8  16
ENDBRANCH   1  10
BRANCH   4  22
ATOM     22  C   UNL     1       9.548  -3.008  24.236  0.00  0.00    +0.062 C 
BRANCH  22  23
ATOM     23  C   UNL     1       8.465  -2.882  25.308  0.00  0.00    +0.108 C 
BRANCH  23  24
ATOM     24  N   UNL     1       7.367  -3.746  24.910  0.00  0.00    -0.329 N 
ATOM     25  H   UNL     1       7.573  -4.279  24.068  0.00  0.00    +0.147 HD
ATOM     26  C   UNL     1       6.865  -4.622  25.880  0.00  0.00    +0.124 A 
ATOM     27  C   UNL     1       5.839  -5.445  25.471  0.00  0.00    +0.087 A 
ATOM     28  C   UNL     1       5.333  -6.375  26.351  0.00  0.00    +0.130 A 
ATOM     29  N   UNL     1       5.789  -6.434  27.613  0.00  0.00    -0.220 NA
ATOM     30  C   UNL     1       6.753  -5.552  27.940  0.00  0.00    +0.225 A 
ATOM     31  N   UNL     1       7.325  -4.647  27.132  0.00  0.00    -0.221 NA
BRANCH  28  32
ATOM     32  N   UNL     1       4.355  -7.299  25.966  0.00  0.00    -0.267 N 
ATOM     33  H   UNL     1       4.343  -8.099  26.584  0.00  0.00    +0.156 HD
ATOM     34  C   UNL     1       3.548  -7.314  24.893  0.00  0.00    +0.239 A 
ATOM     35  N   UNL     1       2.751  -8.410  24.695  0.00  0.00    -0.202 NA
ATOM     36  C   UNL     1       2.111  -8.134  23.582  0.00  0.00    +0.217 A 
ATOM     37  N   UNL     1       2.499  -6.917  23.133  0.00  0.00    -0.264 N 
ATOM     38  H   UNL     1       2.203  -6.399  22.313  0.00  0.00    +0.190 HD
ATOM     39  N   UNL     1       3.415  -6.382  23.942  0.00  0.00    -0.136 NA
ENDBRANCH  28  32
ENDBRANCH  23  24
ENDBRANCH  22  23
ENDBRANCH   4  22
TORSDOF 7
ENDMDL
MODEL 7
REMARK VINA RESULT:      -8.1      3.023      4.070
REMARK  Name = 
REMARK  8 active torsions:
REMARK  status: ('A' for Active; 'I' for Inactive)
REMARK    1  A    between atoms: C_1  and  C_2
REMARK    2  A    between atoms: C_4  and  N_5
REMARK    3  A    between atoms: C_6  and  N_8
REMARK    4  A    between atoms: C_12  and  C_13
REMARK    5  A    between atoms: C_13  and  C_14
REMARK    6  A    between atoms: C_14  and  N_15
REMARK    7  A    between atoms: C_20  and  N_21
REMARK    8  A    between atoms: C_29  and  C_31
REMARK                            x       y       z     vdW  Elec       q    Type
REMARK                         _______ _______ _______ _____ _____    ______ ____
ROOT
ATOM      1  N   UNL     1       6.704  -1.519  22.545  0.00  0.00    -0.139 NA
ATOM      2  C   UNL     1       7.261  -2.629  22.920  0.00  0.00    +0.165 A 
ATOM      3  S   UNL     1       8.658  -2.809  24.025  0.00  0.00    -0.057 S 
ATOM      4  C   UNL     1       8.419  -4.550  24.123  0.00  0.00    +0.010 A 
ATOM      5  C   UNL     1       7.446  -4.930  23.278  0.00  0.00    +0.095 A 
ATOM      6  N   UNL     1       6.873  -3.904  22.560  0.00  0.00    -0.342 N 
ATOM      7  H   UNL     1       6.003  -4.046  22.067  0.00  0.00    +0.167 HD
ENDROOT
BRANCH   1  10
ATOM      8  N   UNL     1       7.924   0.423  22.487  0.00  0.00    -0.265 N 
ATOM      9  H   UNL     1       8.008   0.211  21.504  0.00  0.00    +0.157 HD
ATOM     10  C   UNL     1       7.092  -0.392  23.220  0.00  0.00    +0.330 C 
ATOM     11  O   UNL     1       6.663  -0.105  24.333  0.00  0.00    -0.250 OA
BRANCH   8  16
ATOM     12  C   UNL     1       9.148   5.106  23.857  0.00  0.00    +0.086 C 
ATOM     13  C   UNL     1       9.046   3.656  23.613  0.00  0.00    +0.104 A 
ATOM     14  O   UNL     1      10.018   2.856  24.130  0.00  0.00    -0.454 OA
ATOM     15  C   UNL     1       9.715   1.565  23.772  0.00  0.00    +0.229 A 
ATOM     16  C   UNL     1       8.553   1.540  23.023  0.00  0.00    +0.085 A 
ATOM     17  C   UNL     1       8.127   2.895  22.935  0.00  0.00    +0.068 A 
BRANCH  15  18
ATOM     18  C   UNL     1      10.670   0.522  24.216  0.00  0.00    +0.452 C 
ATOM     19  F   UNL     1      10.900  -0.413  23.258  0.00  0.00    -0.163 F 
ATOM     20  F   UNL     1      10.241  -0.141  25.321  0.00  0.00    -0.163 F 
ATOM     21  F   UNL     1      11.884   1.054  24.533  0.00  0.00    -0.163 F 
ENDBRANCH  15  18
ENDBRANCH   8  16
ENDBRANCH   1  10
BRANCH   4  22
ATOM     22  C   UNL     1       9.255  -5.319  25.087  0.00  0.00    +0.062 C 
BRANCH  22  23
ATOM     23  C   UNL     1       9.104  -4.960  26.566  0.00  0.00    +0.108 C 
BRANCH  23  24
ATOM     24  N   UNL     1       7.956  -5.692  27.069  0.00  0.00    -0.329 N 
ATOM     25  H   UNL     1       8.170  -6.232  27.905  0.00  0.00    +0.147 HD
ATOM     26  C   UNL     1       6.786  -4.958  27.302  0.00  0.00    +0.124 A 
ATOM     27  C   UNL     1       5.719  -5.673  27.800  0.00  0.00    +0.087 A 
ATOM     28  C   UNL     1       4.554  -5.008  28.110  0.00  0.00    +0.130 A 
ATOM     29  N   UNL     1       4.437  -3.692  27.869  0.00  0.00    -0.220 NA
ATOM     30  C   UNL     1       5.512  -3.088  27.328  0.00  0.00    +0.225 A 
ATOM     31  N   UNL     1       6.693  -3.654  27.037  0.00  0.00    -0.221 NA
BRANCH  28  32
ATOM     32  N   UNL     1       3.468  -5.663  28.704  0.00  0.00    -0.267 N 
ATOM     33  H   UNL     1       3.365  -5.396  29.674  0.00  0.00    +0.156 HD
ATOM     34  C   UNL     1       2.655  -6.615  28.218  0.00  0.00    +0.239 A 
ATOM     35  N   UNL     1       1.731  -7.172  29.061  0.00  0.00    -0.202 NA
ATOM     36  C   UNL     1       1.119  -8.059  28.311  0.00  0.00    +0.217 A 
ATOM     37  N   UNL     1       1.646  -8.030  27.064  0.00  0.00    -0.264 N 
ATOM     38  H   UNL     1       1.408  -8.574  26.242  0.00  0.00    +0.190 HD
ATOM     39  N   UNL     1       2.627  -7.131  26.983  0.00  0.00    -0.136 NA
ENDBRANCH  28  32
ENDBRANCH  23  24
ENDBRANCH  22  23
ENDBRANCH   4  22
TORSDOF 7
ENDMDL
MODEL 8
REMARK VINA RESULT:      -8.1      5.630     11.615
REMARK  Name = 
REMARK  8 active torsions:
REMARK  status: ('A' for Active; 'I' for Inactive)
REMARK    1  A    between atoms: C_1  and  C_2
REMARK    2  A    between atoms: C_4  and  N_5
REMARK    3  A    between atoms: C_6  and  N_8
REMARK    4  A    between atoms: C_12  and  C_13
REMARK    5  A    between atoms: C_13  and  C_14
REMARK    6  A    between atoms: C_14  and  N_15
REMARK    7  A    between atoms: C_20  and  N_21
REMARK    8  A    between atoms: C_29  and  C_31
REMARK                            x       y       z     vdW  Elec       q    Type
REMARK                         _______ _______ _______ _____ _____    ______ ____
ROOT
ATOM      1  N   UNL     1       7.552  -5.925  27.489  0.00  0.00    -0.139 NA
ATOM      2  C   UNL     1       8.074  -5.290  26.486  0.00  0.00    +0.165 A 
ATOM      3  S   UNL     1       7.199  -4.366  25.227  0.00  0.00    -0.057 S 
ATOM      4  C   UNL     1       8.701  -3.693  24.606  0.00  0.00    +0.010 A 
ATOM      5  C   UNL     1       9.750  -4.247  25.236  0.00  0.00    +0.095 A 
ATOM      6  N   UNL     1       9.420  -5.177  26.198  0.00  0.00    -0.342 N 
ATOM      7  H   UNL     1      10.108  -5.488  26.869  0.00  0.00    +0.167 HD
ENDROOT
BRANCH   1  10
ATOM      8  N   UNL     1       5.416  -6.756  27.378  0.00  0.00    -0.265 N 
ATOM      9  H   UNL     1       5.884  -7.627  27.174  0.00  0.00    +0.157 HD
ATOM     10  C   UNL     1       6.221  -5.695  27.722  0.00  0.00    +0.330 C 
ATOM     11  O   UNL     1       5.810  -4.675  28.265  0.00  0.00    -0.250 OA
BRANCH   8  16
ATOM     12  C   UNL     1       0.582  -6.657  28.762  0.00  0.00    +0.086 C 
ATOM     13  C   UNL     1       1.883  -6.644  28.071  0.00  0.00    +0.104 A 
ATOM     14  O   UNL     1       1.881  -6.492  26.719  0.00  0.00    -0.454 OA
ATOM     15  C   UNL     1       3.191  -6.516  26.305  0.00  0.00    +0.229 A 
ATOM     16  C   UNL     1       4.029  -6.689  27.391  0.00  0.00    +0.085 A 
ATOM     17  C   UNL     1       3.173  -6.762  28.525  0.00  0.00    +0.068 A 
BRANCH  15  18
ATOM     18  C   UNL     1       3.418  -6.390  24.845  0.00  0.00    +0.452 C 
ATOM     19  F   UNL     1       4.251  -7.350  24.365  0.00  0.00    -0.163 F 
ATOM     20  F   UNL     1       3.957  -5.191  24.504  0.00  0.00    -0.163 F 
ATOM     21  F   UNL     1       2.255  -6.504  24.144  0.00  0.00    -0.163 F 
ENDBRANCH  15  18
ENDBRANCH   8  16
ENDBRANCH   1  10
BRANCH   4  22
ATOM     22  C   UNL     1       8.617  -2.647  23.549  0.00  0.00    +0.062 C 
BRANCH  22  23
ATOM     23  C   UNL     1       9.942  -2.096  23.022  0.00  0.00    +0.108 C 
BRANCH  23  24
ATOM     24  N   UNL     1      10.168  -0.821  23.681  0.00  0.00    -0.329 N 
ATOM     25  H   UNL     1      11.150  -0.658  23.893  0.00  0.00    +0.147 HD
ATOM     26  C   UNL     1       9.654   0.320  23.051  0.00  0.00    +0.124 A 
ATOM     27  C   UNL     1       9.901   1.517  23.685  0.00  0.00    +0.087 A 
ATOM     28  C   UNL     1       9.479   2.687  23.095  0.00  0.00    +0.130 A 
ATOM     29  N   UNL     1       8.778   2.657  21.951  0.00  0.00    -0.220 NA
ATOM     30  C   UNL     1       8.535   1.438  21.433  0.00  0.00    +0.225 A 
ATOM     31  N   UNL     1       8.946   0.258  21.922  0.00  0.00    -0.221 NA
BRANCH  28  32
ATOM     32  N   UNL     1       9.780   3.939  23.645  0.00  0.00    -0.267 N 
ATOM     33  H   UNL     1       8.947   4.398  23.989  0.00  0.00    +0.156 HD
ATOM     34  C   UNL     1      10.939   4.616  23.686  0.00  0.00    +0.239 A 
ATOM     35  N   UNL     1      10.931   5.888  24.190  0.00  0.00    -0.202 NA
ATOM     36  C   UNL     1      12.180   6.276  24.079  0.00  0.00    +0.217 A 
ATOM     37  N   UNL     1      12.914   5.273  23.540  0.00  0.00    -0.264 N 
ATOM     38  H   UNL     1      13.904   5.232  23.324  0.00  0.00    +0.190 HD
ATOM     39  N   UNL     1      12.148   4.215  23.273  0.00  0.00    -0.136 NA
ENDBRANCH  28  32
ENDBRANCH  23  24
ENDBRANCH  22  23
ENDBRANCH   4  22
TORSDOF 7
ENDMDL
MODEL 9
REMARK VINA RESULT:      -7.8      3.225      5.127
REMARK  Name = 
REMARK  8 active torsions:
REMARK  status: ('A' for Active; 'I' for Inactive)
REMARK    1  A    between atoms: C_1  and  C_2
REMARK    2  A    between atoms: C_4  and  N_5
REMARK    3  A    between atoms: C_6  and  N_8
REMARK    4  A    between atoms: C_12  and  C_13
REMARK    5  A    between atoms: C_13  and  C_14
REMARK    6  A    between atoms: C_14  and  N_15
REMARK    7  A    between atoms: C_20  and  N_21
REMARK    8  A    between atoms: C_29  and  C_31
REMARK                            x       y       z     vdW  Elec       q    Type
REMARK                         _______ _______ _______ _____ _____    ______ ____
ROOT
ATOM      1  N   UNL     1       6.886   5.547  25.832  0.00  0.00    -0.139 NA
ATOM      2  C   UNL     1       6.381   4.466  26.340  0.00  0.00    +0.165 A 
ATOM      3  S   UNL     1       7.180   2.870  26.479  0.00  0.00    -0.057 S 
ATOM      4  C   UNL     1       5.892   2.259  27.510  0.00  0.00    +0.010 A 
ATOM      5  C   UNL     1       4.906   3.167  27.604  0.00  0.00    +0.095 A 
ATOM      6  N   UNL     1       5.127   4.332  26.902  0.00  0.00    -0.342 N 
ATOM      7  H   UNL     1       4.561   5.151  27.076  0.00  0.00    +0.167 HD
ENDROOT
BRANCH   1  10
ATOM      8  N   UNL     1       8.524   5.024  24.313  0.00  0.00    -0.265 N 
ATOM      9  H   UNL     1       7.747   4.915  23.678  0.00  0.00    +0.157 HD
ATOM     10  C   UNL     1       8.229   5.516  25.563  0.00  0.00    +0.330 C 
ATOM     11  O   UNL     1       9.069   5.969  26.334  0.00  0.00    -0.250 OA
BRANCH   8  16
ATOM     12  C   UNL     1      13.323   5.446  22.866  0.00  0.00    +0.086 C 
ATOM     13  C   UNL     1      11.967   5.017  23.254  0.00  0.00    +0.104 A 
ATOM     14  O   UNL     1      11.693   3.685  23.232  0.00  0.00    -0.454 OA
ATOM     15  C   UNL     1      10.385   3.532  23.623  0.00  0.00    +0.229 A 
ATOM     16  C   UNL     1       9.821   4.767  23.887  0.00  0.00    +0.085 A 
ATOM     17  C   UNL     1      10.856   5.716  23.654  0.00  0.00    +0.068 A 
BRANCH  15  18
ATOM     18  C   UNL     1       9.866   2.144  23.644  0.00  0.00    +0.452 C 
ATOM     19  F   UNL     1      10.459   1.353  22.713  0.00  0.00    -0.163 F 
ATOM     20  F   UNL     1       8.528   2.085  23.419  0.00  0.00    -0.163 F 
ATOM     21  F   UNL     1      10.081   1.546  24.850  0.00  0.00    -0.163 F 
ENDBRANCH  15  18
ENDBRANCH   8  16
ENDBRANCH   1  10
BRANCH   4  22
ATOM     22  C   UNL     1       6.064   0.913  28.125  0.00  0.00    +0.062 C 
BRANCH  22  23
ATOM     23  C   UNL     1       7.135   0.010  27.512  0.00  0.00    +0.108 C 
BRANCH  23  24
ATOM     24  N   UNL     1       6.504  -0.730  26.433  0.00  0.00    -0.329 N 
ATOM     25  H   UNL     1       5.770  -0.199  25.970  0.00  0.00    +0.147 HD
ATOM     26  C   UNL     1       7.348  -1.269  25.454  0.00  0.00    +0.124 A 
ATOM     27  C   UNL     1       6.723  -1.948  24.432  0.00  0.00    +0.087 A 
ATOM     28  C   UNL     1       7.483  -2.455  23.401  0.00  0.00    +0.130 A 
ATOM     29  N   UNL     1       8.821  -2.347  23.426  0.00  0.00    -0.220 NA
ATOM     30  C   UNL     1       9.348  -1.718  24.494  0.00  0.00    +0.225 A 
ATOM     31  N   UNL     1       8.677  -1.162  25.514  0.00  0.00    -0.221 NA
BRANCH  28  32
ATOM     32  N   UNL     1       6.897  -3.072  22.290  0.00  0.00    -0.267 N 
ATOM     33  H   UNL     1       6.493  -2.391  21.662  0.00  0.00    +0.156 HD
ATOM     34  C   UNL     1       6.723  -4.374  22.010  0.00  0.00    +0.239 A 
ATOM     35  N   UNL     1       6.008  -4.707  20.890  0.00  0.00    -0.202 NA
ATOM     36  C   UNL     1       6.000  -6.020  20.905  0.00  0.00    +0.217 A 
ATOM     37  N   UNL     1       6.691  -6.460  21.983  0.00  0.00    -0.264 N 
ATOM     38  H   UNL     1       6.885  -7.406  22.292  0.00  0.00    +0.190 HD
ATOM     39  N   UNL     1       7.150  -5.436  22.703  0.00  0.00    -0.136 NA
ENDBRANCH  28  32
ENDBRANCH  23  24
ENDBRANCH  22  23
ENDBRANCH   4  22
TORSDOF 7
ENDMDL
