MODEL 1
REMARK VINA RESULT:      -5.8      0.000      0.000
REMARK  Name = 
REMARK  3 active torsions:
REMARK  status: ('A' for Active; 'I' for Inactive)
REMARK    1  A    between atoms: O_1  and  C_2
REMARK    2  A    between atoms: C_2  and  C_3
REMARK    3  A    between atoms: C_18  and  O_20
REMARK                            x       y       z     vdW  Elec       q    Type
REMARK                         _______ _______ _______ _____ _____    ______ ____
ROOT
ATOM      1  C   UNL     1       8.697   2.035  23.110  0.00  0.00    +0.178 C 
ATOM      2  C   UNL     1      10.227   1.987  23.018  0.00  0.00    +0.190 C 
ATOM      3  C   UNL     1      10.591   0.762  23.813  0.00  0.00    +0.257 C 
ATOM      4  O   UNL     1      10.529  -0.455  23.047  0.00  0.00    -0.453 OA
ATOM      5  C   UNL     1       9.914  -1.371  23.853  0.00  0.00    +0.304 A 
ATOM      6  N   UNL     1       9.318  -0.759  24.915  0.00  0.00    -0.272 N 
ATOM      7  C   UNL     1       8.684  -1.518  25.853  0.00  0.00    +0.098 A 
ATOM      8  C   UNL     1       8.663  -2.849  25.716  0.00  0.00    +0.090 A 
ATOM      9  C   UNL     1       9.310  -3.459  24.507  0.00  0.00    +0.276 A 
ATOM     10  O   UNL     1       9.261  -4.679  24.385  0.00  0.00    -0.266 OA
ATOM     11  N   UNL     1       9.939  -2.629  23.597  0.00  0.00    -0.157 NA
ATOM     12  C   UNL     1       9.465   0.663  24.831  0.00  0.00    +0.267 C 
ATOM     13  O   UNL     1       8.298   1.268  24.268  0.00  0.00    -0.344 OA
ENDROOT
BRANCH   2  14
ATOM     14  O   UNL     1      10.781   3.127  23.693  0.00  0.00    -0.385 OA
ATOM     15  H   UNL     1      11.743   2.982  23.760  0.00  0.00    +0.210 HD
ENDBRANCH   2  14
BRANCH   1  16
ATOM     16  C   UNL     1       8.010   1.467  21.864  0.00  0.00    +0.190 C 
BRANCH  16  17
ATOM     17  O   UNL     1       8.979   1.113  20.883  0.00  0.00    -0.392 OA
ATOM     18  H   UNL     1       9.241   0.191  21.059  0.00  0.00    +0.210 HD
ENDBRANCH  16  17
ENDBRANCH   1  16
TORSDOF 3
ENDMDL
MODEL 2
REMARK VINA RESULT:      -5.7      2.566      2.756
REMARK  Name = 
REMARK  3 active torsions:
REMARK  status: ('A' for Active; 'I' for Inactive)
REMARK    1  A    between atoms: O_1  and  C_2
REMARK    2  A    between atoms: C_2  and  C_3
REMARK    3  A    between atoms: C_18  and  O_20
REMARK                            x       y       z     vdW  Elec       q    Type
REMARK                         _______ _______ _______ _____ _____    ______ ____
ROOT
ATOM      1  C   UNL     1       9.303   0.931  23.402  0.00  0.00    +0.178 C 
ATOM      2  C   UNL     1      10.281  -0.073  24.023  0.00  0.00    +0.190 C 
ATOM      3  C   UNL     1       9.443  -1.309  24.216  0.00  0.00    +0.257 C 
ATOM      4  O   UNL     1       9.371  -2.139  23.043  0.00  0.00    -0.453 OA
ATOM      5  C   UNL     1       8.062  -2.515  22.933  0.00  0.00    +0.304 A 
ATOM      6  N   UNL     1       7.270  -1.752  23.740  0.00  0.00    -0.272 N 
ATOM      7  C   UNL     1       5.932  -2.007  23.794  0.00  0.00    +0.098 A 
ATOM      8  C   UNL     1       5.423  -3.002  23.058  0.00  0.00    +0.090 A 
ATOM      9  C   UNL     1       6.342  -3.783  22.166  0.00  0.00    +0.276 A 
ATOM     10  O   UNL     1       5.855  -4.677  21.481  0.00  0.00    -0.266 OA
ATOM     11  N   UNL     1       7.691  -3.474  22.164  0.00  0.00    -0.157 NA
ATOM     12  C   UNL     1       8.042  -0.750  24.410  0.00  0.00    +0.267 C 
ATOM     13  O   UNL     1       7.960   0.504  23.727  0.00  0.00    -0.344 OA
ENDROOT
BRANCH   2  14
ATOM     14  O   UNL     1      10.680   0.392  25.321  0.00  0.00    -0.385 OA
ATOM     15  H   UNL     1      11.654   0.352  25.354  0.00  0.00    +0.210 HD
ENDBRANCH   2  14
BRANCH   1  16
ATOM     16  C   UNL     1       9.447   1.036  21.880  0.00  0.00    +0.190 C 
BRANCH  16  17
ATOM     17  O   UNL     1      10.148   2.226  21.532  0.00  0.00    -0.392 OA
ATOM     18  H   UNL     1       9.496   2.840  21.149  0.00  0.00    +0.210 HD
ENDBRANCH  16  17
ENDBRANCH   1  16
TORSDOF 3
ENDMDL
MODEL 3
REMARK VINA RESULT:      -5.6      2.649      3.724
REMARK  Name = 
REMARK  3 active torsions:
REMARK  status: ('A' for Active; 'I' for Inactive)
REMARK    1  A    between atoms: O_1  and  C_2
REMARK    2  A    between atoms: C_2  and  C_3
REMARK    3  A    between atoms: C_18  and  O_20
REMARK                            x       y       z     vdW  Elec       q    Type
REMARK                         _______ _______ _______ _____ _____    ______ ____
ROOT
ATOM      1  C   UNL     1       8.804  -0.788  23.498  0.00  0.00    +0.178 C 
ATOM      2  C   UNL     1       8.736  -1.674  22.249  0.00  0.00    +0.190 C 
ATOM      3  C   UNL     1       8.694  -3.071  22.808  0.00  0.00    +0.257 C 
ATOM      4  O   UNL     1       7.368  -3.505  23.161  0.00  0.00    -0.453 OA
ATOM      5  C   UNL     1       7.490  -4.126  24.372  0.00  0.00    +0.304 A 
ATOM      6  N   UNL     1       8.697  -3.847  24.940  0.00  0.00    -0.272 N 
ATOM      7  C   UNL     1       9.016  -4.411  26.139  0.00  0.00    +0.098 A 
ATOM      8  C   UNL     1       8.141  -5.231  26.733  0.00  0.00    +0.090 A 
ATOM      9  C   UNL     1       6.816  -5.472  26.072  0.00  0.00    +0.276 A 
ATOM     10  O   UNL     1       6.016  -6.208  26.641  0.00  0.00    -0.266 OA
ATOM     11  N   UNL     1       6.560  -4.870  24.853  0.00  0.00    -0.157 NA
ATOM     12  C   UNL     1       9.446  -2.940  24.124  0.00  0.00    +0.267 C 
ATOM     13  O   UNL     1       9.305  -1.594  24.589  0.00  0.00    -0.344 OA
ENDROOT
BRANCH   2  14
ATOM     14  O   UNL     1       9.955  -1.539  21.502  0.00  0.00    -0.385 OA
ATOM     15  H   UNL     1      10.059  -2.351  20.972  0.00  0.00    +0.210 HD
ENDBRANCH   2  14
BRANCH   1  16
ATOM     16  C   UNL     1       7.442  -0.202  23.884  0.00  0.00    +0.190 C 
BRANCH  16  17
ATOM     17  O   UNL     1       6.441  -0.636  22.971  0.00  0.00    -0.392 OA
ATOM     18  H   UNL     1       6.061  -1.457  23.331  0.00  0.00    +0.210 HD
ENDBRANCH  16  17
ENDBRANCH   1  16
TORSDOF 3
ENDMDL
MODEL 4
REMARK VINA RESULT:      -5.6      1.747      2.481
REMARK  Name = 
REMARK  3 active torsions:
REMARK  status: ('A' for Active; 'I' for Inactive)
REMARK    1  A    between atoms: O_1  and  C_2
REMARK    2  A    between atoms: C_2  and  C_3
REMARK    3  A    between atoms: C_18  and  O_20
REMARK                            x       y       z     vdW  Elec       q    Type
REMARK                         _______ _______ _______ _____ _____    ______ ____
ROOT
ATOM      1  C   UNL     1       9.847   1.906  23.873  0.00  0.00    +0.178 C 
ATOM      2  C   UNL     1       9.397   1.916  22.408  0.00  0.00    +0.190 C 
ATOM      3  C   UNL     1       9.206   0.458  22.087  0.00  0.00    +0.257 C 
ATOM      4  O   UNL     1       7.909  -0.044  22.459  0.00  0.00    -0.453 OA
ATOM      5  C   UNL     1       8.133  -1.257  23.045  0.00  0.00    +0.304 A 
ATOM      6  N   UNL     1       9.454  -1.413  23.347  0.00  0.00    -0.272 N 
ATOM      7  C   UNL     1       9.877  -2.582  23.905  0.00  0.00    +0.098 A 
ATOM      8  C   UNL     1       8.990  -3.556  24.141  0.00  0.00    +0.090 A 
ATOM      9  C   UNL     1       7.546  -3.310  23.816  0.00  0.00    +0.276 A 
ATOM     10  O   UNL     1       6.743  -4.206  24.060  0.00  0.00    -0.266 OA
ATOM     11  N   UNL     1       7.187  -2.102  23.247  0.00  0.00    -0.157 NA
ATOM     12  C   UNL     1      10.194  -0.233  23.015  0.00  0.00    +0.267 C 
ATOM     13  O   UNL     1      10.383   0.596  24.165  0.00  0.00    -0.344 OA
ENDROOT
BRANCH   2  14
ATOM     14  O   UNL     1      10.465   2.408  21.584  0.00  0.00    -0.385 OA
ATOM     15  H   UNL     1      10.334   2.037  20.692  0.00  0.00    +0.210 HD
ENDBRANCH   2  14
BRANCH   1  16
ATOM     16  C   UNL     1       8.705   2.216  24.847  0.00  0.00    +0.190 C 
BRANCH  16  17
ATOM     17  O   UNL     1       8.563   1.161  25.793  0.00  0.00    -0.392 OA
ATOM     18  H   UNL     1       9.457   0.824  25.982  0.00  0.00    +0.210 HD
ENDBRANCH  16  17
ENDBRANCH   1  16
TORSDOF 3
ENDMDL
MODEL 5
REMARK VINA RESULT:      -5.5      2.023      4.910
REMARK  Name = 
REMARK  3 active torsions:
REMARK  status: ('A' for Active; 'I' for Inactive)
REMARK    1  A    between atoms: O_1  and  C_2
REMARK    2  A    between atoms: C_2  and  C_3
REMARK    3  A    between atoms: C_18  and  O_20
REMARK                            x       y       z     vdW  Elec       q    Type
REMARK                         _______ _______ _______ _____ _____    ______ ____
ROOT
ATOM      1  C   UNL     1       7.095  -2.953  23.311  0.00  0.00    +0.178 C 
ATOM      2  C   UNL     1       8.203  -3.402  24.272  0.00  0.00    +0.190 C 
ATOM      3  C   UNL     1       9.295  -2.390  24.051  0.00  0.00    +0.257 C 
ATOM      4  O   UNL     1       9.131  -1.193  24.834  0.00  0.00    -0.453 OA
ATOM      5  C   UNL     1       9.407  -0.155  23.990  0.00  0.00    +0.304 A 
ATOM      6  N   UNL     1       9.423  -0.576  22.693  0.00  0.00    -0.272 N 
ATOM      7  C   UNL     1       9.720   0.316  21.706  0.00  0.00    +0.098 A 
ATOM      8  C   UNL     1       9.994   1.585  22.028  0.00  0.00    +0.090 A 
ATOM      9  C   UNL     1       9.928   1.993  23.471  0.00  0.00    +0.276 A 
ATOM     10  O   UNL     1      10.161   3.166  23.746  0.00  0.00    -0.266 OA
ATOM     11  N   UNL     1       9.625   1.035  24.422  0.00  0.00    -0.157 NA
ATOM     12  C   UNL     1       9.085  -1.965  22.605  0.00  0.00    +0.267 C 
ATOM     13  O   UNL     1       7.702  -2.138  22.283  0.00  0.00    -0.344 OA
ENDROOT
BRANCH   2  14
ATOM     14  O   UNL     1       8.704  -4.682  23.857  0.00  0.00    -0.385 OA
ATOM     15  H   UNL     1       7.942  -5.289  23.814  0.00  0.00    +0.210 HD
ENDBRANCH   2  14
BRANCH   1  16
ATOM     16  C   UNL     1       5.993  -2.151  24.010  0.00  0.00    +0.190 C 
BRANCH  16  17
ATOM     17  O   UNL     1       6.094  -0.772  23.669  0.00  0.00    -0.392 OA
ATOM     18  H   UNL     1       6.148  -0.274  24.504  0.00  0.00    +0.210 HD
ENDBRANCH  16  17
ENDBRANCH   1  16
TORSDOF 3
ENDMDL
MODEL 6
REMARK VINA RESULT:      -5.5      2.915      5.819
REMARK  Name = 
REMARK  3 active torsions:
REMARK  status: ('A' for Active; 'I' for Inactive)
REMARK    1  A    between atoms: O_1  and  C_2
REMARK    2  A    between atoms: C_2  and  C_3
REMARK    3  A    between atoms: C_18  and  O_20
REMARK                            x       y       z     vdW  Elec       q    Type
REMARK                         _______ _______ _______ _____ _____    ______ ____
ROOT
ATOM      1  C   UNL     1       6.998  -5.725  22.940  0.00  0.00    +0.178 C 
ATOM      2  C   UNL     1       5.877  -4.883  23.560  0.00  0.00    +0.190 C 
ATOM      3  C   UNL     1       6.554  -3.577  23.881  0.00  0.00    +0.257 C 
ATOM      4  O   UNL     1       6.592  -2.665  22.768  0.00  0.00    -0.453 OA
ATOM      5  C   UNL     1       7.852  -2.138  22.762  0.00  0.00    +0.304 A 
ATOM      6  N   UNL     1       8.683  -2.859  23.567  0.00  0.00    -0.272 N 
ATOM      7  C   UNL     1       9.977  -2.460  23.718  0.00  0.00    +0.098 A 
ATOM      8  C   UNL     1      10.406  -1.366  23.079  0.00  0.00    +0.090 A 
ATOM      9  C   UNL     1       9.451  -0.635  22.182  0.00  0.00    +0.276 A 
ATOM     10  O   UNL     1       9.868   0.353  21.584  0.00  0.00    -0.266 OA
ATOM     11  N   UNL     1       8.150  -1.093  22.077  0.00  0.00    -0.157 NA
ATOM     12  C   UNL     1       7.998  -3.986  24.126  0.00  0.00    +0.267 C 
ATOM     13  O   UNL     1       8.262  -5.173  23.372  0.00  0.00    -0.344 OA
ENDROOT
BRANCH   2  14
ATOM     14  O   UNL     1       5.465  -5.477  24.801  0.00  0.00    -0.385 OA
ATOM     15  H   UNL     1       6.002  -5.071  25.506  0.00  0.00    +0.210 HD
ENDBRANCH   2  14
BRANCH   1  16
ATOM     16  C   UNL     1       6.949  -5.742  21.408  0.00  0.00    +0.190 C 
BRANCH  16  17
ATOM     17  O   UNL     1       5.862  -4.950  20.940  0.00  0.00    -0.392 OA
ATOM     18  H   UNL     1       5.222  -4.881  21.672  0.00  0.00    +0.210 HD
ENDBRANCH  16  17
ENDBRANCH   1  16
TORSDOF 3
ENDMDL
MODEL 7
REMARK VINA RESULT:      -5.4      2.058      5.494
REMARK  Name = 
REMARK  3 active torsions:
REMARK  status: ('A' for Active; 'I' for Inactive)
REMARK    1  A    between atoms: O_1  and  C_2
REMARK    2  A    between atoms: C_2  and  C_3
REMARK    3  A    between atoms: C_18  and  O_20
REMARK                            x       y       z     vdW  Elec       q    Type
REMARK                         _______ _______ _______ _____ _____    ______ ____
ROOT
ATOM      1  C   UNL     1       7.999  -4.982  24.940  0.00  0.00    +0.178 C 
ATOM      2  C   UNL     1       8.196  -4.170  26.224  0.00  0.00    +0.190 C 
ATOM      3  C   UNL     1       8.787  -2.874  25.736  0.00  0.00    +0.257 C 
ATOM      4  O   UNL     1       7.797  -1.920  25.310  0.00  0.00    -0.453 OA
ATOM      5  C   UNL     1       8.271  -1.387  24.144  0.00  0.00    +0.304 A 
ATOM      6  N   UNL     1       9.299  -2.136  23.652  0.00  0.00    -0.272 N 
ATOM      7  C   UNL     1       9.927  -1.737  22.510  0.00  0.00    +0.098 A 
ATOM      8  C   UNL     1       9.526  -0.618  21.897  0.00  0.00    +0.090 A 
ATOM      9  C   UNL     1       8.368   0.144  22.471  0.00  0.00    +0.276 A 
ATOM     10  O   UNL     1       7.999   1.156  21.883  0.00  0.00    -0.266 OA
ATOM     11  N   UNL     1       7.779  -0.315  23.636  0.00  0.00    -0.157 NA
ATOM     12  C   UNL     1       9.529  -3.286  24.473  0.00  0.00    +0.267 C 
ATOM     13  O   UNL     1       8.883  -4.442  23.931  0.00  0.00    -0.344 OA
ENDROOT
BRANCH   2  14
ATOM     14  O   UNL     1       9.178  -4.813  27.050  0.00  0.00    -0.385 OA
ATOM     15  H   UNL     1       9.956  -4.988  26.489  0.00  0.00    +0.210 HD
ENDBRANCH   2  14
BRANCH   1  16
ATOM     16  C   UNL     1       6.557  -4.940  24.425  0.00  0.00    +0.190 C 
BRANCH  16  17
ATOM     17  O   UNL     1       5.741  -4.176  25.307  0.00  0.00    -0.392 OA
ATOM     18  H   UNL     1       6.274  -3.989  26.101  0.00  0.00    +0.210 HD
ENDBRANCH  16  17
ENDBRANCH   1  16
TORSDOF 3
ENDMDL
MODEL 8
REMARK VINA RESULT:      -5.3      2.536      3.511
REMARK  Name = 
REMARK  3 active torsions:
REMARK  status: ('A' for Active; 'I' for Inactive)
REMARK    1  A    between atoms: O_1  and  C_2
REMARK    2  A    between atoms: C_2  and  C_3
REMARK    3  A    between atoms: C_18  and  O_20
REMARK                            x       y       z     vdW  Elec       q    Type
REMARK                         _______ _______ _______ _____ _____    ______ ____
ROOT
ATOM      1  C   UNL     1       8.681   3.663  23.669  0.00  0.00    +0.178 C 
ATOM      2  C   UNL     1       7.410   3.772  22.819  0.00  0.00    +0.190 C 
ATOM      3  C   UNL     1       7.388   2.479  22.048  0.00  0.00    +0.257 C 
ATOM      4  O   UNL     1       6.783   1.392  22.773  0.00  0.00    -0.453 OA
ATOM      5  C   UNL     1       7.592   0.311  22.567  0.00  0.00    +0.304 A 
ATOM      6  N   UNL     1       8.791   0.696  22.045  0.00  0.00    -0.272 N 
ATOM      7  C   UNL     1       9.719  -0.253  21.735  0.00  0.00    +0.098 A 
ATOM      8  C   UNL     1       9.435  -1.543  21.944  0.00  0.00    +0.090 A 
ATOM      9  C   UNL     1       8.109  -1.899  22.551  0.00  0.00    +0.276 A 
ATOM     10  O   UNL     1       7.874  -3.086  22.757  0.00  0.00    -0.266 OA
ATOM     11  N   UNL     1       7.213  -0.886  22.838  0.00  0.00    -0.157 NA
ATOM     12  C   UNL     1       8.862   2.122  21.929  0.00  0.00    +0.267 C 
ATOM     13  O   UNL     1       9.553   2.694  23.042  0.00  0.00    -0.344 OA
ENDROOT
BRANCH   2  14
ATOM     14  O   UNL     1       7.559   4.841  21.872  0.00  0.00    -0.385 OA
ATOM     15  H   UNL     1       6.770   5.409  21.953  0.00  0.00    +0.210 HD
ENDBRANCH   2  14
BRANCH   1  16
ATOM     16  C   UNL     1       8.395   3.230  25.110  0.00  0.00    +0.190 C 
BRANCH  16  17
ATOM     17  O   UNL     1       8.805   1.882  25.312  0.00  0.00    -0.392 OA
ATOM     18  H   UNL     1       9.662   1.909  25.775  0.00  0.00    +0.210 HD
ENDBRANCH  16  17
ENDBRANCH   1  16
TORSDOF 3
ENDMDL
MODEL 9
REMARK VINA RESULT:      -5.3      3.331      6.051
REMARK  Name = 
REMARK  3 active torsions:
REMARK  status: ('A' for Active; 'I' for Inactive)
REMARK    1  A    between atoms: O_1  and  C_2
REMARK    2  A    between atoms: C_2  and  C_3
REMARK    3  A    between atoms: C_18  and  O_20
REMARK                            x       y       z     vdW  Elec       q    Type
REMARK                         _______ _______ _______ _____ _____    ______ ____
ROOT
ATOM      1  C   UNL     1      10.120   1.170  23.625  0.00  0.00    +0.178 C 
ATOM      2  C   UNL     1       8.823   0.885  24.391  0.00  0.00    +0.190 C 
ATOM      3  C   UNL     1       8.182   2.241  24.519  0.00  0.00    +0.257 C 
ATOM      4  O   UNL     1       7.397   2.613  23.372  0.00  0.00    -0.453 OA
ATOM      5  C   UNL     1       7.707   3.918  23.116  0.00  0.00    +0.304 A 
ATOM      6  N   UNL     1       8.827   4.292  23.797  0.00  0.00    -0.272 N 
ATOM      7  C   UNL     1       9.271   5.578  23.696  0.00  0.00    +0.098 A 
ATOM      8  C   UNL     1       8.597   6.447  22.935  0.00  0.00    +0.090 A 
ATOM      9  C   UNL     1       7.390   5.965  22.185  0.00  0.00    +0.276 A 
ATOM     10  O   UNL     1       6.797   6.770  21.474  0.00  0.00    -0.266 OA
ATOM     11  N   UNL     1       6.993   4.648  22.337  0.00  0.00    -0.157 NA
ATOM     12  C   UNL     1       9.373   3.187  24.525  0.00  0.00    +0.267 C 
ATOM     13  O   UNL     1      10.439   2.570  23.798  0.00  0.00    -0.344 OA
ENDROOT
BRANCH   2  14
ATOM     14  O   UNL     1       9.141   0.425  25.713  0.00  0.00    -0.385 OA
ATOM     15  H   UNL     1      10.058   0.697  25.899  0.00  0.00    +0.210 HD
ENDBRANCH   2  14
BRANCH   1  16
ATOM     16  C   UNL     1      10.007   0.857  22.130  0.00  0.00    +0.190 C 
BRANCH  16  17
ATOM     17  O   UNL     1       9.818   2.056  21.386  0.00  0.00    -0.392 OA
ATOM     18  H   UNL     1       9.109   2.558  21.828  0.00  0.00    +0.210 HD
ENDBRANCH  16  17
ENDBRANCH   1  16
TORSDOF 3
ENDMDL
