MODEL 1
REMARK VINA RESULT:      -6.8      0.000      0.000
REMARK  Name = 
REMARK  26 active torsions:
REMARK  status: ('A' for Active; 'I' for Inactive)
REMARK    1  A    between atoms: C_1  and  O_2
REMARK    2  A    between atoms: O_2  and  C_3
REMARK    3  A    between atoms: C_3  and  C_5
REMARK    4  A    between atoms: C_5  and  N_7
REMARK    5  A    between atoms: C_5  and  C_45
REMARK    6  A    between atoms: C_8  and  C_10
REMARK    7  A    between atoms: C_10  and  N_12
REMARK    8  A    between atoms: C_10  and  C_42
REMARK    9  A    between atoms: C_13  and  C_15
REMARK   10  A    between atoms: C_15  and  C_16
REMARK   11  A    between atoms: C_16  and  C_17
REMARK   12  A    between atoms: C_17  and  O_19
REMARK   13  A    between atoms: C_17  and  C_20
REMARK   14  A    between atoms: C_20  and  C_22
REMARK   15  A    between atoms: C_20  and  N_29
REMARK   16  A    between atoms: C_22  and  C_23
REMARK   17  A    between atoms: C_30  and  C_32
REMARK   18  A    between atoms: C_32  and  C_34
REMARK   19  A    between atoms: C_32  and  N_35
REMARK   20  A    between atoms: C_36  and  C_38
REMARK   21  A    between atoms: C_38  and  C_40
REMARK   22  A    between atoms: C_38  and  N_41
REMARK   23  A    between atoms: C_42  and  C_43
REMARK   24  A    between atoms: C_42  and  C_44
REMARK   25  A    between atoms: C_45  and  C_46
REMARK   26  A    between atoms: C_45  and  C_47
REMARK                            x       y       z     vdW  Elec       q    Type
REMARK                         _______ _______ _______ _____ _____    ______ ____
ROOT
ATOM      1  C   UNL     1       8.911  -0.754  22.324  0.00  0.00    +0.135 C 
ENDROOT
BRANCH   1   2
ATOM      2  O   UNL     1       9.693  -1.583  21.451  0.00  0.00    -0.390 OA
ATOM      3  H   UNL     1      10.572  -1.175  21.357  0.00  0.00    +0.210 HD
ENDBRANCH   1   2
BRANCH   1   4
ATOM      4  C   UNL     1       7.453  -1.284  22.377  0.00  0.00    +0.106 C 
BRANCH   4   5
ATOM      5  N   UNL     1       7.486  -2.699  22.763  0.00  0.00    -0.308 N 
ATOM      6  H   UNL     1       7.971  -2.902  23.638  0.00  0.00    +0.149 HD
ATOM      7  C   UNL     1       6.567  -3.630  22.343  0.00  0.00    +0.233 C 
ATOM      8  O   UNL     1       5.624  -3.345  21.605  0.00  0.00    -0.274 OA
BRANCH   7   9
ATOM      9  C   UNL     1       6.732  -5.042  22.957  0.00  0.00    +0.156 C 
ATOM     10  C   UNL     1       7.290  -6.088  21.990  0.00  0.00    +0.038 C 
BRANCH   9  11
ATOM     11  N   UNL     1       7.475  -4.962  24.206  0.00  0.00    -0.303 N 
ATOM     12  H   UNL     1       8.469  -4.750  24.197  0.00  0.00    +0.149 HD
ATOM     13  C   UNL     1       6.873  -4.984  25.440  0.00  0.00    +0.230 C 
ATOM     14  O   UNL     1       5.664  -5.140  25.590  0.00  0.00    -0.274 OA
BRANCH  13  15
ATOM     15  C   UNL     1       7.861  -4.880  26.620  0.00  0.00    +0.135 C 
ATOM     16  C   UNL     1       9.290  -4.841  26.089  0.00  0.00    +0.033 C 
BRANCH  15  17
ATOM     17  N   UNL     1       7.674  -6.009  27.560  0.00  0.00    -0.320 NA
ATOM     18  H   UNL     1       6.677  -6.100  27.762  0.00  0.00    +0.119 HD
ATOM     19  H   UNL     1       7.927  -6.872  27.073  0.00  0.00    +0.119 HD
ENDBRANCH  15  17
ENDBRANCH  13  15
ENDBRANCH   9  11
ENDBRANCH   7   9
ENDBRANCH   4   5
BRANCH   4  20
ATOM     20  C   UNL     1       6.534  -0.525  23.355  0.00  0.00    +0.060 C 
BRANCH  20  21
ATOM     21  C   UNL     1       7.040  -0.392  24.773  0.00  0.00    -0.046 A 
ATOM     22  C   UNL     1       6.709   0.737  25.535  0.00  0.00    +0.004 A 
ATOM     23  C   UNL     1       7.242   0.913  26.814  0.00  0.00    +0.000 A 
ATOM     24  C   UNL     1       8.106  -0.042  27.346  0.00  0.00    +0.000 A 
ATOM     25  C   UNL     1       8.424  -1.180  26.607  0.00  0.00    +0.000 A 
ATOM     26  C   UNL     1       7.890  -1.358  25.327  0.00  0.00    +0.004 A 
ENDBRANCH  20  21
ENDBRANCH   4  20
ENDBRANCH   1   4
BRANCH   1  27
ATOM     27  C   UNL     1       9.014   0.700  21.823  0.00  0.00    +0.042 C 
BRANCH  27  28
ATOM     28  C   UNL     1      10.353   1.359  22.128  0.00  0.00    +0.098 C 
BRANCH  28  31
ATOM     29  N   UNL     1      10.549   3.630  22.930  0.00  0.00    -0.304 N 
ATOM     30  H   UNL     1      10.711   3.879  21.960  0.00  0.00    +0.149 HD
ATOM     31  C   UNL     1      10.207   2.345  23.261  0.00  0.00    +0.214 C 
ATOM     32  O   UNL     1       9.801   2.017  24.370  0.00  0.00    -0.276 OA
BRANCH  29  33
ATOM     33  C   UNL     1      10.464   4.727  23.888  0.00  0.00    +0.161 C 
BRANCH  33  36
ATOM     34  N   UNL     1       8.038   4.635  24.247  0.00  0.00    -0.301 N 
ATOM     35  H   UNL     1       8.232   3.794  24.787  0.00  0.00    +0.150 HD
ATOM     36  C   UNL     1       9.069   5.337  23.668  0.00  0.00    +0.234 C 
ATOM     37  O   UNL     1       8.897   6.331  22.964  0.00  0.00    -0.274 OA
BRANCH  34  38
ATOM     38  C   UNL     1       6.633   5.020  24.095  0.00  0.00    +0.184 C 
BRANCH  38  39
ATOM     39  C   UNL     1       5.755   3.875  23.536  0.00  0.00    +0.014 C 
ATOM     40  C   UNL     1       6.420   3.121  22.379  0.00  0.00    +0.009 C 
ATOM     41  C   UNL     1       4.376   4.371  23.088  0.00  0.00    +0.009 C 
ENDBRANCH  38  39
BRANCH  38  42
ATOM     42  C   UNL     1       6.134   5.490  25.467  0.00  0.00    +0.328 C 
ATOM     43  O   UNL     1       5.990   6.669  25.776  0.00  0.00    -0.249 OA
BRANCH  42  45
ATOM     44  C   UNL     1       6.547   4.522  27.562  0.00  0.00    +0.280 C 
ATOM     45  O   UNL     1       5.898   4.432  26.292  0.00  0.00    -0.467 OA
ENDBRANCH  42  45
ENDBRANCH  38  42
ENDBRANCH  34  38
ENDBRANCH  33  36
BRANCH  33  46
ATOM     46  C   UNL     1      11.577   5.762  23.630  0.00  0.00    +0.012 C 
ATOM     47  C   UNL     1      12.838   5.087  23.076  0.00  0.00    +0.009 C 
ATOM     48  C   UNL     1      11.934   6.522  24.911  0.00  0.00    +0.009 C 
ENDBRANCH  33  46
ENDBRANCH  29  33
ENDBRANCH  28  31
ENDBRANCH  27  28
ENDBRANCH   1  27
TORSDOF 19
ENDMDL
MODEL 2
REMARK VINA RESULT:      -6.6      2.273      4.157
REMARK  Name = 
REMARK  26 active torsions:
REMARK  status: ('A' for Active; 'I' for Inactive)
REMARK    1  A    between atoms: C_1  and  O_2
REMARK    2  A    between atoms: O_2  and  C_3
REMARK    3  A    between atoms: C_3  and  C_5
REMARK    4  A    between atoms: C_5  and  N_7
REMARK    5  A    between atoms: C_5  and  C_45
REMARK    6  A    between atoms: C_8  and  C_10
REMARK    7  A    between atoms: C_10  and  N_12
REMARK    8  A    between atoms: C_10  and  C_42
REMARK    9  A    between atoms: C_13  and  C_15
REMARK   10  A    between atoms: C_15  and  C_16
REMARK   11  A    between atoms: C_16  and  C_17
REMARK   12  A    between atoms: C_17  and  O_19
REMARK   13  A    between atoms: C_17  and  C_20
REMARK   14  A    between atoms: C_20  and  C_22
REMARK   15  A    between atoms: C_20  and  N_29
REMARK   16  A    between atoms: C_22  and  C_23
REMARK   17  A    between atoms: C_30  and  C_32
REMARK   18  A    between atoms: C_32  and  C_34
REMARK   19  A    between atoms: C_32  and  N_35
REMARK   20  A    between atoms: C_36  and  C_38
REMARK   21  A    between atoms: C_38  and  C_40
REMARK   22  A    between atoms: C_38  and  N_41
REMARK   23  A    between atoms: C_42  and  C_43
REMARK   24  A    between atoms: C_42  and  C_44
REMARK   25  A    between atoms: C_45  and  C_46
REMARK   26  A    between atoms: C_45  and  C_47
REMARK                            x       y       z     vdW  Elec       q    Type
REMARK                         _______ _______ _______ _____ _____    ______ ____
ROOT
ATOM      1  C   UNL     1       9.896  -1.202  22.154  0.00  0.00    +0.135 C 
ENDROOT
BRANCH   1   2
ATOM      2  O   UNL     1       9.459  -0.779  20.854  0.00  0.00    -0.390 OA
ATOM      3  H   UNL     1       8.996  -1.525  20.435  0.00  0.00    +0.210 HD
ENDBRANCH   1   2
BRANCH   1   4
ATOM      4  C   UNL     1       8.911  -2.263  22.715  0.00  0.00    +0.106 C 
BRANCH   4   5
ATOM      5  N   UNL     1       8.599  -1.919  24.108  0.00  0.00    -0.308 N 
ATOM      6  H   UNL     1       7.927  -1.161  24.231  0.00  0.00    +0.149 HD
ATOM      7  C   UNL     1       8.741  -2.789  25.162  0.00  0.00    +0.233 C 
ATOM      8  O   UNL     1       9.138  -3.946  25.019  0.00  0.00    -0.274 OA
BRANCH   7   9
ATOM      9  C   UNL     1       8.255  -2.251  26.530  0.00  0.00    +0.156 C 
ATOM     10  C   UNL     1       8.772  -0.853  26.876  0.00  0.00    +0.038 C 
BRANCH   9  11
ATOM     11  N   UNL     1       6.808  -2.368  26.629  0.00  0.00    -0.303 N 
ATOM     12  H   UNL     1       6.207  -1.672  26.194  0.00  0.00    +0.149 HD
ATOM     13  C   UNL     1       6.178  -3.476  27.140  0.00  0.00    +0.230 C 
ATOM     14  O   UNL     1       6.787  -4.431  27.614  0.00  0.00    -0.274 OA
BRANCH  13  15
ATOM     15  C   UNL     1       4.639  -3.376  27.139  0.00  0.00    +0.135 C 
ATOM     16  C   UNL     1       4.037  -4.742  26.824  0.00  0.00    +0.033 C 
BRANCH  15  17
ATOM     17  N   UNL     1       4.182  -2.358  26.165  0.00  0.00    -0.320 NA
ATOM     18  H   UNL     1       4.279  -1.435  26.593  0.00  0.00    +0.119 HD
ATOM     19  H   UNL     1       4.834  -2.356  25.379  0.00  0.00    +0.119 HD
ENDBRANCH  15  17
ENDBRANCH  13  15
ENDBRANCH   9  11
ENDBRANCH   7   9
ENDBRANCH   4   5
BRANCH   4  20
ATOM     20  C   UNL     1       7.590  -2.385  21.929  0.00  0.00    +0.060 C 
BRANCH  20  21
ATOM     21  C   UNL     1       6.699  -3.547  22.305  0.00  0.00    -0.046 A 
ATOM     22  C   UNL     1       7.106  -4.861  22.042  0.00  0.00    +0.004 A 
ATOM     23  C   UNL     1       6.255  -5.936  22.305  0.00  0.00    +0.000 A 
ATOM     24  C   UNL     1       4.989  -5.708  22.840  0.00  0.00    +0.000 A 
ATOM     25  C   UNL     1       4.581  -4.407  23.127  0.00  0.00    +0.000 A 
ATOM     26  C   UNL     1       5.433  -3.329  22.866  0.00  0.00    +0.004 A 
ENDBRANCH  20  21
ENDBRANCH   4  20
ENDBRANCH   1   4
BRANCH   1  27
ATOM     27  C   UNL     1      10.020   0.048  23.048  0.00  0.00    +0.042 C 
BRANCH  27  28
ATOM     28  C   UNL     1       9.852   1.360  22.292  0.00  0.00    +0.098 C 
BRANCH  28  31
ATOM     29  N   UNL     1       8.806   2.975  23.752  0.00  0.00    -0.304 N 
ATOM     30  H   UNL     1       7.960   2.430  23.626  0.00  0.00    +0.149 HD
ATOM     31  C   UNL     1       9.993   2.531  23.233  0.00  0.00    +0.214 C 
ATOM     32  O   UNL     1      11.081   3.021  23.514  0.00  0.00    -0.276 OA
BRANCH  29  33
ATOM     33  C   UNL     1       8.739   4.091  24.690  0.00  0.00    +0.161 C 
BRANCH  33  36
ATOM     34  N   UNL     1       6.712   2.818  25.236  0.00  0.00    -0.301 N 
ATOM     35  H   UNL     1       6.759   2.489  24.273  0.00  0.00    +0.150 HD
ATOM     36  C   UNL     1       7.670   3.679  25.718  0.00  0.00    +0.234 C 
ATOM     37  O   UNL     1       7.644   4.150  26.854  0.00  0.00    -0.274 OA
BRANCH  34  38
ATOM     38  C   UNL     1       5.578   2.363  26.042  0.00  0.00    +0.184 C 
BRANCH  38  39
ATOM     39  C   UNL     1       4.238   3.000  25.603  0.00  0.00    +0.014 C 
ATOM     40  C   UNL     1       3.015   2.292  26.196  0.00  0.00    +0.009 C 
ATOM     41  C   UNL     1       4.097   3.056  24.078  0.00  0.00    +0.009 C 
ENDBRANCH  38  39
BRANCH  38  42
ATOM     42  C   UNL     1       5.529   0.833  25.946  0.00  0.00    +0.328 C 
ATOM     43  O   UNL     1       5.540   0.214  24.886  0.00  0.00    -0.249 OA
BRANCH  42  45
ATOM     44  C   UNL     1       5.953   1.088  28.237  0.00  0.00    +0.280 C 
ATOM     45  O   UNL     1       5.452   0.265  27.181  0.00  0.00    -0.467 OA
ENDBRANCH  42  45
ENDBRANCH  38  42
ENDBRANCH  34  38
ENDBRANCH  33  36
BRANCH  33  46
ATOM     46  C   UNL     1       8.346   5.391  23.961  0.00  0.00    +0.012 C 
ATOM     47  C   UNL     1       7.568   5.087  22.675  0.00  0.00    +0.009 C 
ATOM     48  C   UNL     1       9.583   6.227  23.616  0.00  0.00    +0.009 C 
ENDBRANCH  33  46
ENDBRANCH  29  33
ENDBRANCH  28  31
ENDBRANCH  27  28
ENDBRANCH   1  27
TORSDOF 19
ENDMDL
MODEL 3
REMARK VINA RESULT:      -6.6      2.644      4.734
REMARK  Name = 
REMARK  26 active torsions:
REMARK  status: ('A' for Active; 'I' for Inactive)
REMARK    1  A    between atoms: C_1  and  O_2
REMARK    2  A    between atoms: O_2  and  C_3
REMARK    3  A    between atoms: C_3  and  C_5
REMARK    4  A    between atoms: C_5  and  N_7
REMARK    5  A    between atoms: C_5  and  C_45
REMARK    6  A    between atoms: C_8  and  C_10
REMARK    7  A    between atoms: C_10  and  N_12
REMARK    8  A    between atoms: C_10  and  C_42
REMARK    9  A    between atoms: C_13  and  C_15
REMARK   10  A    between atoms: C_15  and  C_16
REMARK   11  A    between atoms: C_16  and  C_17
REMARK   12  A    between atoms: C_17  and  O_19
REMARK   13  A    between atoms: C_17  and  C_20
REMARK   14  A    between atoms: C_20  and  C_22
REMARK   15  A    between atoms: C_20  and  N_29
REMARK   16  A    between atoms: C_22  and  C_23
REMARK   17  A    between atoms: C_30  and  C_32
REMARK   18  A    between atoms: C_32  and  C_34
REMARK   19  A    between atoms: C_32  and  N_35
REMARK   20  A    between atoms: C_36  and  C_38
REMARK   21  A    between atoms: C_38  and  C_40
REMARK   22  A    between atoms: C_38  and  N_41
REMARK   23  A    between atoms: C_42  and  C_43
REMARK   24  A    between atoms: C_42  and  C_44
REMARK   25  A    between atoms: C_45  and  C_46
REMARK   26  A    between atoms: C_45  and  C_47
REMARK                            x       y       z     vdW  Elec       q    Type
REMARK                         _______ _______ _______ _____ _____    ______ ____
ROOT
ATOM      1  C   UNL     1       9.079  -3.875  25.373  0.00  0.00    +0.135 C 
ENDROOT
BRANCH   1   2
ATOM      2  O   UNL     1       9.691  -4.866  24.533  0.00  0.00    -0.390 OA
ATOM      3  H   UNL     1       9.042  -5.576  24.384  0.00  0.00    +0.210 HD
ENDBRANCH   1   2
BRANCH   1   4
ATOM      4  C   UNL     1       7.654  -4.342  25.774  0.00  0.00    +0.106 C 
BRANCH   4   5
ATOM      5  N   UNL     1       7.071  -5.080  24.648  0.00  0.00    -0.308 N 
ATOM      6  H   UNL     1       7.040  -6.094  24.759  0.00  0.00    +0.149 HD
ATOM      7  C   UNL     1       6.182  -4.535  23.753  0.00  0.00    +0.233 C 
ATOM      8  O   UNL     1       5.793  -3.370  23.830  0.00  0.00    -0.274 OA
BRANCH   7   9
ATOM      9  C   UNL     1       5.614  -5.524  22.705  0.00  0.00    +0.156 C 
ATOM     10  C   UNL     1       6.680  -6.270  21.899  0.00  0.00    +0.038 C 
BRANCH   9  11
ATOM     11  N   UNL     1       4.642  -6.410  23.328  0.00  0.00    -0.303 N 
ATOM     12  H   UNL     1       4.953  -7.240  23.826  0.00  0.00    +0.149 HD
ATOM     13  C   UNL     1       3.308  -6.103  23.437  0.00  0.00    +0.230 C 
ATOM     14  O   UNL     1       2.817  -5.084  22.960  0.00  0.00    -0.274 OA
BRANCH  13  15
ATOM     15  C   UNL     1       2.472  -7.192  24.141  0.00  0.00    +0.135 C 
ATOM     16  C   UNL     1       3.165  -7.617  25.431  0.00  0.00    +0.033 C 
BRANCH  15  17
ATOM     17  N   UNL     1       2.263  -8.352  23.243  0.00  0.00    -0.320 NA
ATOM     18  H   UNL     1       1.260  -8.463  23.085  0.00  0.00    +0.119 HD
ATOM     19  H   UNL     1       2.652  -8.118  22.327  0.00  0.00    +0.119 HD
ENDBRANCH  15  17
ENDBRANCH  13  15
ENDBRANCH   9  11
ENDBRANCH   7   9
ENDBRANCH   4   5
BRANCH   4  20
ATOM     20  C   UNL     1       7.605  -5.236  27.030  0.00  0.00    +0.060 C 
BRANCH  20  21
ATOM     21  C   UNL     1       6.339  -5.159  27.851  0.00  0.00    -0.046 A 
ATOM     22  C   UNL     1       5.445  -4.095  27.669  0.00  0.00    +0.004 A 
ATOM     23  C   UNL     1       4.316  -3.967  28.481  0.00  0.00    +0.000 A 
ATOM     24  C   UNL     1       4.067  -4.907  29.480  0.00  0.00    +0.000 A 
ATOM     25  C   UNL     1       4.936  -5.981  29.655  0.00  0.00    +0.000 A 
ATOM     26  C   UNL     1       6.066  -6.111  28.842  0.00  0.00    +0.004 A 
ENDBRANCH  20  21
ENDBRANCH   4  20
ENDBRANCH   1   4
BRANCH   1  27
ATOM     27  C   UNL     1       9.092  -2.532  24.617  0.00  0.00    +0.042 C 
BRANCH  27  28
ATOM     28  C   UNL     1       9.056  -1.315  25.532  0.00  0.00    +0.098 C 
BRANCH  28  31
ATOM     29  N   UNL     1       9.035   0.509  23.948  0.00  0.00    -0.304 N 
ATOM     30  H   UNL     1       8.045   0.313  23.848  0.00  0.00    +0.149 HD
ATOM     31  C   UNL     1       9.776  -0.154  24.891  0.00  0.00    +0.214 C 
ATOM     32  O   UNL     1      10.916   0.169  25.207  0.00  0.00    -0.276 OA
BRANCH  29  33
ATOM     33  C   UNL     1       9.555   1.666  23.226  0.00  0.00    +0.161 C 
BRANCH  33  36
ATOM     34  N   UNL     1       9.412   4.101  23.496  0.00  0.00    -0.301 N 
ATOM     35  H   UNL     1      10.071   4.144  22.721  0.00  0.00    +0.150 HD
ATOM     36  C   UNL     1       8.962   2.885  23.953  0.00  0.00    +0.234 C 
ATOM     37  O   UNL     1       8.205   2.763  24.914  0.00  0.00    -0.274 OA
BRANCH  34  38
ATOM     38  C   UNL     1       9.012   5.373  24.103  0.00  0.00    +0.184 C 
BRANCH  38  39
ATOM     39  C   UNL     1      10.169   6.399  24.159  0.00  0.00    +0.014 C 
ATOM     40  C   UNL     1      11.531   5.786  23.817  0.00  0.00    +0.009 C 
ATOM     41  C   UNL     1      10.257   7.095  25.521  0.00  0.00    +0.009 C 
ENDBRANCH  38  39
BRANCH  38  42
ATOM     42  C   UNL     1       7.823   5.913  23.297  0.00  0.00    +0.328 C 
ATOM     43  O   UNL     1       7.927   6.435  22.191  0.00  0.00    -0.249 OA
BRANCH  42  45
ATOM     44  C   UNL     1       5.731   4.857  23.360  0.00  0.00    +0.280 C 
ATOM     45  O   UNL     1       6.656   5.754  23.980  0.00  0.00    -0.467 OA
ENDBRANCH  42  45
ENDBRANCH  38  42
ENDBRANCH  34  38
ENDBRANCH  33  36
BRANCH  33  46
ATOM     46  C   UNL     1       9.119   1.625  21.748  0.00  0.00    +0.012 C 
ATOM     47  C   UNL     1       7.653   2.049  21.595  0.00  0.00    +0.009 C 
ATOM     48  C   UNL     1       9.303   0.225  21.155  0.00  0.00    +0.009 C 
ENDBRANCH  33  46
ENDBRANCH  29  33
ENDBRANCH  28  31
ENDBRANCH  27  28
ENDBRANCH   1  27
TORSDOF 19
ENDMDL
MODEL 4
REMARK VINA RESULT:      -6.5      2.514      8.534
REMARK  Name = 
REMARK  26 active torsions:
REMARK  status: ('A' for Active; 'I' for Inactive)
REMARK    1  A    between atoms: C_1  and  O_2
REMARK    2  A    between atoms: O_2  and  C_3
REMARK    3  A    between atoms: C_3  and  C_5
REMARK    4  A    between atoms: C_5  and  N_7
REMARK    5  A    between atoms: C_5  and  C_45
REMARK    6  A    between atoms: C_8  and  C_10
REMARK    7  A    between atoms: C_10  and  N_12
REMARK    8  A    between atoms: C_10  and  C_42
REMARK    9  A    between atoms: C_13  and  C_15
REMARK   10  A    between atoms: C_15  and  C_16
REMARK   11  A    between atoms: C_16  and  C_17
REMARK   12  A    between atoms: C_17  and  O_19
REMARK   13  A    between atoms: C_17  and  C_20
REMARK   14  A    between atoms: C_20  and  C_22
REMARK   15  A    between atoms: C_20  and  N_29
REMARK   16  A    between atoms: C_22  and  C_23
REMARK   17  A    between atoms: C_30  and  C_32
REMARK   18  A    between atoms: C_32  and  C_34
REMARK   19  A    between atoms: C_32  and  N_35
REMARK   20  A    between atoms: C_36  and  C_38
REMARK   21  A    between atoms: C_38  and  C_40
REMARK   22  A    between atoms: C_38  and  N_41
REMARK   23  A    between atoms: C_42  and  C_43
REMARK   24  A    between atoms: C_42  and  C_44
REMARK   25  A    between atoms: C_45  and  C_46
REMARK   26  A    between atoms: C_45  and  C_47
REMARK                            x       y       z     vdW  Elec       q    Type
REMARK                         _______ _______ _______ _____ _____    ______ ____
ROOT
ATOM      1  C   UNL     1       7.501   3.181  26.045  0.00  0.00    +0.135 C 
ENDROOT
BRANCH   1   2
ATOM      2  O   UNL     1       7.428   3.996  27.224  0.00  0.00    -0.390 OA
ATOM      3  H   UNL     1       6.518   4.332  27.303  0.00  0.00    +0.210 HD
ENDBRANCH   1   2
BRANCH   1   4
ATOM      4  C   UNL     1       7.562   4.089  24.788  0.00  0.00    +0.106 C 
BRANCH   4   5
ATOM      5  N   UNL     1       6.190   4.387  24.361  0.00  0.00    -0.308 N 
ATOM      6  H   UNL     1       5.672   5.024  24.968  0.00  0.00    +0.149 HD
ATOM      7  C   UNL     1       5.752   4.286  23.063  0.00  0.00    +0.233 C 
ATOM      8  O   UNL     1       6.489   3.942  22.139  0.00  0.00    -0.274 OA
BRANCH   7   9
ATOM      9  C   UNL     1       4.294   4.749  22.822  0.00  0.00    +0.156 C 
ATOM     10  C   UNL     1       4.128   6.264  22.685  0.00  0.00    +0.038 C 
BRANCH   9  11
ATOM     11  N   UNL     1       3.709   4.006  21.715  0.00  0.00    -0.303 N 
ATOM     12  H   UNL     1       4.278   3.751  20.912  0.00  0.00    +0.149 HD
ATOM     13  C   UNL     1       2.448   3.463  21.760  0.00  0.00    +0.230 C 
ATOM     14  O   UNL     1       1.689   3.617  22.712  0.00  0.00    -0.274 OA
BRANCH  13  15
ATOM     15  C   UNL     1       2.044   2.715  20.473  0.00  0.00    +0.135 C 
ATOM     16  C   UNL     1       1.507   3.709  19.449  0.00  0.00    +0.033 C 
BRANCH  15  17
ATOM     17  N   UNL     1       1.041   1.666  20.771  0.00  0.00    -0.320 NA
ATOM     18  H   UNL     1       0.705   1.280  19.887  0.00  0.00    +0.119 HD
ATOM     19  H   UNL     1       1.521   0.891  21.234  0.00  0.00    +0.119 HD
ENDBRANCH  15  17
ENDBRANCH  13  15
ENDBRANCH   9  11
ENDBRANCH   7   9
ENDBRANCH   4   5
BRANCH   4  20
ATOM     20  C   UNL     1       8.314   5.419  24.997  0.00  0.00    +0.060 C 
BRANCH  20  21
ATOM     21  C   UNL     1       9.773   5.425  24.602  0.00  0.00    -0.046 A 
ATOM     22  C   UNL     1      10.607   6.478  25.004  0.00  0.00    +0.004 A 
ATOM     23  C   UNL     1      11.933   6.539  24.573  0.00  0.00    +0.000 A 
ATOM     24  C   UNL     1      12.441   5.545  23.739  0.00  0.00    +0.000 A 
ATOM     25  C   UNL     1      11.629   4.482  23.351  0.00  0.00    +0.000 A 
ATOM     26  C   UNL     1      10.301   4.418  23.783  0.00  0.00    +0.004 A 
ENDBRANCH  20  21
ENDBRANCH   4  20
ENDBRANCH   1   4
BRANCH   1  27
ATOM     27  C   UNL     1       6.294   2.223  26.049  0.00  0.00    +0.042 C 
BRANCH  27  28
ATOM     28  C   UNL     1       6.676   0.755  25.910  0.00  0.00    +0.098 C 
BRANCH  28  31
ATOM     29  N   UNL     1       8.310  -0.240  24.435  0.00  0.00    -0.304 N 
ATOM     30  H   UNL     1       8.704  -0.655  25.273  0.00  0.00    +0.149 HD
ATOM     31  C   UNL     1       7.136   0.464  24.503  0.00  0.00    +0.214 C 
ATOM     32  O   UNL     1       6.499   0.815  23.516  0.00  0.00    -0.276 OA
BRANCH  29  33
ATOM     33  C   UNL     1       8.910  -0.627  23.161  0.00  0.00    +0.161 C 
BRANCH  33  36
ATOM     34  N   UNL     1       8.072  -2.875  23.681  0.00  0.00    -0.301 N 
ATOM     35  H   UNL     1       7.178  -2.415  23.843  0.00  0.00    +0.150 HD
ATOM     36  C   UNL     1       9.165  -2.139  23.289  0.00  0.00    +0.234 C 
ATOM     37  O   UNL     1      10.282  -2.626  23.123  0.00  0.00    -0.274 OA
BRANCH  34  38
ATOM     38  C   UNL     1       8.132  -4.318  23.918  0.00  0.00    +0.184 C 
BRANCH  38  39
ATOM     39  C   UNL     1       8.398  -4.670  25.402  0.00  0.00    +0.014 C 
ATOM     40  C   UNL     1       8.013  -3.541  26.363  0.00  0.00    +0.009 C 
ATOM     41  C   UNL     1       9.857  -5.067  25.649  0.00  0.00    +0.009 C 
ENDBRANCH  38  39
BRANCH  38  42
ATOM     42  C   UNL     1       6.810  -4.921  23.427  0.00  0.00    +0.328 C 
ATOM     43  O   UNL     1       6.064  -5.597  24.130  0.00  0.00    -0.249 OA
BRANCH  42  45
ATOM     44  C   UNL     1       6.528  -5.767  21.259  0.00  0.00    +0.280 C 
ATOM     45  O   UNL     1       6.592  -4.625  22.116  0.00  0.00    -0.467 OA
ENDBRANCH  42  45
ENDBRANCH  38  42
ENDBRANCH  34  38
ENDBRANCH  33  36
BRANCH  33  46
ATOM     46  C   UNL     1      10.221   0.147  22.921  0.00  0.00    +0.012 C 
ATOM     47  C   UNL     1      10.790   0.689  24.239  0.00  0.00    +0.009 C 
ATOM     48  C   UNL     1      10.006   1.311  21.949  0.00  0.00    +0.009 C 
ENDBRANCH  33  46
ENDBRANCH  29  33
ENDBRANCH  28  31
ENDBRANCH  27  28
ENDBRANCH   1  27
TORSDOF 19
ENDMDL
MODEL 5
REMARK VINA RESULT:      -6.5      2.161      4.283
REMARK  Name = 
REMARK  26 active torsions:
REMARK  status: ('A' for Active; 'I' for Inactive)
REMARK    1  A    between atoms: C_1  and  O_2
REMARK    2  A    between atoms: O_2  and  C_3
REMARK    3  A    between atoms: C_3  and  C_5
REMARK    4  A    between atoms: C_5  and  N_7
REMARK    5  A    between atoms: C_5  and  C_45
REMARK    6  A    between atoms: C_8  and  C_10
REMARK    7  A    between atoms: C_10  and  N_12
REMARK    8  A    between atoms: C_10  and  C_42
REMARK    9  A    between atoms: C_13  and  C_15
REMARK   10  A    between atoms: C_15  and  C_16
REMARK   11  A    between atoms: C_16  and  C_17
REMARK   12  A    between atoms: C_17  and  O_19
REMARK   13  A    between atoms: C_17  and  C_20
REMARK   14  A    between atoms: C_20  and  C_22
REMARK   15  A    between atoms: C_20  and  N_29
REMARK   16  A    between atoms: C_22  and  C_23
REMARK   17  A    between atoms: C_30  and  C_32
REMARK   18  A    between atoms: C_32  and  C_34
REMARK   19  A    between atoms: C_32  and  N_35
REMARK   20  A    between atoms: C_36  and  C_38
REMARK   21  A    between atoms: C_38  and  C_40
REMARK   22  A    between atoms: C_38  and  N_41
REMARK   23  A    between atoms: C_42  and  C_43
REMARK   24  A    between atoms: C_42  and  C_44
REMARK   25  A    between atoms: C_45  and  C_46
REMARK   26  A    between atoms: C_45  and  C_47
REMARK                            x       y       z     vdW  Elec       q    Type
REMARK                         _______ _______ _______ _____ _____    ______ ____
ROOT
ATOM      1  C   UNL     1      10.278  -0.912  22.945  0.00  0.00    +0.135 C 
ENDROOT
BRANCH   1   2
ATOM      2  O   UNL     1      10.538  -1.839  21.880  0.00  0.00    -0.390 OA
ATOM      3  H   UNL     1      10.749  -1.327  21.080  0.00  0.00    +0.210 HD
ENDBRANCH   1   2
BRANCH   1   4
ATOM      4  C   UNL     1       9.615  -1.658  24.134  0.00  0.00    +0.106 C 
BRANCH   4   5
ATOM      5  N   UNL     1       8.445  -0.888  24.573  0.00  0.00    -0.308 N 
ATOM      6  H   UNL     1       7.672  -0.851  23.907  0.00  0.00    +0.149 HD
ATOM      7  C   UNL     1       8.132  -0.655  25.890  0.00  0.00    +0.233 C 
ATOM      8  O   UNL     1       8.812  -1.086  26.821  0.00  0.00    -0.274 OA
BRANCH   7   9
ATOM      9  C   UNL     1       6.796   0.092  26.126  0.00  0.00    +0.156 C 
ATOM     10  C   UNL     1       5.554  -0.678  25.672  0.00  0.00    +0.038 C 
BRANCH   9  11
ATOM     11  N   UNL     1       6.714   0.549  27.506  0.00  0.00    -0.303 N 
ATOM     12  H   UNL     1       6.693  -0.125  28.267  0.00  0.00    +0.149 HD
ATOM     13  C   UNL     1       6.838   1.868  27.869  0.00  0.00    +0.230 C 
ATOM     14  O   UNL     1       6.963   2.775  27.051  0.00  0.00    -0.274 OA
BRANCH  13  15
ATOM     15  C   UNL     1       6.723   2.112  29.387  0.00  0.00    +0.135 C 
ATOM     16  C   UNL     1       5.481   2.948  29.680  0.00  0.00    +0.033 C 
BRANCH  15  17
ATOM     17  N   UNL     1       7.943   2.776  29.903  0.00  0.00    -0.320 NA
ATOM     18  H   UNL     1       7.730   3.177  30.818  0.00  0.00    +0.119 HD
ATOM     19  H   UNL     1       8.643   2.055  30.086  0.00  0.00    +0.119 HD
ENDBRANCH  15  17
ENDBRANCH  13  15
ENDBRANCH   9  11
ENDBRANCH   7   9
ENDBRANCH   4   5
BRANCH   4  20
ATOM     20  C   UNL     1       9.167  -3.098  23.814  0.00  0.00    +0.060 C 
BRANCH  20  21
ATOM     21  C   UNL     1       7.689  -3.295  23.568  0.00  0.00    -0.046 A 
ATOM     22  C   UNL     1       6.901  -3.967  24.512  0.00  0.00    +0.004 A 
ATOM     23  C   UNL     1       5.554  -4.231  24.256  0.00  0.00    +0.000 A 
ATOM     24  C   UNL     1       4.980  -3.819  23.055  0.00  0.00    +0.000 A 
ATOM     25  C   UNL     1       5.748  -3.131  22.118  0.00  0.00    +0.000 A 
ATOM     26  C   UNL     1       7.096  -2.864  22.373  0.00  0.00    +0.004 A 
ENDBRANCH  20  21
ENDBRANCH   4  20
ENDBRANCH   1   4
BRANCH   1  27
ATOM     27  C   UNL     1       9.412   0.232  22.383  0.00  0.00    +0.042 C 
BRANCH  27  28
ATOM     28  C   UNL     1      10.153   1.558  22.265  0.00  0.00    +0.098 C 
BRANCH  28  31
ATOM     29  N   UNL     1       9.904   3.819  23.078  0.00  0.00    -0.304 N 
ATOM     30  H   UNL     1      10.121   4.105  22.129  0.00  0.00    +0.149 HD
ATOM     31  C   UNL     1       9.739   2.492  23.376  0.00  0.00    +0.214 C 
ATOM     32  O   UNL     1       9.281   2.088  24.438  0.00  0.00    -0.276 OA
BRANCH  29  33
ATOM     33  C   UNL     1       9.549   4.875  24.022  0.00  0.00    +0.161 C 
BRANCH  33  36
ATOM     34  N   UNL     1       7.129   4.506  24.199  0.00  0.00    -0.301 N 
ATOM     35  H   UNL     1       7.375   3.745  24.830  0.00  0.00    +0.150 HD
ATOM     36  C   UNL     1       8.116   5.282  23.638  0.00  0.00    +0.234 C 
ATOM     37  O   UNL     1       7.889   6.184  22.834  0.00  0.00    -0.274 OA
BRANCH  34  38
ATOM     38  C   UNL     1       5.708   4.696  23.905  0.00  0.00    +0.184 C 
BRANCH  38  39
ATOM     39  C   UNL     1       4.973   3.366  23.616  0.00  0.00    +0.014 C 
ATOM     40  C   UNL     1       5.928   2.212  23.289  0.00  0.00    +0.009 C 
ATOM     41  C   UNL     1       3.947   3.505  22.486  0.00  0.00    +0.009 C 
ENDBRANCH  38  39
BRANCH  38  42
ATOM     42  C   UNL     1       5.085   5.432  25.098  0.00  0.00    +0.328 C 
ATOM     43  O   UNL     1       5.280   6.619  25.347  0.00  0.00    -0.249 OA
BRANCH  42  45
ATOM     44  C   UNL     1       3.972   5.105  27.135  0.00  0.00    +0.280 C 
ATOM     45  O   UNL     1       4.315   4.594  25.845  0.00  0.00    -0.467 OA
ENDBRANCH  42  45
ENDBRANCH  38  42
ENDBRANCH  34  38
ENDBRANCH  33  36
BRANCH  33  46
ATOM     46  C   UNL     1      10.524   6.063  23.898  0.00  0.00    +0.012 C 
ATOM     47  C   UNL     1      11.924   5.587  23.493  0.00  0.00    +0.009 C 
ATOM     48  C   UNL     1      10.617   6.841  25.214  0.00  0.00    +0.009 C 
ENDBRANCH  33  46
ENDBRANCH  29  33
ENDBRANCH  28  31
ENDBRANCH  27  28
ENDBRANCH   1  27
TORSDOF 19
ENDMDL
MODEL 6
REMARK VINA RESULT:      -6.4      1.894      3.458
REMARK  Name = 
REMARK  26 active torsions:
REMARK  status: ('A' for Active; 'I' for Inactive)
REMARK    1  A    between atoms: C_1  and  O_2
REMARK    2  A    between atoms: O_2  and  C_3
REMARK    3  A    between atoms: C_3  and  C_5
REMARK    4  A    between atoms: C_5  and  N_7
REMARK    5  A    between atoms: C_5  and  C_45
REMARK    6  A    between atoms: C_8  and  C_10
REMARK    7  A    between atoms: C_10  and  N_12
REMARK    8  A    between atoms: C_10  and  C_42
REMARK    9  A    between atoms: C_13  and  C_15
REMARK   10  A    between atoms: C_15  and  C_16
REMARK   11  A    between atoms: C_16  and  C_17
REMARK   12  A    between atoms: C_17  and  O_19
REMARK   13  A    between atoms: C_17  and  C_20
REMARK   14  A    between atoms: C_20  and  C_22
REMARK   15  A    between atoms: C_20  and  N_29
REMARK   16  A    between atoms: C_22  and  C_23
REMARK   17  A    between atoms: C_30  and  C_32
REMARK   18  A    between atoms: C_32  and  C_34
REMARK   19  A    between atoms: C_32  and  N_35
REMARK   20  A    between atoms: C_36  and  C_38
REMARK   21  A    between atoms: C_38  and  C_40
REMARK   22  A    between atoms: C_38  and  N_41
REMARK   23  A    between atoms: C_42  and  C_43
REMARK   24  A    between atoms: C_42  and  C_44
REMARK   25  A    between atoms: C_45  and  C_46
REMARK   26  A    between atoms: C_45  and  C_47
REMARK                            x       y       z     vdW  Elec       q    Type
REMARK                         _______ _______ _______ _____ _____    ______ ____
ROOT
ATOM      1  C   UNL     1      10.006  -0.801  22.756  0.00  0.00    +0.135 C 
ENDROOT
BRANCH   1   2
ATOM      2  O   UNL     1      10.188  -1.647  21.610  0.00  0.00    -0.390 OA
ATOM      3  H   UNL     1      11.076  -1.478  21.250  0.00  0.00    +0.210 HD
ENDBRANCH   1   2
BRANCH   1   4
ATOM      4  C   UNL     1       9.256  -1.585  23.867  0.00  0.00    +0.106 C 
BRANCH   4   5
ATOM      5  N   UNL     1       8.262  -0.693  24.476  0.00  0.00    -0.308 N 
ATOM      6  H   UNL     1       7.406  -0.560  23.937  0.00  0.00    +0.149 HD
ATOM      7  C   UNL     1       8.182  -0.443  25.825  0.00  0.00    +0.233 C 
ATOM      8  O   UNL     1       8.942  -0.962  26.642  0.00  0.00    -0.274 OA
BRANCH   7   9
ATOM      9  C   UNL     1       6.992   0.447  26.259  0.00  0.00    +0.156 C 
ATOM     10  C   UNL     1       6.531   1.446  25.196  0.00  0.00    +0.038 C 
BRANCH   9  11
ATOM     11  N   UNL     1       5.910  -0.379  26.776  0.00  0.00    -0.303 N 
ATOM     12  H   UNL     1       5.631  -0.305  27.751  0.00  0.00    +0.149 HD
ATOM     13  C   UNL     1       5.105  -1.149  25.974  0.00  0.00    +0.230 C 
ATOM     14  O   UNL     1       5.275  -1.254  24.763  0.00  0.00    -0.274 OA
BRANCH  13  15
ATOM     15  C   UNL     1       4.022  -1.934  26.743  0.00  0.00    +0.135 C 
ATOM     16  C   UNL     1       4.686  -2.940  27.678  0.00  0.00    +0.033 C 
BRANCH  15  17
ATOM     17  N   UNL     1       3.100  -2.611  25.803  0.00  0.00    -0.320 NA
ATOM     18  H   UNL     1       2.367  -3.073  26.344  0.00  0.00    +0.119 HD
ATOM     19  H   UNL     1       2.616  -1.893  25.260  0.00  0.00    +0.119 HD
ENDBRANCH  15  17
ENDBRANCH  13  15
ENDBRANCH   9  11
ENDBRANCH   7   9
ENDBRANCH   4   5
BRANCH   4  20
ATOM     20  C   UNL     1       8.542  -2.860  23.376  0.00  0.00    +0.060 C 
BRANCH  20  21
ATOM     21  C   UNL     1       8.103  -3.830  24.450  0.00  0.00    -0.046 A 
ATOM     22  C   UNL     1       6.820  -4.391  24.411  0.00  0.00    +0.004 A 
ATOM     23  C   UNL     1       6.373  -5.219  25.443  0.00  0.00    +0.000 A 
ATOM     24  C   UNL     1       7.209  -5.500  26.521  0.00  0.00    +0.000 A 
ATOM     25  C   UNL     1       8.496  -4.966  26.560  0.00  0.00    +0.000 A 
ATOM     26  C   UNL     1       8.945  -4.138  25.527  0.00  0.00    +0.004 A 
ENDBRANCH  20  21
ENDBRANCH   4  20
ENDBRANCH   1   4
BRANCH   1  27
ATOM     27  C   UNL     1       9.264   0.471  22.299  0.00  0.00    +0.042 C 
BRANCH  27  28
ATOM     28  C   UNL     1      10.183   1.662  22.060  0.00  0.00    +0.098 C 
BRANCH  28  31
ATOM     29  N   UNL     1      10.553   3.875  22.955  0.00  0.00    -0.304 N 
ATOM     30  H   UNL     1      10.683   4.162  21.991  0.00  0.00    +0.149 HD
ATOM     31  C   UNL     1      10.150   2.597  23.243  0.00  0.00    +0.214 C 
ATOM     32  O   UNL     1       9.778   2.238  24.355  0.00  0.00    -0.276 OA
BRANCH  29  33
ATOM     33  C   UNL     1      10.579   4.926  23.967  0.00  0.00    +0.161 C 
BRANCH  33  36
ATOM     34  N   UNL     1       8.153   5.031  24.326  0.00  0.00    -0.301 N 
ATOM     35  H   UNL     1       8.268   4.140  24.806  0.00  0.00    +0.150 HD
ATOM     36  C   UNL     1       9.245   5.674  23.793  0.00  0.00    +0.234 C 
ATOM     37  O   UNL     1       9.167   6.726  23.161  0.00  0.00    -0.274 OA
BRANCH  34  38
ATOM     38  C   UNL     1       6.790   5.552  24.206  0.00  0.00    +0.184 C 
BRANCH  38  39
ATOM     39  C   UNL     1       5.841   4.581  23.464  0.00  0.00    +0.014 C 
ATOM     40  C   UNL     1       6.537   3.804  22.341  0.00  0.00    +0.009 C 
ATOM     41  C   UNL     1       4.612   5.297  22.893  0.00  0.00    +0.009 C 
ENDBRANCH  38  39
BRANCH  38  42
ATOM     42  C   UNL     1       6.286   5.854  25.623  0.00  0.00    +0.328 C 
ATOM     43  O   UNL     1       6.337   6.964  26.145  0.00  0.00    -0.249 OA
BRANCH  42  45
ATOM     44  C   UNL     1       6.397   4.437  27.488  0.00  0.00    +0.280 C 
ATOM     45  O   UNL     1       5.802   4.730  26.222  0.00  0.00    -0.467 OA
ENDBRANCH  42  45
ENDBRANCH  38  42
ENDBRANCH  34  38
ENDBRANCH  33  36
BRANCH  33  46
ATOM     46  C   UNL     1      11.782   5.864  23.745  0.00  0.00    +0.012 C 
ATOM     47  C   UNL     1      12.989   5.091  23.198  0.00  0.00    +0.009 C 
ATOM     48  C   UNL     1      12.182   6.567  25.046  0.00  0.00    +0.009 C 
ENDBRANCH  33  46
ENDBRANCH  29  33
ENDBRANCH  28  31
ENDBRANCH  27  28
ENDBRANCH   1  27
TORSDOF 19
ENDMDL
MODEL 7
REMARK VINA RESULT:      -6.4      2.501      5.827
REMARK  Name = 
REMARK  26 active torsions:
REMARK  status: ('A' for Active; 'I' for Inactive)
REMARK    1  A    between atoms: C_1  and  O_2
REMARK    2  A    between atoms: O_2  and  C_3
REMARK    3  A    between atoms: C_3  and  C_5
REMARK    4  A    between atoms: C_5  and  N_7
REMARK    5  A    between atoms: C_5  and  C_45
REMARK    6  A    between atoms: C_8  and  C_10
REMARK    7  A    between atoms: C_10  and  N_12
REMARK    8  A    between atoms: C_10  and  C_42
REMARK    9  A    between atoms: C_13  and  C_15
REMARK   10  A    between atoms: C_15  and  C_16
REMARK   11  A    between atoms: C_16  and  C_17
REMARK   12  A    between atoms: C_17  and  O_19
REMARK   13  A    between atoms: C_17  and  C_20
REMARK   14  A    between atoms: C_20  and  C_22
REMARK   15  A    between atoms: C_20  and  N_29
REMARK   16  A    between atoms: C_22  and  C_23
REMARK   17  A    between atoms: C_30  and  C_32
REMARK   18  A    between atoms: C_32  and  C_34
REMARK   19  A    between atoms: C_32  and  N_35
REMARK   20  A    between atoms: C_36  and  C_38
REMARK   21  A    between atoms: C_38  and  C_40
REMARK   22  A    between atoms: C_38  and  N_41
REMARK   23  A    between atoms: C_42  and  C_43
REMARK   24  A    between atoms: C_42  and  C_44
REMARK   25  A    between atoms: C_45  and  C_46
REMARK   26  A    between atoms: C_45  and  C_47
REMARK                            x       y       z     vdW  Elec       q    Type
REMARK                         _______ _______ _______ _____ _____    ______ ____
ROOT
ATOM      1  C   UNL     1       7.766  -2.281  26.275  0.00  0.00    +0.135 C 
ENDROOT
BRANCH   1   2
ATOM      2  O   UNL     1       8.344  -1.350  25.348  0.00  0.00    -0.390 OA
ATOM      3  H   UNL     1       9.189  -1.720  25.037  0.00  0.00    +0.210 HD
ENDBRANCH   1   2
BRANCH   1   4
ATOM      4  C   UNL     1       8.128  -3.730  25.852  0.00  0.00    +0.106 C 
BRANCH   4   5
ATOM      5  N   UNL     1       6.917  -4.555  25.935  0.00  0.00    -0.308 N 
ATOM      6  H   UNL     1       6.402  -4.665  25.061  0.00  0.00    +0.149 HD
ATOM      7  C   UNL     1       6.712  -5.519  26.892  0.00  0.00    +0.233 C 
ATOM      8  O   UNL     1       7.543  -5.778  27.763  0.00  0.00    -0.274 OA
BRANCH   7   9
ATOM      9  C   UNL     1       5.410  -6.341  26.730  0.00  0.00    +0.156 C 
ATOM     10  C   UNL     1       4.677  -6.629  28.042  0.00  0.00    +0.038 C 
BRANCH   9  11
ATOM     11  N   UNL     1       4.557  -5.735  25.718  0.00  0.00    -0.303 N 
ATOM     12  H   UNL     1       4.276  -4.761  25.804  0.00  0.00    +0.149 HD
ATOM     13  C   UNL     1       4.237  -6.355  24.535  0.00  0.00    +0.230 C 
ATOM     14  O   UNL     1       4.592  -7.498  24.265  0.00  0.00    -0.274 OA
BRANCH  13  15
ATOM     15  C   UNL     1       3.325  -5.516  23.617  0.00  0.00    +0.135 C 
ATOM     16  C   UNL     1       2.208  -4.884  24.442  0.00  0.00    +0.033 C 
BRANCH  15  17
ATOM     17  N   UNL     1       2.770  -6.352  22.527  0.00  0.00    -0.320 NA
ATOM     18  H   UNL     1       2.557  -5.748  21.732  0.00  0.00    +0.119 HD
ATOM     19  H   UNL     1       3.511  -6.974  22.196  0.00  0.00    +0.119 HD
ENDBRANCH  15  17
ENDBRANCH  13  15
ENDBRANCH   9  11
ENDBRANCH   7   9
ENDBRANCH   4   5
BRANCH   4  20
ATOM     20  C   UNL     1       8.712  -3.852  24.430  0.00  0.00    +0.060 C 
BRANCH  20  21
ATOM     21  C   UNL     1       7.756  -4.319  23.357  0.00  0.00    -0.046 A 
ATOM     22  C   UNL     1       7.763  -5.658  22.941  0.00  0.00    +0.004 A 
ATOM     23  C   UNL     1       6.946  -6.081  21.891  0.00  0.00    +0.000 A 
ATOM     24  C   UNL     1       6.108  -5.171  21.250  0.00  0.00    +0.000 A 
ATOM     25  C   UNL     1       6.075  -3.843  21.669  0.00  0.00    +0.000 A 
ATOM     26  C   UNL     1       6.892  -3.418  22.721  0.00  0.00    +0.004 A 
ENDBRANCH  20  21
ENDBRANCH   4  20
ENDBRANCH   1   4
BRANCH   1  27
ATOM     27  C   UNL     1       6.248  -2.022  26.331  0.00  0.00    +0.042 C 
BRANCH  27  28
ATOM     28  C   UNL     1       5.875  -0.720  27.029  0.00  0.00    +0.098 C 
BRANCH  28  31
ATOM     29  N   UNL     1       6.049   0.867  25.216  0.00  0.00    -0.304 N 
ATOM     30  H   UNL     1       7.022   0.586  25.162  0.00  0.00    +0.149 HD
ATOM     31  C   UNL     1       5.191   0.217  26.063  0.00  0.00    +0.214 C 
ATOM     32  O   UNL     1       3.974   0.360  26.036  0.00  0.00    -0.276 OA
BRANCH  29  33
ATOM     33  C   UNL     1       5.576   1.806  24.203  0.00  0.00    +0.161 C 
BRANCH  33  36
ATOM     34  N   UNL     1       8.004   2.039  23.928  0.00  0.00    -0.301 N 
ATOM     35  H   UNL     1       8.051   1.871  24.932  0.00  0.00    +0.150 HD
ATOM     36  C   UNL     1       6.788   2.040  23.285  0.00  0.00    +0.234 C 
ATOM     37  O   UNL     1       6.659   2.283  22.087  0.00  0.00    -0.274 OA
BRANCH  34  38
ATOM     38  C   UNL     1       9.266   2.308  23.236  0.00  0.00    +0.184 C 
BRANCH  38  39
ATOM     39  C   UNL     1      10.120   3.386  23.947  0.00  0.00    +0.014 C 
ATOM     40  C   UNL     1       9.358   4.694  24.182  0.00  0.00    +0.009 C 
ATOM     41  C   UNL     1      11.417   3.687  23.189  0.00  0.00    +0.009 C 
ENDBRANCH  38  39
BRANCH  38  42
ATOM     42  C   UNL     1      10.022   0.978  23.125  0.00  0.00    +0.328 C 
ATOM     43  O   UNL     1      10.553   0.412  24.076  0.00  0.00    -0.249 OA
BRANCH  42  45
ATOM     44  C   UNL     1       9.325  -0.691  21.634  0.00  0.00    +0.280 C 
ATOM     45  O   UNL     1      10.040   0.529  21.840  0.00  0.00    -0.467 OA
ENDBRANCH  42  45
ENDBRANCH  38  42
ENDBRANCH  34  38
ENDBRANCH  33  36
BRANCH  33  46
ATOM     46  C   UNL     1       5.104   3.119  24.858  0.00  0.00    +0.012 C 
ATOM     47  C   UNL     1       4.833   4.196  23.800  0.00  0.00    +0.009 C 
ATOM     48  C   UNL     1       6.140   3.643  25.857  0.00  0.00    +0.009 C 
ENDBRANCH  33  46
ENDBRANCH  29  33
ENDBRANCH  28  31
ENDBRANCH  27  28
ENDBRANCH   1  27
TORSDOF 19
ENDMDL
MODEL 8
REMARK VINA RESULT:      -6.4      1.483      3.196
REMARK  Name = 
REMARK  26 active torsions:
REMARK  status: ('A' for Active; 'I' for Inactive)
REMARK    1  A    between atoms: C_1  and  O_2
REMARK    2  A    between atoms: O_2  and  C_3
REMARK    3  A    between atoms: C_3  and  C_5
REMARK    4  A    between atoms: C_5  and  N_7
REMARK    5  A    between atoms: C_5  and  C_45
REMARK    6  A    between atoms: C_8  and  C_10
REMARK    7  A    between atoms: C_10  and  N_12
REMARK    8  A    between atoms: C_10  and  C_42
REMARK    9  A    between atoms: C_13  and  C_15
REMARK   10  A    between atoms: C_15  and  C_16
REMARK   11  A    between atoms: C_16  and  C_17
REMARK   12  A    between atoms: C_17  and  O_19
REMARK   13  A    between atoms: C_17  and  C_20
REMARK   14  A    between atoms: C_20  and  C_22
REMARK   15  A    between atoms: C_20  and  N_29
REMARK   16  A    between atoms: C_22  and  C_23
REMARK   17  A    between atoms: C_30  and  C_32
REMARK   18  A    between atoms: C_32  and  C_34
REMARK   19  A    between atoms: C_32  and  N_35
REMARK   20  A    between atoms: C_36  and  C_38
REMARK   21  A    between atoms: C_38  and  C_40
REMARK   22  A    between atoms: C_38  and  N_41
REMARK   23  A    between atoms: C_42  and  C_43
REMARK   24  A    between atoms: C_42  and  C_44
REMARK   25  A    between atoms: C_45  and  C_46
REMARK   26  A    between atoms: C_45  and  C_47
REMARK                            x       y       z     vdW  Elec       q    Type
REMARK                         _______ _______ _______ _____ _____    ______ ____
ROOT
ATOM      1  C   UNL     1       9.826  -1.134  22.660  0.00  0.00    +0.135 C 
ENDROOT
BRANCH   1   2
ATOM      2  O   UNL     1      10.764  -1.461  21.625  0.00  0.00    -0.390 OA
ATOM      3  H   UNL     1      10.614  -2.387  21.363  0.00  0.00    +0.210 HD
ENDBRANCH   1   2
BRANCH   1   4
ATOM      4  C   UNL     1       8.880  -2.341  22.906  0.00  0.00    +0.106 C 
BRANCH   4   5
ATOM      5  N   UNL     1       8.603  -2.430  24.344  0.00  0.00    -0.308 N 
ATOM      6  H   UNL     1       9.347  -2.843  24.908  0.00  0.00    +0.149 HD
ATOM      7  C   UNL     1       7.713  -1.617  25.004  0.00  0.00    +0.233 C 
ATOM      8  O   UNL     1       7.075  -0.732  24.436  0.00  0.00    -0.274 OA
BRANCH   7   9
ATOM      9  C   UNL     1       7.655  -1.816  26.539  0.00  0.00    +0.156 C 
ATOM     10  C   UNL     1       7.062  -0.632  27.306  0.00  0.00    +0.038 C 
BRANCH   9  11
ATOM     11  N   UNL     1       7.014  -3.083  26.857  0.00  0.00    -0.303 N 
ATOM     12  H   UNL     1       5.999  -3.153  26.872  0.00  0.00    +0.149 HD
ATOM     13  C   UNL     1       7.703  -4.265  26.974  0.00  0.00    +0.230 C 
ATOM     14  O   UNL     1       8.926  -4.335  26.884  0.00  0.00    -0.274 OA
BRANCH  13  15
ATOM     15  C   UNL     1       6.812  -5.478  27.309  0.00  0.00    +0.135 C 
ATOM     16  C   UNL     1       5.610  -5.507  26.370  0.00  0.00    +0.033 C 
BRANCH  15  17
ATOM     17  N   UNL     1       6.378  -5.432  28.725  0.00  0.00    -0.320 NA
ATOM     18  H   UNL     1       5.357  -5.405  28.749  0.00  0.00    +0.119 HD
ATOM     19  H   UNL     1       6.631  -6.320  29.163  0.00  0.00    +0.119 HD
ENDBRANCH  15  17
ENDBRANCH  13  15
ENDBRANCH   9  11
ENDBRANCH   7   9
ENDBRANCH   4   5
BRANCH   4  20
ATOM     20  C   UNL     1       7.540  -2.266  22.147  0.00  0.00    +0.060 C 
BRANCH  20  21
ATOM     21  C   UNL     1       6.649  -3.483  22.252  0.00  0.00    -0.046 A 
ATOM     22  C   UNL     1       5.342  -3.359  22.741  0.00  0.00    +0.004 A 
ATOM     23  C   UNL     1       4.541  -4.488  22.924  0.00  0.00    +0.000 A 
ATOM     24  C   UNL     1       5.037  -5.752  22.613  0.00  0.00    +0.000 A 
ATOM     25  C   UNL     1       6.327  -5.886  22.104  0.00  0.00    +0.000 A 
ATOM     26  C   UNL     1       7.130  -4.756  21.919  0.00  0.00    +0.004 A 
ENDBRANCH  20  21
ENDBRANCH   4  20
ENDBRANCH   1   4
BRANCH   1  27
ATOM     27  C   UNL     1       9.081   0.149  22.244  0.00  0.00    +0.042 C 
BRANCH  27  28
ATOM     28  C   UNL     1      10.005   1.324  21.947  0.00  0.00    +0.098 C 
BRANCH  28  31
ATOM     29  N   UNL     1      10.462   3.519  22.845  0.00  0.00    -0.304 N 
ATOM     30  H   UNL     1      10.479   3.829  21.879  0.00  0.00    +0.149 HD
ATOM     31  C   UNL     1      10.102   2.232  23.148  0.00  0.00    +0.214 C 
ATOM     32  O   UNL     1       9.862   1.846  24.286  0.00  0.00    -0.276 OA
BRANCH  29  33
ATOM     33  C   UNL     1      10.597   4.549  23.871  0.00  0.00    +0.161 C 
BRANCH  33  36
ATOM     34  N   UNL     1       8.337   4.640  24.823  0.00  0.00    -0.301 N 
ATOM     35  H   UNL     1       8.629   3.840  25.383  0.00  0.00    +0.150 HD
ATOM     36  C   UNL     1       9.215   5.222  23.940  0.00  0.00    +0.234 C 
ATOM     37  O   UNL     1       8.910   6.158  23.203  0.00  0.00    -0.274 OA
BRANCH  34  38
ATOM     38  C   UNL     1       6.955   5.097  24.984  0.00  0.00    +0.184 C 
BRANCH  38  39
ATOM     39  C   UNL     1       5.932   4.166  24.291  0.00  0.00    +0.014 C 
ATOM     40  C   UNL     1       6.432   2.724  24.153  0.00  0.00    +0.009 C 
ATOM     41  C   UNL     1       5.515   4.689  22.913  0.00  0.00    +0.009 C 
ENDBRANCH  38  39
BRANCH  38  42
ATOM     42  C   UNL     1       6.680   5.211  26.489  0.00  0.00    +0.328 C 
ATOM     43  O   UNL     1       5.828   5.950  26.975  0.00  0.00    -0.249 OA
BRANCH  42  45
ATOM     44  C   UNL     1       6.854   3.355  27.910  0.00  0.00    +0.280 C 
ATOM     45  O   UNL     1       7.515   4.407  27.203  0.00  0.00    -0.467 OA
ENDBRANCH  42  45
ENDBRANCH  38  42
ENDBRANCH  34  38
ENDBRANCH  33  36
BRANCH  33  46
ATOM     46  C   UNL     1      11.696   5.558  23.486  0.00  0.00    +0.012 C 
ATOM     47  C   UNL     1      12.946   4.839  22.964  0.00  0.00    +0.009 C 
ATOM     48  C   UNL     1      12.082   6.438  24.678  0.00  0.00    +0.009 C 
ENDBRANCH  33  46
ENDBRANCH  29  33
ENDBRANCH  28  31
ENDBRANCH  27  28
ENDBRANCH   1  27
TORSDOF 19
ENDMDL
MODEL 9
REMARK VINA RESULT:      -6.4      2.312      7.995
REMARK  Name = 
REMARK  26 active torsions:
REMARK  status: ('A' for Active; 'I' for Inactive)
REMARK    1  A    between atoms: C_1  and  O_2
REMARK    2  A    between atoms: O_2  and  C_3
REMARK    3  A    between atoms: C_3  and  C_5
REMARK    4  A    between atoms: C_5  and  N_7
REMARK    5  A    between atoms: C_5  and  C_45
REMARK    6  A    between atoms: C_8  and  C_10
REMARK    7  A    between atoms: C_10  and  N_12
REMARK    8  A    between atoms: C_10  and  C_42
REMARK    9  A    between atoms: C_13  and  C_15
REMARK   10  A    between atoms: C_15  and  C_16
REMARK   11  A    between atoms: C_16  and  C_17
REMARK   12  A    between atoms: C_17  and  O_19
REMARK   13  A    between atoms: C_17  and  C_20
REMARK   14  A    between atoms: C_20  and  C_22
REMARK   15  A    between atoms: C_20  and  N_29
REMARK   16  A    between atoms: C_22  and  C_23
REMARK   17  A    between atoms: C_30  and  C_32
REMARK   18  A    between atoms: C_32  and  C_34
REMARK   19  A    between atoms: C_32  and  N_35
REMARK   20  A    between atoms: C_36  and  C_38
REMARK   21  A    between atoms: C_38  and  C_40
REMARK   22  A    between atoms: C_38  and  N_41
REMARK   23  A    between atoms: C_42  and  C_43
REMARK   24  A    between atoms: C_42  and  C_44
REMARK   25  A    between atoms: C_45  and  C_46
REMARK   26  A    between atoms: C_45  and  C_47
REMARK                            x       y       z     vdW  Elec       q    Type
REMARK                         _______ _______ _______ _____ _____    ______ ____
ROOT
ATOM      1  C   UNL     1       7.140   0.291  23.437  0.00  0.00    +0.135 C 
ENDROOT
BRANCH   1   2
ATOM      2  O   UNL     1       6.201  -0.783  23.591  0.00  0.00    -0.390 OA
ATOM      3  H   UNL     1       6.360  -1.201  24.456  0.00  0.00    +0.210 HD
ENDBRANCH   1   2
BRANCH   1   4
ATOM      4  C   UNL     1       6.383   1.596  23.068  0.00  0.00    +0.106 C 
BRANCH   4   5
ATOM      5  N   UNL     1       6.134   2.354  24.300  0.00  0.00    -0.308 N 
ATOM      6  H   UNL     1       6.911   2.934  24.620  0.00  0.00    +0.149 HD
ATOM      7  C   UNL     1       4.883   2.707  24.742  0.00  0.00    +0.233 C 
ATOM      8  O   UNL     1       3.856   2.419  24.128  0.00  0.00    -0.274 OA
BRANCH   7   9
ATOM      9  C   UNL     1       4.860   3.596  26.010  0.00  0.00    +0.156 C 
ATOM     10  C   UNL     1       3.500   4.229  26.312  0.00  0.00    +0.038 C 
BRANCH   9  11
ATOM     11  N   UNL     1       5.417   2.870  27.142  0.00  0.00    -0.303 N 
ATOM     12  H   UNL     1       4.841   2.210  27.660  0.00  0.00    +0.149 HD
ATOM     13  C   UNL     1       6.752   2.887  27.461  0.00  0.00    +0.230 C 
ATOM     14  O   UNL     1       7.574   3.570  26.856  0.00  0.00    -0.274 OA
BRANCH  13  15
ATOM     15  C   UNL     1       7.111   2.037  28.697  0.00  0.00    +0.135 C 
ATOM     16  C   UNL     1       5.864   1.321  29.206  0.00  0.00    +0.033 C 
BRANCH  15  17
ATOM     17  N   UNL     1       7.706   2.883  29.758  0.00  0.00    -0.320 NA
ATOM     18  H   UNL     1       8.173   2.274  30.433  0.00  0.00    +0.119 HD
ATOM     19  H   UNL     1       8.455   3.437  29.338  0.00  0.00    +0.119 HD
ENDBRANCH  15  17
ENDBRANCH  13  15
ENDBRANCH   9  11
ENDBRANCH   7   9
ENDBRANCH   4   5
BRANCH   4  20
ATOM     20  C   UNL     1       7.128   2.504  22.069  0.00  0.00    +0.060 C 
BRANCH  20  21
ATOM     21  C   UNL     1       7.839   3.699  22.662  0.00  0.00    -0.046 A 
ATOM     22  C   UNL     1       7.371   4.995  22.408  0.00  0.00    +0.004 A 
ATOM     23  C   UNL     1       8.069   6.109  22.877  0.00  0.00    +0.000 A 
ATOM     24  C   UNL     1       9.242   5.937  23.611  0.00  0.00    +0.000 A 
ATOM     25  C   UNL     1       9.705   4.653  23.889  0.00  0.00    +0.000 A 
ATOM     26  C   UNL     1       9.006   3.537  23.421  0.00  0.00    +0.004 A 
ENDBRANCH  20  21
ENDBRANCH   4  20
ENDBRANCH   1   4
BRANCH   1  27
ATOM     27  C   UNL     1       8.181  -0.130  22.381  0.00  0.00    +0.042 C 
BRANCH  27  28
ATOM     28  C   UNL     1       9.593  -0.268  22.935  0.00  0.00    +0.098 C 
BRANCH  28  31
ATOM     29  N   UNL     1       8.999  -2.112  24.378  0.00  0.00    -0.304 N 
ATOM     30  H   UNL     1       8.188  -1.557  24.629  0.00  0.00    +0.149 HD
ATOM     31  C   UNL     1       9.844  -1.685  23.388  0.00  0.00    +0.214 C 
ATOM     32  O   UNL     1      10.719  -2.388  22.894  0.00  0.00    -0.276 OA
BRANCH  29  33
ATOM     33  C   UNL     1       9.079  -3.457  24.939  0.00  0.00    +0.161 C 
BRANCH  33  36
ATOM     34  N   UNL     1       6.902  -3.759  23.847  0.00  0.00    -0.301 N 
ATOM     35  H   UNL     1       6.669  -2.850  24.242  0.00  0.00    +0.150 HD
ATOM     36  C   UNL     1       8.145  -4.307  24.060  0.00  0.00    +0.234 C 
ATOM     37  O   UNL     1       8.471  -5.420  23.651  0.00  0.00    -0.274 OA
BRANCH  34  38
ATOM     38  C   UNL     1       5.853  -4.446  23.090  0.00  0.00    +0.184 C 
BRANCH  38  39
ATOM     39  C   UNL     1       4.481  -4.415  23.806  0.00  0.00    +0.014 C 
ATOM     40  C   UNL     1       4.599  -4.507  25.331  0.00  0.00    +0.009 C 
ATOM     41  C   UNL     1       3.544  -5.519  23.305  0.00  0.00    +0.009 C 
ENDBRANCH  38  39
BRANCH  38  42
ATOM     42  C   UNL     1       5.778  -3.788  21.707  0.00  0.00    +0.328 C 
ATOM     43  O   UNL     1       5.697  -2.576  21.529  0.00  0.00    -0.249 OA
BRANCH  42  45
ATOM     44  C   UNL     1       6.506  -5.917  21.048  0.00  0.00    +0.280 C 
ATOM     45  O   UNL     1       5.793  -4.723  20.717  0.00  0.00    -0.467 OA
ENDBRANCH  42  45
ENDBRANCH  38  42
ENDBRANCH  34  38
ENDBRANCH  33  36
BRANCH  33  46
ATOM     46  C   UNL     1       8.622  -3.459  26.412  0.00  0.00    +0.012 C 
ATOM     47  C   UNL     1       8.050  -4.826  26.809  0.00  0.00    +0.009 C 
ATOM     48  C   UNL     1       7.567  -2.378  26.665  0.00  0.00    +0.009 C 
ENDBRANCH  33  46
ENDBRANCH  29  33
ENDBRANCH  28  31
ENDBRANCH  27  28
ENDBRANCH   1  27
TORSDOF 19
ENDMDL
