MODEL 1
REMARK VINA RESULT:      -7.3      0.000      0.000
REMARK  Name = 
REMARK  5 active torsions:
REMARK  status: ('A' for Active; 'I' for Inactive)
REMARK    1  A    between atoms: O_1  and  C_2
REMARK    2  A    between atoms: C_2  and  C_25
REMARK    3  A    between atoms: C_6  and  C_8
REMARK    4  A    between atoms: C_9  and  N_10
REMARK    5  A    between atoms: N_10  and  C_11
REMARK                            x       y       z     vdW  Elec       q    Type
REMARK                         _______ _______ _______ _____ _____    ______ ____
ROOT
ATOM      1  C   UNL     1       7.368  -3.418  24.337  0.00  0.00    +0.061 A 
ATOM      2  C   UNL     1       7.291  -2.651  23.155  0.00  0.00    +0.018 A 
ATOM      3  C   UNL     1       6.846  -3.169  21.932  0.00  0.00    +0.042 A 
ATOM      4  C   UNL     1       6.443  -4.480  21.864  0.00  0.00    +0.160 A 
ATOM      5  F   UNL     1       6.032  -4.986  20.694  0.00  0.00    -0.202 F 
ATOM      6  C   UNL     1       6.495  -5.276  22.993  0.00  0.00    +0.180 A 
ATOM      7  F   UNL     1       6.159  -6.569  22.840  0.00  0.00    -0.201 F 
ATOM      8  C   UNL     1       6.934  -4.780  24.253  0.00  0.00    +0.082 A 
ENDROOT
BRANCH   1  12
ATOM      9  C   UNL     1       8.010   0.270  25.849  0.00  0.00    +0.112 C 
ATOM     10  C   UNL     1       6.707  -0.586  26.106  0.00  0.00    +0.146 C 
ATOM     11  N   UNL     1       7.632  -1.715  26.280  0.00  0.00    -0.292 N 
ATOM     12  C   UNL     1       8.043  -2.860  25.577  0.00  0.00    +0.249 C 
ATOM     13  O   UNL     1       9.106  -3.397  25.923  0.00  0.00    -0.270 OA
ATOM     14  C   UNL     1       8.616  -0.763  26.871  0.00  0.00    +0.146 C 
BRANCH   9  15
ATOM     15  C   UNL     1       8.463   0.186  24.352  0.00  0.00    +0.088 C 
ATOM     16  N   UNL     1       7.991   1.361  23.583  0.00  0.00    -0.311 NA
ATOM     17  H   UNL     1       6.998   1.516  23.731  0.00  0.00    +0.122 HD
ATOM     18  C   UNL     1       8.247   1.222  22.151  0.00  0.00    +0.081 C 
ATOM     19  C   UNL     1       9.735   1.041  21.884  0.00  0.00    +0.015 C 
ATOM     20  C   UNL     1      10.263  -0.173  22.644  0.00  0.00    +0.003 C 
ATOM     21  C   UNL     1       9.968  -0.033  24.148  0.00  0.00    +0.021 C 
ENDBRANCH   9  15
BRANCH   9  22
ATOM     22  O   UNL     1       7.967   1.653  26.295  0.00  0.00    -0.384 OA
ATOM     23  H   UNL     1       8.572   2.149  25.719  0.00  0.00    +0.210 HD
ENDBRANCH   9  22
ENDBRANCH   1  12
BRANCH   8  24
ATOM     24  N   UNL     1       6.992  -5.682  25.366  0.00  0.00    -0.309 N 
ATOM     25  H   UNL     1       7.334  -6.601  25.067  0.00  0.00    +0.152 HD
BRANCH  24  26
ATOM     26  C   UNL     1       6.009  -5.794  26.390  0.00  0.00    +0.067 A 
ATOM     27  C   UNL     1       6.149  -5.061  27.579  0.00  0.00    +0.027 A 
ATOM     28  C   UNL     1       5.147  -5.063  28.554  0.00  0.00    +0.016 A 
ATOM     29  C   UNL     1       4.002  -5.834  28.366  0.00  0.00    +0.016 A 
ATOM     30  I   UNL     1       2.507  -5.807  29.814  0.00  0.00    -0.044 I 
ATOM     31  C   UNL     1       3.853  -6.606  27.216  0.00  0.00    +0.054 A 
ATOM     32  C   UNL     1       4.856  -6.578  26.241  0.00  0.00    +0.145 A 
ATOM     33  F   UNL     1       4.676  -7.294  25.117  0.00  0.00    -0.204 F 
ENDBRANCH  24  26
ENDBRANCH   8  24
TORSDOF 5
ENDMDL
MODEL 2
REMARK VINA RESULT:      -7.1      4.277      6.218
REMARK  Name = 
REMARK  5 active torsions:
REMARK  status: ('A' for Active; 'I' for Inactive)
REMARK    1  A    between atoms: O_1  and  C_2
REMARK    2  A    between atoms: C_2  and  C_25
REMARK    3  A    between atoms: C_6  and  C_8
REMARK    4  A    between atoms: C_9  and  N_10
REMARK    5  A    between atoms: N_10  and  C_11
REMARK                            x       y       z     vdW  Elec       q    Type
REMARK                         _______ _______ _______ _____ _____    ______ ____
ROOT
ATOM      1  C   UNL     1       8.114   1.604  24.215  0.00  0.00    +0.061 A 
ATOM      2  C   UNL     1       9.194   2.460  23.908  0.00  0.00    +0.018 A 
ATOM      3  C   UNL     1      10.535   2.084  24.053  0.00  0.00    +0.042 A 
ATOM      4  C   UNL     1      10.835   0.819  24.495  0.00  0.00    +0.160 A 
ATOM      5  F   UNL     1      12.116   0.458  24.650  0.00  0.00    -0.202 F 
ATOM      6  C   UNL     1       9.816  -0.062  24.806  0.00  0.00    +0.180 A 
ATOM      7  F   UNL     1      10.177  -1.257  25.305  0.00  0.00    -0.201 F 
ATOM      8  C   UNL     1       8.442   0.285  24.663  0.00  0.00    +0.082 A 
ENDROOT
BRANCH   1  12
ATOM      9  C   UNL     1       6.245   4.874  22.761  0.00  0.00    +0.112 C 
ATOM     10  C   UNL     1       6.471   3.540  21.946  0.00  0.00    +0.146 C 
ATOM     11  N   UNL     1       6.084   2.860  23.191  0.00  0.00    -0.292 N 
ATOM     12  C   UNL     1       6.690   2.133  24.229  0.00  0.00    +0.249 C 
ATOM     13  O   UNL     1       6.059   2.006  25.288  0.00  0.00    -0.270 OA
ATOM     14  C   UNL     1       5.151   3.990  23.468  0.00  0.00    +0.146 C 
BRANCH   9  15
ATOM     15  C   UNL     1       7.522   5.270  23.577  0.00  0.00    +0.088 C 
ATOM     16  N   UNL     1       8.420   6.136  22.780  0.00  0.00    -0.311 NA
ATOM     17  H   UNL     1       8.595   5.733  21.865  0.00  0.00    +0.122 HD
ATOM     18  C   UNL     1       9.696   6.374  23.452  0.00  0.00    +0.081 C 
ATOM     19  C   UNL     1       9.478   7.029  24.808  0.00  0.00    +0.015 C 
ATOM     20  C   UNL     1       8.571   6.159  25.674  0.00  0.00    +0.003 C 
ATOM     21  C   UNL     1       7.239   5.892  24.952  0.00  0.00    +0.021 C 
ENDBRANCH   9  15
BRANCH   9  22
ATOM     22  O   UNL     1       5.748   6.011  22.003  0.00  0.00    -0.384 OA
ATOM     23  H   UNL     1       6.469   6.663  21.977  0.00  0.00    +0.210 HD
ENDBRANCH   9  22
ENDBRANCH   1  12
BRANCH   8  24
ATOM     24  N   UNL     1       7.446  -0.675  25.043  0.00  0.00    -0.309 N 
ATOM     25  H   UNL     1       7.481  -0.847  26.052  0.00  0.00    +0.152 HD
BRANCH  24  26
ATOM     26  C   UNL     1       7.118  -1.856  24.318  0.00  0.00    +0.067 A 
ATOM     27  C   UNL     1       6.452  -1.759  23.086  0.00  0.00    +0.027 A 
ATOM     28  C   UNL     1       6.217  -2.890  22.299  0.00  0.00    +0.016 A 
ATOM     29  C   UNL     1       6.615  -4.145  22.755  0.00  0.00    +0.016 A 
ATOM     30  I   UNL     1       6.281  -5.816  21.561  0.00  0.00    -0.044 I 
ATOM     31  C   UNL     1       7.240  -4.278  23.993  0.00  0.00    +0.054 A 
ATOM     32  C   UNL     1       7.486  -3.135  24.760  0.00  0.00    +0.145 A 
ATOM     33  F   UNL     1       8.130  -3.276  25.932  0.00  0.00    -0.204 F 
ENDBRANCH  24  26
ENDBRANCH   8  24
TORSDOF 5
ENDMDL
MODEL 3
REMARK VINA RESULT:      -7.1      3.865      6.886
REMARK  Name = 
REMARK  5 active torsions:
REMARK  status: ('A' for Active; 'I' for Inactive)
REMARK    1  A    between atoms: O_1  and  C_2
REMARK    2  A    between atoms: C_2  and  C_25
REMARK    3  A    between atoms: C_6  and  C_8
REMARK    4  A    between atoms: C_9  and  N_10
REMARK    5  A    between atoms: N_10  and  C_11
REMARK                            x       y       z     vdW  Elec       q    Type
REMARK                         _______ _______ _______ _____ _____    ______ ____
ROOT
ATOM      1  C   UNL     1       6.605  -3.655  25.401  0.00  0.00    +0.061 A 
ATOM      2  C   UNL     1       6.995  -4.696  26.271  0.00  0.00    +0.018 A 
ATOM      3  C   UNL     1       8.298  -5.209  26.318  0.00  0.00    +0.042 A 
ATOM      4  C   UNL     1       9.261  -4.674  25.498  0.00  0.00    +0.160 A 
ATOM      5  F   UNL     1      10.504  -5.170  25.526  0.00  0.00    -0.202 F 
ATOM      6  C   UNL     1       8.934  -3.649  24.628  0.00  0.00    +0.180 A 
ATOM      7  F   UNL     1       9.904  -3.224  23.800  0.00  0.00    -0.201 F 
ATOM      8  C   UNL     1       7.622  -3.099  24.561  0.00  0.00    +0.082 A 
ENDROOT
BRANCH   1  12
ATOM      9  C   UNL     1       3.317  -5.438  23.882  0.00  0.00    +0.112 C 
ATOM     10  C   UNL     1       3.829  -5.626  25.365  0.00  0.00    +0.146 C 
ATOM     11  N   UNL     1       4.061  -4.175  25.338  0.00  0.00    -0.292 N 
ATOM     12  C   UNL     1       5.141  -3.280  25.254  0.00  0.00    +0.249 C 
ATOM     13  O   UNL     1       4.895  -2.110  24.923  0.00  0.00    -0.270 OA
ATOM     14  C   UNL     1       2.865  -4.044  24.456  0.00  0.00    +0.146 C 
BRANCH   9  15
ATOM     15  C   UNL     1       4.501  -5.473  22.859  0.00  0.00    +0.088 C 
ATOM     16  N   UNL     1       4.883  -4.107  22.435  0.00  0.00    -0.311 NA
ATOM     17  H   UNL     1       4.069  -3.577  22.142  0.00  0.00    +0.122 HD
ATOM     18  C   UNL     1       5.865  -4.119  21.352  0.00  0.00    +0.081 C 
ATOM     19  C   UNL     1       7.125  -4.860  21.774  0.00  0.00    +0.015 C 
ATOM     20  C   UNL     1       6.781  -6.284  22.202  0.00  0.00    +0.003 C 
ATOM     21  C   UNL     1       5.730  -6.265  23.326  0.00  0.00    +0.021 C 
ENDBRANCH   9  15
BRANCH   9  22
ATOM     22  O   UNL     1       2.246  -6.326  23.458  0.00  0.00    -0.384 OA
ATOM     23  H   UNL     1       2.221  -7.056  24.100  0.00  0.00    +0.210 HD
ENDBRANCH   9  22
ENDBRANCH   1  12
BRANCH   8  24
ATOM     24  N   UNL     1       7.358  -2.064  23.605  0.00  0.00    -0.309 N 
ATOM     25  H   UNL     1       7.185  -2.466  22.678  0.00  0.00    +0.152 HD
BRANCH  24  26
ATOM     26  C   UNL     1       8.051  -0.823  23.519  0.00  0.00    +0.067 A 
ATOM     27  C   UNL     1       7.998   0.085  24.589  0.00  0.00    +0.027 A 
ATOM     28  C   UNL     1       8.757   1.259  24.581  0.00  0.00    +0.016 A 
ATOM     29  C   UNL     1       9.554   1.559  23.479  0.00  0.00    +0.016 A 
ATOM     30  I   UNL     1      10.698   3.298  23.493  0.00  0.00    -0.044 I 
ATOM     31  C   UNL     1       9.595   0.699  22.383  0.00  0.00    +0.054 A 
ATOM     32  C   UNL     1       8.845  -0.482  22.415  0.00  0.00    +0.145 A 
ATOM     33  F   UNL     1       8.930  -1.322  21.368  0.00  0.00    -0.204 F 
ENDBRANCH  24  26
ENDBRANCH   8  24
TORSDOF 5
ENDMDL
MODEL 4
REMARK VINA RESULT:      -7.0      3.043      4.553
REMARK  Name = 
REMARK  5 active torsions:
REMARK  status: ('A' for Active; 'I' for Inactive)
REMARK    1  A    between atoms: O_1  and  C_2
REMARK    2  A    between atoms: C_2  and  C_25
REMARK    3  A    between atoms: C_6  and  C_8
REMARK    4  A    between atoms: C_9  and  N_10
REMARK    5  A    between atoms: N_10  and  C_11
REMARK                            x       y       z     vdW  Elec       q    Type
REMARK                         _______ _______ _______ _____ _____    ______ ____
ROOT
ATOM      1  C   UNL     1       7.546  -0.838  24.760  0.00  0.00    +0.061 A 
ATOM      2  C   UNL     1       7.391   0.452  25.311  0.00  0.00    +0.018 A 
ATOM      3  C   UNL     1       6.739   0.694  26.526  0.00  0.00    +0.042 A 
ATOM      4  C   UNL     1       6.235  -0.365  27.241  0.00  0.00    +0.160 A 
ATOM      5  F   UNL     1       5.596  -0.139  28.396  0.00  0.00    -0.202 F 
ATOM      6  C   UNL     1       6.362  -1.651  26.749  0.00  0.00    +0.180 A 
ATOM      7  F   UNL     1       5.780  -2.633  27.460  0.00  0.00    -0.201 F 
ATOM      8  C   UNL     1       7.026  -1.933  25.522  0.00  0.00    +0.082 A 
ENDROOT
BRANCH   1  12
ATOM      9  C   UNL     1       9.642   1.442  22.170  0.00  0.00    +0.112 C 
ATOM     10  C   UNL     1      10.293   0.515  23.272  0.00  0.00    +0.146 C 
ATOM     11  N   UNL     1       9.282  -0.471  22.863  0.00  0.00    -0.292 N 
ATOM     12  C   UNL     1       8.083  -1.017  23.350  0.00  0.00    +0.249 C 
ATOM     13  O   UNL     1       7.343  -1.596  22.541  0.00  0.00    -0.270 OA
ATOM     14  C   UNL     1       9.396   0.053  21.471  0.00  0.00    +0.146 C 
BRANCH   9  15
ATOM     15  C   UNL     1       8.406   2.219  22.734  0.00  0.00    +0.088 C 
ATOM     16  N   UNL     1       8.749   3.629  23.030  0.00  0.00    -0.311 NA
ATOM     17  H   UNL     1       9.593   3.686  23.591  0.00  0.00    +0.122 HD
ATOM     18  C   UNL     1       7.666   4.328  23.720  0.00  0.00    +0.081 C 
ATOM     19  C   UNL     1       6.394   4.310  22.884  0.00  0.00    +0.015 C 
ATOM     20  C   UNL     1       5.990   2.872  22.569  0.00  0.00    +0.003 C 
ATOM     21  C   UNL     1       7.143   2.135  21.865  0.00  0.00    +0.021 C 
ENDBRANCH   9  15
BRANCH   9  22
ATOM     22  O   UNL     1      10.546   2.347  21.479  0.00  0.00    -0.384 OA
ATOM     23  H   UNL     1      11.400   1.888  21.412  0.00  0.00    +0.210 HD
ENDBRANCH   9  22
ENDBRANCH   1  12
BRANCH   8  24
ATOM     24  N   UNL     1       7.082  -3.292  25.065  0.00  0.00    -0.309 N 
ATOM     25  H   UNL     1       7.786  -3.394  24.327  0.00  0.00    +0.152 HD
BRANCH  24  26
ATOM     26  C   UNL     1       5.957  -4.134  24.840  0.00  0.00    +0.067 A 
ATOM     27  C   UNL     1       4.912  -3.700  24.009  0.00  0.00    +0.027 A 
ATOM     28  C   UNL     1       3.850  -4.546  23.679  0.00  0.00    +0.016 A 
ATOM     29  C   UNL     1       3.800  -5.833  24.211  0.00  0.00    +0.016 A 
ATOM     30  I   UNL     1       2.225  -7.091  23.691  0.00  0.00    -0.044 I 
ATOM     31  C   UNL     1       4.800  -6.278  25.073  0.00  0.00    +0.054 A 
ATOM     32  C   UNL     1       5.867  -5.426  25.378  0.00  0.00    +0.145 A 
ATOM     33  F   UNL     1       6.846  -5.886  26.177  0.00  0.00    -0.204 F 
ENDBRANCH  24  26
ENDBRANCH   8  24
TORSDOF 5
ENDMDL
MODEL 5
REMARK VINA RESULT:      -6.9      2.889      4.270
REMARK  Name = 
REMARK  5 active torsions:
REMARK  status: ('A' for Active; 'I' for Inactive)
REMARK    1  A    between atoms: O_1  and  C_2
REMARK    2  A    between atoms: C_2  and  C_25
REMARK    3  A    between atoms: C_6  and  C_8
REMARK    4  A    between atoms: C_9  and  N_10
REMARK    5  A    between atoms: N_10  and  C_11
REMARK                            x       y       z     vdW  Elec       q    Type
REMARK                         _______ _______ _______ _____ _____    ______ ____
ROOT
ATOM      1  C   UNL     1       8.141  -3.740  24.207  0.00  0.00    +0.061 A 
ATOM      2  C   UNL     1       9.261  -4.331  24.830  0.00  0.00    +0.018 A 
ATOM      3  C   UNL     1       9.182  -5.041  26.035  0.00  0.00    +0.042 A 
ATOM      4  C   UNL     1       7.962  -5.196  26.645  0.00  0.00    +0.160 A 
ATOM      5  F   UNL     1       7.882  -5.861  27.805  0.00  0.00    -0.202 F 
ATOM      6  C   UNL     1       6.831  -4.641  26.075  0.00  0.00    +0.180 A 
ATOM      7  F   UNL     1       5.682  -4.765  26.763  0.00  0.00    -0.201 F 
ATOM      8  C   UNL     1       6.874  -3.920  24.848  0.00  0.00    +0.082 A 
ENDROOT
BRANCH   1  12
ATOM      9  C   UNL     1       9.157   0.134  23.692  0.00  0.00    +0.112 C 
ATOM     10  C   UNL     1      10.193  -1.054  23.799  0.00  0.00    +0.146 C 
ATOM     11  N   UNL     1       9.264  -1.781  22.922  0.00  0.00    -0.292 N 
ATOM     12  C   UNL     1       8.320  -2.817  23.013  0.00  0.00    +0.249 C 
ATOM     13  O   UNL     1       7.488  -2.921  22.099  0.00  0.00    -0.270 OA
ATOM     14  C   UNL     1       8.942  -0.484  22.260  0.00  0.00    +0.146 C 
BRANCH   9  15
ATOM     15  C   UNL     1       8.007  -0.013  24.745  0.00  0.00    +0.088 C 
ATOM     16  N   UNL     1       8.324   0.723  25.990  0.00  0.00    -0.311 NA
ATOM     17  H   UNL     1       9.253   0.488  26.324  0.00  0.00    +0.122 HD
ATOM     18  C   UNL     1       7.353   0.458  27.050  0.00  0.00    +0.081 C 
ATOM     19  C   UNL     1       5.950   0.848  26.606  0.00  0.00    +0.015 C 
ATOM     20  C   UNL     1       5.572   0.097  25.332  0.00  0.00    +0.003 C 
ATOM     21  C   UNL     1       6.611   0.360  24.228  0.00  0.00    +0.021 C 
ENDBRANCH   9  15
BRANCH   9  22
ATOM     22  O   UNL     1       9.715   1.476  23.726  0.00  0.00    -0.384 OA
ATOM     23  H   UNL     1       9.509   1.883  22.867  0.00  0.00    +0.210 HD
ENDBRANCH   9  22
ENDBRANCH   1  12
BRANCH   8  24
ATOM     24  N   UNL     1       5.661  -3.344  24.345  0.00  0.00    -0.309 N 
ATOM     25  H   UNL     1       5.481  -2.440  24.792  0.00  0.00    +0.152 HD
BRANCH  24  26
ATOM     26  C   UNL     1       4.455  -4.054  24.087  0.00  0.00    +0.067 A 
ATOM     27  C   UNL     1       4.451  -5.122  23.175  0.00  0.00    +0.027 A 
ATOM     28  C   UNL     1       3.311  -5.908  22.985  0.00  0.00    +0.016 A 
ATOM     29  C   UNL     1       2.142  -5.612  23.682  0.00  0.00    +0.016 A 
ATOM     30  I   UNL     1       0.461  -6.807  23.409  0.00  0.00    -0.044 I 
ATOM     31  C   UNL     1       2.102  -4.532  24.563  0.00  0.00    +0.054 A 
ATOM     32  C   UNL     1       3.257  -3.766  24.757  0.00  0.00    +0.145 A 
ATOM     33  F   UNL     1       3.214  -2.756  25.643  0.00  0.00    -0.204 F 
ENDBRANCH  24  26
ENDBRANCH   8  24
TORSDOF 5
ENDMDL
MODEL 6
REMARK VINA RESULT:      -6.8      3.594      7.386
REMARK  Name = 
REMARK  5 active torsions:
REMARK  status: ('A' for Active; 'I' for Inactive)
REMARK    1  A    between atoms: O_1  and  C_2
REMARK    2  A    between atoms: C_2  and  C_25
REMARK    3  A    between atoms: C_6  and  C_8
REMARK    4  A    between atoms: C_9  and  N_10
REMARK    5  A    between atoms: N_10  and  C_11
REMARK                            x       y       z     vdW  Elec       q    Type
REMARK                         _______ _______ _______ _____ _____    ______ ____
ROOT
ATOM      1  C   UNL     1       5.561  -4.872  24.736  0.00  0.00    +0.061 A 
ATOM      2  C   UNL     1       4.641  -5.562  23.918  0.00  0.00    +0.018 A 
ATOM      3  C   UNL     1       4.850  -5.789  22.552  0.00  0.00    +0.042 A 
ATOM      4  C   UNL     1       6.010  -5.343  21.966  0.00  0.00    +0.160 A 
ATOM      5  F   UNL     1       6.209  -5.543  20.657  0.00  0.00    -0.202 F 
ATOM      6  C   UNL     1       6.947  -4.664  22.723  0.00  0.00    +0.180 A 
ATOM      7  F   UNL     1       8.023  -4.188  22.072  0.00  0.00    -0.201 F 
ATOM      8  C   UNL     1       6.770  -4.423  24.115  0.00  0.00    +0.082 A 
ENDROOT
BRANCH   1  12
ATOM      9  C   UNL     1       3.610  -6.654  27.789  0.00  0.00    +0.112 C 
ATOM     10  C   UNL     1       5.156  -6.812  27.505  0.00  0.00    +0.146 C 
ATOM     11  N   UNL     1       5.131  -5.364  27.250  0.00  0.00    -0.292 N 
ATOM     12  C   UNL     1       5.190  -4.484  26.157  0.00  0.00    +0.249 C 
ATOM     13  O   UNL     1       4.800  -3.320  26.333  0.00  0.00    -0.270 OA
ATOM     14  C   UNL     1       4.079  -5.240  28.300  0.00  0.00    +0.146 C 
BRANCH   9  15
ATOM     15  C   UNL     1       2.775  -6.726  26.466  0.00  0.00    +0.088 C 
ATOM     16  N   UNL     1       2.731  -8.108  25.935  0.00  0.00    -0.311 NA
ATOM     17  H   UNL     1       3.664  -8.506  25.885  0.00  0.00    +0.122 HD
ATOM     18  C   UNL     1       2.110  -8.172  24.614  0.00  0.00    +0.081 C 
ATOM     19  C   UNL     1       0.688  -7.631  24.660  0.00  0.00    +0.015 C 
ATOM     20  C   UNL     1       0.685  -6.198  25.185  0.00  0.00    +0.003 C 
ATOM     21  C   UNL     1       1.363  -6.133  26.565  0.00  0.00    +0.021 C 
ENDBRANCH   9  15
BRANCH   9  22
ATOM     22  O   UNL     1       3.050  -7.539  28.798  0.00  0.00    -0.384 OA
ATOM     23  H   UNL     1       2.175  -7.182  29.025  0.00  0.00    +0.210 HD
ENDBRANCH   9  22
ENDBRANCH   1  12
BRANCH   8  24
ATOM     24  N   UNL     1       7.774  -3.679  24.818  0.00  0.00    -0.309 N 
ATOM     25  H   UNL     1       7.677  -3.813  25.829  0.00  0.00    +0.152 HD
BRANCH  24  26
ATOM     26  C   UNL     1       8.197  -2.357  24.499  0.00  0.00    +0.067 A 
ATOM     27  C   UNL     1       7.301  -1.284  24.631  0.00  0.00    +0.027 A 
ATOM     28  C   UNL     1       7.718   0.035  24.434  0.00  0.00    +0.016 A 
ATOM     29  C   UNL     1       9.035   0.296  24.064  0.00  0.00    +0.016 A 
ATOM     30  I   UNL     1       9.649   2.268  23.799  0.00  0.00    -0.044 I 
ATOM     31  C   UNL     1       9.937  -0.751  23.883  0.00  0.00    +0.054 A 
ATOM     32  C   UNL     1       9.510  -2.065  24.103  0.00  0.00    +0.145 A 
ATOM     33  F   UNL     1      10.404  -3.060  23.968  0.00  0.00    -0.204 F 
ENDBRANCH  24  26
ENDBRANCH   8  24
TORSDOF 5
ENDMDL
MODEL 7
REMARK VINA RESULT:      -6.8      4.181      7.467
REMARK  Name = 
REMARK  5 active torsions:
REMARK  status: ('A' for Active; 'I' for Inactive)
REMARK    1  A    between atoms: O_1  and  C_2
REMARK    2  A    between atoms: C_2  and  C_25
REMARK    3  A    between atoms: C_6  and  C_8
REMARK    4  A    between atoms: C_9  and  N_10
REMARK    5  A    between atoms: N_10  and  C_11
REMARK                            x       y       z     vdW  Elec       q    Type
REMARK                         _______ _______ _______ _____ _____    ______ ____
ROOT
ATOM      1  C   UNL     1       7.713  -1.308  24.402  0.00  0.00    +0.061 A 
ATOM      2  C   UNL     1       8.696  -2.297  24.622  0.00  0.00    +0.018 A 
ATOM      3  C   UNL     1       9.852  -2.416  23.841  0.00  0.00    +0.042 A 
ATOM      4  C   UNL     1      10.068  -1.524  22.818  0.00  0.00    +0.160 A 
ATOM      5  F   UNL     1      11.164  -1.642  22.058  0.00  0.00    -0.202 F 
ATOM      6  C   UNL     1       9.139  -0.533  22.562  0.00  0.00    +0.180 A 
ATOM      7  F   UNL     1       9.373   0.258  21.500  0.00  0.00    -0.201 F 
ATOM      8  C   UNL     1       7.957  -0.379  23.340  0.00  0.00    +0.082 A 
ENDROOT
BRANCH   1  12
ATOM      9  C   UNL     1       5.410  -4.214  26.000  0.00  0.00    +0.112 C 
ATOM     10  C   UNL     1       6.600  -3.500  26.757  0.00  0.00    +0.146 C 
ATOM     11  N   UNL     1       6.067  -2.262  26.170  0.00  0.00    -0.292 N 
ATOM     12  C   UNL     1       6.391  -1.353  25.149  0.00  0.00    +0.249 C 
ATOM     13  O   UNL     1       5.495  -0.599  24.742  0.00  0.00    -0.270 OA
ATOM     14  C   UNL     1       4.698  -2.841  26.297  0.00  0.00    +0.146 C 
BRANCH   9  15
ATOM     15  C   UNL     1       5.793  -4.547  24.519  0.00  0.00    +0.088 C 
ATOM     16  N   UNL     1       7.093  -5.251  24.447  0.00  0.00    -0.311 NA
ATOM     17  H   UNL     1       7.803  -4.757  24.980  0.00  0.00    +0.122 HD
ATOM     18  C   UNL     1       7.556  -5.416  23.070  0.00  0.00    +0.081 C 
ATOM     19  C   UNL     1       6.541  -6.201  22.251  0.00  0.00    +0.015 C 
ATOM     20  C   UNL     1       5.185  -5.500  22.281  0.00  0.00    +0.003 C 
ATOM     21  C   UNL     1       4.715  -5.307  23.733  0.00  0.00    +0.021 C 
ENDBRANCH   9  15
BRANCH   9  22
ATOM     22  O   UNL     1       4.840  -5.379  26.658  0.00  0.00    -0.384 OA
ATOM     23  H   UNL     1       5.520  -6.073  26.628  0.00  0.00    +0.210 HD
ENDBRANCH   9  22
ENDBRANCH   1  12
BRANCH   8  24
ATOM     24  N   UNL     1       7.027   0.653  22.984  0.00  0.00    -0.309 N 
ATOM     25  H   UNL     1       6.591   0.447  22.080  0.00  0.00    +0.152 HD
BRANCH  24  26
ATOM     26  C   UNL     1       7.236   2.050  23.162  0.00  0.00    +0.067 A 
ATOM     27  C   UNL     1       7.193   2.912  22.054  0.00  0.00    +0.027 A 
ATOM     28  C   UNL     1       7.282   4.298  22.210  0.00  0.00    +0.016 A 
ATOM     29  C   UNL     1       7.454   4.841  23.482  0.00  0.00    +0.016 A 
ATOM     30  I   UNL     1       7.559   6.907  23.702  0.00  0.00    -0.044 I 
ATOM     31  C   UNL     1       7.542   4.009  24.597  0.00  0.00    +0.054 A 
ATOM     32  C   UNL     1       7.432   2.625  24.426  0.00  0.00    +0.145 A 
ATOM     33  F   UNL     1       7.475   1.839  25.516  0.00  0.00    -0.204 F 
ENDBRANCH  24  26
ENDBRANCH   8  24
TORSDOF 5
ENDMDL
MODEL 8
REMARK VINA RESULT:      -6.7      4.066      7.542
REMARK  Name = 
REMARK  5 active torsions:
REMARK  status: ('A' for Active; 'I' for Inactive)
REMARK    1  A    between atoms: O_1  and  C_2
REMARK    2  A    between atoms: C_2  and  C_25
REMARK    3  A    between atoms: C_6  and  C_8
REMARK    4  A    between atoms: C_9  and  N_10
REMARK    5  A    between atoms: N_10  and  C_11
REMARK                            x       y       z     vdW  Elec       q    Type
REMARK                         _______ _______ _______ _____ _____    ______ ____
ROOT
ATOM      1  C   UNL     1       5.982  -2.910  25.227  0.00  0.00    +0.061 A 
ATOM      2  C   UNL     1       4.609  -3.236  25.217  0.00  0.00    +0.018 A 
ATOM      3  C   UNL     1       3.667  -2.615  26.047  0.00  0.00    +0.042 A 
ATOM      4  C   UNL     1       4.077  -1.625  26.907  0.00  0.00    +0.160 A 
ATOM      5  F   UNL     1       3.184  -1.039  27.714  0.00  0.00    -0.202 F 
ATOM      6  C   UNL     1       5.411  -1.263  26.955  0.00  0.00    +0.180 A 
ATOM      7  F   UNL     1       5.757  -0.343  27.871  0.00  0.00    -0.201 F 
ATOM      8  C   UNL     1       6.393  -1.868  26.120  0.00  0.00    +0.082 A 
ENDROOT
BRANCH   1  12
ATOM      9  C   UNL     1       5.786  -5.456  22.100  0.00  0.00    +0.112 C 
ATOM     10  C   UNL     1       5.961  -3.891  21.967  0.00  0.00    +0.146 C 
ATOM     11  N   UNL     1       6.916  -4.028  23.077  0.00  0.00    -0.292 N 
ATOM     12  C   UNL     1       6.982  -3.751  24.453  0.00  0.00    +0.249 C 
ATOM     13  O   UNL     1       7.857  -4.328  25.115  0.00  0.00    -0.270 OA
ATOM     14  C   UNL     1       7.299  -5.361  22.527  0.00  0.00    +0.146 C 
BRANCH   9  15
ATOM     15  C   UNL     1       4.727  -5.822  23.194  0.00  0.00    +0.088 C 
ATOM     16  N   UNL     1       3.434  -6.202  22.581  0.00  0.00    -0.311 NA
ATOM     17  H   UNL     1       3.137  -5.509  21.902  0.00  0.00    +0.122 HD
ATOM     18  C   UNL     1       2.380  -6.377  23.580  0.00  0.00    +0.081 C 
ATOM     19  C   UNL     1       2.766  -7.450  24.588  0.00  0.00    +0.015 C 
ATOM     20  C   UNL     1       4.088  -7.090  25.261  0.00  0.00    +0.003 C 
ATOM     21  C   UNL     1       5.187  -6.883  24.204  0.00  0.00    +0.021 C 
ENDBRANCH   9  15
BRANCH   9  22
ATOM     22  O   UNL     1       5.520  -6.177  20.866  0.00  0.00    -0.384 OA
ATOM     23  H   UNL     1       6.363  -6.574  20.590  0.00  0.00    +0.210 HD
ENDBRANCH   9  22
ENDBRANCH   1  12
BRANCH   8  24
ATOM     24  N   UNL     1       7.761  -1.460  26.259  0.00  0.00    -0.309 N 
ATOM     25  H   UNL     1       8.034  -1.454  27.247  0.00  0.00    +0.152 HD
BRANCH  24  26
ATOM     26  C   UNL     1       8.387  -0.408  25.532  0.00  0.00    +0.067 A 
ATOM     27  C   UNL     1       7.918   0.908  25.662  0.00  0.00    +0.027 A 
ATOM     28  C   UNL     1       8.581   1.976  25.050  0.00  0.00    +0.016 A 
ATOM     29  C   UNL     1       9.706   1.734  24.266  0.00  0.00    +0.016 A 
ATOM     30  I   UNL     1      10.697   3.337  23.382  0.00  0.00    -0.044 I 
ATOM     31  C   UNL     1      10.171   0.433  24.083  0.00  0.00    +0.054 A 
ATOM     32  C   UNL     1       9.508  -0.623  24.718  0.00  0.00    +0.145 A 
ATOM     33  F   UNL     1       9.996  -1.868  24.568  0.00  0.00    -0.204 F 
ENDBRANCH  24  26
ENDBRANCH   8  24
TORSDOF 5
ENDMDL
MODEL 9
REMARK VINA RESULT:      -6.7      4.388      8.004
REMARK  Name = 
REMARK  5 active torsions:
REMARK  status: ('A' for Active; 'I' for Inactive)
REMARK    1  A    between atoms: O_1  and  C_2
REMARK    2  A    between atoms: C_2  and  C_25
REMARK    3  A    between atoms: C_6  and  C_8
REMARK    4  A    between atoms: C_9  and  N_10
REMARK    5  A    between atoms: N_10  and  C_11
REMARK                            x       y       z     vdW  Elec       q    Type
REMARK                         _______ _______ _______ _____ _____    ______ ____
ROOT
ATOM      1  C   UNL     1       6.030  -1.268  24.190  0.00  0.00    +0.061 A 
ATOM      2  C   UNL     1       5.480  -1.889  25.332  0.00  0.00    +0.018 A 
ATOM      3  C   UNL     1       4.960  -1.175  26.418  0.00  0.00    +0.042 A 
ATOM      4  C   UNL     1       4.957   0.198  26.380  0.00  0.00    +0.160 A 
ATOM      5  F   UNL     1       4.475   0.888  27.423  0.00  0.00    -0.202 F 
ATOM      6  C   UNL     1       5.480   0.859  25.283  0.00  0.00    +0.180 A 
ATOM      7  F   UNL     1       5.516   2.201  25.344  0.00  0.00    -0.201 F 
ATOM      8  C   UNL     1       6.009   0.163  24.160  0.00  0.00    +0.082 A 
ENDROOT
BRANCH   1  12
ATOM      9  C   UNL     1       6.123  -5.165  23.141  0.00  0.00    +0.112 C 
ATOM     10  C   UNL     1       5.078  -4.117  22.587  0.00  0.00    +0.146 C 
ATOM     11  N   UNL     1       6.231  -3.211  22.478  0.00  0.00    -0.292 N 
ATOM     12  C   UNL     1       6.757  -2.089  23.139  0.00  0.00    +0.249 C 
ATOM     13  O   UNL     1       7.948  -1.807  22.937  0.00  0.00    -0.270 OA
ATOM     14  C   UNL     1       7.077  -4.396  22.152  0.00  0.00    +0.146 C 
BRANCH   9  15
ATOM     15  C   UNL     1       6.349  -4.989  24.680  0.00  0.00    +0.088 C 
ATOM     16  N   UNL     1       5.550  -5.967  25.454  0.00  0.00    -0.311 NA
ATOM     17  H   UNL     1       4.581  -5.962  25.152  0.00  0.00    +0.122 HD
ATOM     18  C   UNL     1       5.606  -5.710  26.892  0.00  0.00    +0.081 C 
ATOM     19  C   UNL     1       7.042  -5.762  27.393  0.00  0.00    +0.015 C 
ATOM     20  C   UNL     1       7.902  -4.754  26.634  0.00  0.00    +0.003 C 
ATOM     21  C   UNL     1       7.819  -5.014  25.120  0.00  0.00    +0.021 C 
ENDBRANCH   9  15
BRANCH   9  22
ATOM     22  O   UNL     1       5.865  -6.559  22.816  0.00  0.00    -0.384 OA
ATOM     23  H   UNL     1       6.086  -7.074  23.610  0.00  0.00    +0.210 HD
ENDBRANCH   9  22
ENDBRANCH   1  12
BRANCH   8  24
ATOM     24  N   UNL     1       6.566   0.924  23.079  0.00  0.00    -0.309 N 
ATOM     25  H   UNL     1       6.861   0.304  22.318  0.00  0.00    +0.152 HD
BRANCH  24  26
ATOM     26  C   UNL     1       7.439   2.040  23.219  0.00  0.00    +0.067 A 
ATOM     27  C   UNL     1       7.041   3.304  22.757  0.00  0.00    +0.027 A 
ATOM     28  C   UNL     1       7.828   4.438  22.980  0.00  0.00    +0.016 A 
ATOM     29  C   UNL     1       9.048   4.314  23.640  0.00  0.00    +0.016 A 
ATOM     30  I   UNL     1      10.197   6.014  23.988  0.00  0.00    -0.044 I 
ATOM     31  C   UNL     1       9.491   3.065  24.073  0.00  0.00    +0.054 A 
ATOM     32  C   UNL     1       8.683   1.943  23.859  0.00  0.00    +0.145 A 
ATOM     33  F   UNL     1       9.105   0.753  24.323  0.00  0.00    -0.204 F 
ENDBRANCH  24  26
ENDBRANCH   8  24
TORSDOF 5
ENDMDL
