MODEL 1
REMARK VINA RESULT:      -7.6      0.000      0.000
REMARK  Name = 
REMARK  8 active torsions:
REMARK  status: ('A' for Active; 'I' for Inactive)
REMARK    1  A    between atoms: C_1  and  N_2
REMARK    2  A    between atoms: N_5  and  C_6
REMARK    3  A    between atoms: C_6  and  C_7
REMARK    4  A    between atoms: C_10  and  C_13
REMARK    5  A    between atoms: C_13  and  O_14
REMARK    6  A    between atoms: C_22  and  C_24
REMARK    7  A    between atoms: C_25  and  C_26
REMARK    8  A    between atoms: C_26  and  C_27
REMARK                            x       y       z     vdW  Elec       q    Type
REMARK                         _______ _______ _______ _____ _____    ______ ____
ROOT
ATOM      1  C   UNL     1       9.705  -5.068  25.431  0.00  0.00    +0.154 C 
ATOM      2  N   UNL     1       8.589  -4.230  25.836  0.00  0.00    -0.296 N 
ATOM      3  C   UNL     1       8.478  -2.904  25.354  0.00  0.00    +0.058 A 
ATOM      4  C   UNL     1       9.437  -2.337  24.503  0.00  0.00    +0.028 A 
ATOM      5  C   UNL     1       9.374  -0.983  24.169  0.00  0.00    +0.019 A 
ATOM      6  C   UNL     1       8.359  -0.184  24.689  0.00  0.00    +0.026 A 
ATOM      7  C   UNL     1       7.361  -0.745  25.481  0.00  0.00    +0.032 A 
ATOM      8  C   UNL     1       7.419  -2.108  25.794  0.00  0.00    +0.064 A 
ATOM      9  C   UNL     1       6.338  -2.725  26.585  0.00  0.00    +0.265 A 
ATOM     10  O   UNL     1       5.351  -2.056  26.877  0.00  0.00    -0.267 OA
ATOM     11  N   UNL     1       6.528  -4.047  26.957  0.00  0.00    -0.256 N 
ATOM     12  C   UNL     1       7.725  -4.724  26.807  0.00  0.00    +0.332 A 
ATOM     13  O   UNL     1       8.008  -5.717  27.480  0.00  0.00    -0.246 OA
ENDROOT
BRANCH   6  14
ATOM     14  C   UNL     1       8.358   1.212  24.423  0.00  0.00    -0.066 C 
ATOM     15  C   UNL     1       8.336   2.490  24.165  0.00  0.00    -0.092 C 
BRANCH  15  16
ATOM     16  C   UNL     1       8.310   3.980  23.864  0.00  0.00    +0.124 C 
BRANCH  16  17
ATOM     17  C   UNL     1       9.716   4.529  23.909  0.00  0.00    -0.036 A 
ATOM     18  C   UNL     1      10.782   3.800  23.360  0.00  0.00    +0.004 A 
ATOM     19  C   UNL     1      12.066   4.345  23.315  0.00  0.00    +0.000 A 
ATOM     20  C   UNL     1      12.298   5.625  23.818  0.00  0.00    +0.000 A 
ATOM     21  C   UNL     1      11.249   6.357  24.371  0.00  0.00    +0.000 A 
ATOM     22  C   UNL     1       9.963   5.813  24.416  0.00  0.00    +0.004 A 
ENDBRANCH  16  17
ENDBRANCH  15  16
ENDBRANCH   6  14
BRANCH  11  23
ATOM     23  C   UNL     1       5.476  -4.706  27.718  0.00  0.00    +0.165 C 
BRANCH  23  24
ATOM     24  C   UNL     1       4.599  -5.602  26.857  0.00  0.00    -0.027 A 
ATOM     25  C   UNL     1       3.323  -5.984  27.294  0.00  0.00    +0.006 A 
ATOM     26  C   UNL     1       2.560  -6.892  26.552  0.00  0.00    +0.015 A 
ATOM     27  C   UNL     1       3.052  -7.414  25.348  0.00  0.00    +0.059 A 
ATOM     28  C   UNL     1       4.306  -7.011  24.884  0.00  0.00    +0.015 A 
ATOM     29  C   UNL     1       5.065  -6.097  25.629  0.00  0.00    +0.006 A 
BRANCH  27  30
ATOM     30  C   UNL     1       2.239  -8.448  24.653  0.00  0.00    +0.337 C 
ATOM     31  O   UNL     1       1.621  -8.223  23.627  0.00  0.00    -0.245 OA
BRANCH  30  32
ATOM     32  O   UNL     1       2.266  -9.664  25.241  0.00  0.00    -0.477 OA
ATOM     33  H   UNL     1       2.221  -9.656  26.213  0.00  0.00    +0.295 HD
ENDBRANCH  30  32
ENDBRANCH  27  30
ENDBRANCH  23  24
ENDBRANCH  11  23
TORSDOF 7
ENDMDL
MODEL 2
REMARK VINA RESULT:      -7.3      1.078      1.662
REMARK  Name = 
REMARK  8 active torsions:
REMARK  status: ('A' for Active; 'I' for Inactive)
REMARK    1  A    between atoms: C_1  and  N_2
REMARK    2  A    between atoms: N_5  and  C_6
REMARK    3  A    between atoms: C_6  and  C_7
REMARK    4  A    between atoms: C_10  and  C_13
REMARK    5  A    between atoms: C_13  and  O_14
REMARK    6  A    between atoms: C_22  and  C_24
REMARK    7  A    between atoms: C_25  and  C_26
REMARK    8  A    between atoms: C_26  and  C_27
REMARK                            x       y       z     vdW  Elec       q    Type
REMARK                         _______ _______ _______ _____ _____    ______ ____
ROOT
ATOM      1  C   UNL     1       9.395  -5.551  25.239  0.00  0.00    +0.154 C 
ATOM      2  N   UNL     1       8.583  -4.416  25.646  0.00  0.00    -0.296 N 
ATOM      3  C   UNL     1       8.829  -3.131  25.106  0.00  0.00    +0.058 A 
ATOM      4  C   UNL     1       9.868  -2.890  24.196  0.00  0.00    +0.028 A 
ATOM      5  C   UNL     1      10.176  -1.587  23.802  0.00  0.00    +0.019 A 
ATOM      6  C   UNL     1       9.455  -0.514  24.321  0.00  0.00    +0.026 A 
ATOM      7  C   UNL     1       8.378  -0.740  25.173  0.00  0.00    +0.032 A 
ATOM      8  C   UNL     1       8.061  -2.052  25.547  0.00  0.00    +0.064 A 
ATOM      9  C   UNL     1       6.889  -2.307  26.404  0.00  0.00    +0.265 A 
ATOM     10  O   UNL     1       6.147  -1.375  26.701  0.00  0.00    -0.267 OA
ATOM     11  N   UNL     1       6.714  -3.615  26.830  0.00  0.00    -0.256 N 
ATOM     12  C   UNL     1       7.662  -4.610  26.668  0.00  0.00    +0.332 A 
ATOM     13  O   UNL     1       7.684  -5.618  27.376  0.00  0.00    -0.246 OA
ENDROOT
BRANCH   6  14
ATOM     14  C   UNL     1       9.837   0.814  23.991  0.00  0.00    -0.066 C 
ATOM     15  C   UNL     1      10.196   2.025  23.666  0.00  0.00    -0.092 C 
BRANCH  15  16
ATOM     16  C   UNL     1      10.614   3.436  23.286  0.00  0.00    +0.124 C 
BRANCH  16  17
ATOM     17  C   UNL     1       9.811   4.433  24.086  0.00  0.00    -0.036 A 
ATOM     18  C   UNL     1       8.713   4.011  24.852  0.00  0.00    +0.004 A 
ATOM     19  C   UNL     1       8.027   4.914  25.666  0.00  0.00    +0.000 A 
ATOM     20  C   UNL     1       8.432   6.247  25.726  0.00  0.00    +0.000 A 
ATOM     21  C   UNL     1       9.517   6.679  24.967  0.00  0.00    +0.000 A 
ATOM     22  C   UNL     1      10.205   5.777  24.151  0.00  0.00    +0.004 A 
ENDBRANCH  16  17
ENDBRANCH  15  16
ENDBRANCH   6  14
BRANCH  11  23
ATOM     23  C   UNL     1       5.556  -3.920  27.658  0.00  0.00    +0.165 C 
BRANCH  23  24
ATOM     24  C   UNL     1       4.557  -4.831  26.961  0.00  0.00    -0.027 A 
ATOM     25  C   UNL     1       4.026  -5.946  27.624  0.00  0.00    +0.006 A 
ATOM     26  C   UNL     1       3.190  -6.842  26.950  0.00  0.00    +0.015 A 
ATOM     27  C   UNL     1       2.854  -6.626  25.608  0.00  0.00    +0.059 A 
ATOM     28  C   UNL     1       3.347  -5.498  24.948  0.00  0.00    +0.015 A 
ATOM     29  C   UNL     1       4.181  -4.599  25.629  0.00  0.00    +0.006 A 
BRANCH  27  30
ATOM     30  C   UNL     1       2.042  -7.663  24.916  0.00  0.00    +0.337 C 
ATOM     31  O   UNL     1       0.888  -7.911  25.221  0.00  0.00    -0.245 OA
BRANCH  30  32
ATOM     32  O   UNL     1       2.683  -8.287  23.904  0.00  0.00    -0.477 OA
ATOM     33  H   UNL     1       2.131  -8.495  23.130  0.00  0.00    +0.295 HD
ENDBRANCH  30  32
ENDBRANCH  27  30
ENDBRANCH  23  24
ENDBRANCH  11  23
TORSDOF 7
ENDMDL
MODEL 3
REMARK VINA RESULT:      -7.1      1.721      2.008
REMARK  Name = 
REMARK  8 active torsions:
REMARK  status: ('A' for Active; 'I' for Inactive)
REMARK    1  A    between atoms: C_1  and  N_2
REMARK    2  A    between atoms: N_5  and  C_6
REMARK    3  A    between atoms: C_6  and  C_7
REMARK    4  A    between atoms: C_10  and  C_13
REMARK    5  A    between atoms: C_13  and  O_14
REMARK    6  A    between atoms: C_22  and  C_24
REMARK    7  A    between atoms: C_25  and  C_26
REMARK    8  A    between atoms: C_26  and  C_27
REMARK                            x       y       z     vdW  Elec       q    Type
REMARK                         _______ _______ _______ _____ _____    ______ ____
ROOT
ATOM      1  C   UNL     1       8.290  -5.418  24.331  0.00  0.00    +0.154 C 
ATOM      2  N   UNL     1       7.168  -4.551  24.647  0.00  0.00    -0.296 N 
ATOM      3  C   UNL     1       7.165  -3.201  24.222  0.00  0.00    +0.058 A 
ATOM      4  C   UNL     1       8.238  -2.639  23.517  0.00  0.00    +0.028 A 
ATOM      5  C   UNL     1       8.268  -1.269  23.246  0.00  0.00    +0.019 A 
ATOM      6  C   UNL     1       7.230  -0.451  23.685  0.00  0.00    +0.026 A 
ATOM      7  C   UNL     1       6.126  -1.003  24.327  0.00  0.00    +0.032 A 
ATOM      8  C   UNL     1       6.093  -2.380  24.577  0.00  0.00    +0.064 A 
ATOM      9  C   UNL     1       4.904  -2.984  25.205  0.00  0.00    +0.265 A 
ATOM     10  O   UNL     1       3.916  -2.285  25.415  0.00  0.00    -0.267 OA
ATOM     11  N   UNL     1       4.998  -4.328  25.530  0.00  0.00    -0.256 N 
ATOM     12  C   UNL     1       6.178  -5.050  25.485  0.00  0.00    +0.332 A 
ATOM     13  O   UNL     1       6.341  -6.084  26.136  0.00  0.00    -0.246 OA
ENDROOT
BRANCH   6  14
ATOM     14  C   UNL     1       7.314   0.955  23.491  0.00  0.00    -0.066 C 
ATOM     15  C   UNL     1       7.404   2.246  23.334  0.00  0.00    -0.092 C 
BRANCH  15  16
ATOM     16  C   UNL     1       7.510   3.751  23.151  0.00  0.00    +0.124 C 
BRANCH  16  17
ATOM     17  C   UNL     1       8.937   4.188  23.380  0.00  0.00    -0.036 A 
ATOM     18  C   UNL     1       9.992   3.273  23.241  0.00  0.00    +0.004 A 
ATOM     19  C   UNL     1      11.317   3.695  23.360  0.00  0.00    +0.000 A 
ATOM     20  C   UNL     1      11.603   5.035  23.615  0.00  0.00    +0.000 A 
ATOM     21  C   UNL     1      10.564   5.953  23.759  0.00  0.00    +0.000 A 
ATOM     22  C   UNL     1       9.237   5.533  23.641  0.00  0.00    +0.004 A 
ENDBRANCH  16  17
ENDBRANCH  15  16
ENDBRANCH   6  14
BRANCH  11  23
ATOM     23  C   UNL     1       3.839  -4.974  26.130  0.00  0.00    +0.165 C 
BRANCH  23  24
ATOM     24  C   UNL     1       3.043  -5.801  25.132  0.00  0.00    -0.027 A 
ATOM     25  C   UNL     1       2.838  -7.171  25.345  0.00  0.00    +0.006 A 
ATOM     26  C   UNL     1       2.198  -7.952  24.378  0.00  0.00    +0.015 A 
ATOM     27  C   UNL     1       1.732  -7.371  23.191  0.00  0.00    +0.059 A 
ATOM     28  C   UNL     1       1.897  -6.000  22.985  0.00  0.00    +0.015 A 
ATOM     29  C   UNL     1       2.535  -5.219  23.960  0.00  0.00    +0.006 A 
BRANCH  27  30
ATOM     30  C   UNL     1       1.148  -8.268  22.158  0.00  0.00    +0.337 C 
ATOM     31  O   UNL     1       1.201  -8.024  20.964  0.00  0.00    -0.245 OA
BRANCH  30  32
ATOM     32  O   UNL     1       0.578  -9.388  22.652  0.00  0.00    -0.477 OA
ATOM     33  H   UNL     1       1.192 -10.015  23.072  0.00  0.00    +0.295 HD
ENDBRANCH  30  32
ENDBRANCH  27  30
ENDBRANCH  23  24
ENDBRANCH  11  23
TORSDOF 7
ENDMDL
MODEL 4
REMARK VINA RESULT:      -7.1      3.111     10.996
REMARK  Name = 
REMARK  8 active torsions:
REMARK  status: ('A' for Active; 'I' for Inactive)
REMARK    1  A    between atoms: C_1  and  N_2
REMARK    2  A    between atoms: N_5  and  C_6
REMARK    3  A    between atoms: C_6  and  C_7
REMARK    4  A    between atoms: C_10  and  C_13
REMARK    5  A    between atoms: C_13  and  O_14
REMARK    6  A    between atoms: C_22  and  C_24
REMARK    7  A    between atoms: C_25  and  C_26
REMARK    8  A    between atoms: C_26  and  C_27
REMARK                            x       y       z     vdW  Elec       q    Type
REMARK                         _______ _______ _______ _____ _____    ______ ____
ROOT
ATOM      1  C   UNL     1       9.258  -4.074  26.433  0.00  0.00    +0.154 C 
ATOM      2  N   UNL     1       8.410  -3.790  25.288  0.00  0.00    -0.296 N 
ATOM      3  C   UNL     1       7.033  -4.115  25.320  0.00  0.00    +0.058 A 
ATOM      4  C   UNL     1       6.440  -4.743  26.425  0.00  0.00    +0.028 A 
ATOM      5  C   UNL     1       5.117  -5.184  26.362  0.00  0.00    +0.019 A 
ATOM      6  C   UNL     1       4.379  -5.009  25.194  0.00  0.00    +0.026 A 
ATOM      7  C   UNL     1       4.931  -4.329  24.112  0.00  0.00    +0.032 A 
ATOM      8  C   UNL     1       6.251  -3.871  24.189  0.00  0.00    +0.064 A 
ATOM      9  C   UNL     1       6.827  -3.099  23.072  0.00  0.00    +0.265 A 
ATOM     10  O   UNL     1       6.109  -2.786  22.127  0.00  0.00    -0.267 OA
ATOM     11  N   UNL     1       8.174  -2.789  23.172  0.00  0.00    -0.256 N 
ATOM     12  C   UNL     1       9.018  -3.322  24.129  0.00  0.00    +0.332 A 
ATOM     13  O   UNL     1      10.240  -3.369  23.975  0.00  0.00    -0.246 OA
ENDROOT
BRANCH   6  14
ATOM     14  C   UNL     1       3.067  -5.546  25.105  0.00  0.00    -0.066 C 
ATOM     15  C   UNL     1       1.855  -6.019  25.011  0.00  0.00    -0.092 C 
BRANCH  15  16
ATOM     16  C   UNL     1       0.443  -6.571  24.900  0.00  0.00    +0.124 C 
BRANCH  16  17
ATOM     17  C   UNL     1       0.461  -8.059  25.156  0.00  0.00    -0.036 A 
ATOM     18  C   UNL     1       0.457  -8.964  24.084  0.00  0.00    +0.004 A 
ATOM     19  C   UNL     1       0.568 -10.337  24.314  0.00  0.00    +0.000 A 
ATOM     20  C   UNL     1       0.686 -10.818  25.618  0.00  0.00    +0.000 A 
ATOM     21  C   UNL     1       0.686  -9.929  26.690  0.00  0.00    +0.000 A 
ATOM     22  C   UNL     1       0.575  -8.555  26.462  0.00  0.00    +0.004 A 
ENDBRANCH  16  17
ENDBRANCH  15  16
ENDBRANCH   6  14
BRANCH  11  23
ATOM     23  C   UNL     1       8.780  -2.007  22.103  0.00  0.00    +0.165 C 
BRANCH  23  24
ATOM     24  C   UNL     1       8.974  -0.546  22.479  0.00  0.00    -0.027 A 
ATOM     25  C   UNL     1       9.673   0.322  21.630  0.00  0.00    +0.006 A 
ATOM     26  C   UNL     1       9.942   1.638  22.022  0.00  0.00    +0.015 A 
ATOM     27  C   UNL     1       9.496   2.113  23.262  0.00  0.00    +0.059 A 
ATOM     28  C   UNL     1       8.766   1.268  24.101  0.00  0.00    +0.015 A 
ATOM     29  C   UNL     1       8.494  -0.049  23.701  0.00  0.00    +0.006 A 
BRANCH  27  30
ATOM     30  C   UNL     1       9.896   3.487  23.668  0.00  0.00    +0.337 C 
ATOM     31  O   UNL     1       9.164   4.228  24.303  0.00  0.00    -0.245 OA
BRANCH  30  32
ATOM     32  O   UNL     1      11.147   3.834  23.297  0.00  0.00    -0.477 OA
ATOM     33  H   UNL     1      11.451   4.699  23.625  0.00  0.00    +0.295 HD
ENDBRANCH  30  32
ENDBRANCH  27  30
ENDBRANCH  23  24
ENDBRANCH  11  23
TORSDOF 7
ENDMDL
MODEL 5
REMARK VINA RESULT:      -7.1      3.723     11.075
REMARK  Name = 
REMARK  8 active torsions:
REMARK  status: ('A' for Active; 'I' for Inactive)
REMARK    1  A    between atoms: C_1  and  N_2
REMARK    2  A    between atoms: N_5  and  C_6
REMARK    3  A    between atoms: C_6  and  C_7
REMARK    4  A    between atoms: C_10  and  C_13
REMARK    5  A    between atoms: C_13  and  O_14
REMARK    6  A    between atoms: C_22  and  C_24
REMARK    7  A    between atoms: C_25  and  C_26
REMARK    8  A    between atoms: C_26  and  C_27
REMARK                            x       y       z     vdW  Elec       q    Type
REMARK                         _______ _______ _______ _____ _____    ______ ____
ROOT
ATOM      1  C   UNL     1       9.492  -0.781  21.120  0.00  0.00    +0.154 C 
ATOM      2  N   UNL     1       8.777  -0.340  22.306  0.00  0.00    -0.296 N 
ATOM      3  C   UNL     1       8.537  -1.240  23.372  0.00  0.00    +0.058 A 
ATOM      4  C   UNL     1       8.942  -2.581  23.321  0.00  0.00    +0.028 A 
ATOM      5  C   UNL     1       8.556  -3.475  24.322  0.00  0.00    +0.019 A 
ATOM      6  C   UNL     1       7.756  -3.038  25.376  0.00  0.00    +0.026 A 
ATOM      7  C   UNL     1       7.402  -1.696  25.476  0.00  0.00    +0.032 A 
ATOM      8  C   UNL     1       7.810  -0.801  24.480  0.00  0.00    +0.064 A 
ATOM      9  C   UNL     1       7.489   0.632  24.605  0.00  0.00    +0.265 A 
ATOM     10  O   UNL     1       6.949   1.039  25.630  0.00  0.00    -0.267 OA
ATOM     11  N   UNL     1       7.819   1.431  23.521  0.00  0.00    -0.256 N 
ATOM     12  C   UNL     1       8.228   0.936  22.296  0.00  0.00    +0.332 A 
ATOM     13  O   UNL     1       8.128   1.590  21.256  0.00  0.00    -0.246 OA
ENDROOT
BRANCH   6  14
ATOM     14  C   UNL     1       7.289  -3.973  26.338  0.00  0.00    -0.066 C 
ATOM     15  C   UNL     1       6.836  -4.829  27.212  0.00  0.00    -0.092 C 
BRANCH  15  16
ATOM     16  C   UNL     1       6.308  -5.826  28.230  0.00  0.00    +0.124 C 
BRANCH  16  17
ATOM     17  C   UNL     1       4.947  -6.316  27.798  0.00  0.00    -0.036 A 
ATOM     18  C   UNL     1       3.870  -6.307  28.697  0.00  0.00    +0.004 A 
ATOM     19  C   UNL     1       2.590  -6.670  28.275  0.00  0.00    +0.000 A 
ATOM     20  C   UNL     1       2.372  -7.043  26.949  0.00  0.00    +0.000 A 
ATOM     21  C   UNL     1       3.434  -7.060  26.048  0.00  0.00    +0.000 A 
ATOM     22  C   UNL     1       4.716  -6.698  26.468  0.00  0.00    +0.004 A 
ENDBRANCH  16  17
ENDBRANCH  15  16
ENDBRANCH   6  14
BRANCH  11  23
ATOM     23  C   UNL     1       7.542   2.859  23.609  0.00  0.00    +0.165 C 
BRANCH  23  24
ATOM     24  C   UNL     1       8.807   3.703  23.630  0.00  0.00    -0.027 A 
ATOM     25  C   UNL     1      10.070   3.096  23.599  0.00  0.00    +0.006 A 
ATOM     26  C   UNL     1      11.231   3.865  23.724  0.00  0.00    +0.015 A 
ATOM     27  C   UNL     1      11.149   5.257  23.860  0.00  0.00    +0.059 A 
ATOM     28  C   UNL     1       9.898   5.876  23.855  0.00  0.00    +0.015 A 
ATOM     29  C   UNL     1       8.736   5.102  23.724  0.00  0.00    +0.006 A 
BRANCH  27  30
ATOM     30  C   UNL     1      12.412   6.011  24.088  0.00  0.00    +0.337 C 
ATOM     31  O   UNL     1      12.495   6.936  24.878  0.00  0.00    -0.245 OA
BRANCH  30  32
ATOM     32  O   UNL     1      13.463   5.567  23.365  0.00  0.00    -0.477 OA
ATOM     33  H   UNL     1      13.246   5.248  22.471  0.00  0.00    +0.295 HD
ENDBRANCH  30  32
ENDBRANCH  27  30
ENDBRANCH  23  24
ENDBRANCH  11  23
TORSDOF 7
ENDMDL
MODEL 6
REMARK VINA RESULT:      -6.7      4.643     10.808
REMARK  Name = 
REMARK  8 active torsions:
REMARK  status: ('A' for Active; 'I' for Inactive)
REMARK    1  A    between atoms: C_1  and  N_2
REMARK    2  A    between atoms: N_5  and  C_6
REMARK    3  A    between atoms: C_6  and  C_7
REMARK    4  A    between atoms: C_10  and  C_13
REMARK    5  A    between atoms: C_13  and  O_14
REMARK    6  A    between atoms: C_22  and  C_24
REMARK    7  A    between atoms: C_25  and  C_26
REMARK    8  A    between atoms: C_26  and  C_27
REMARK                            x       y       z     vdW  Elec       q    Type
REMARK                         _______ _______ _______ _____ _____    ______ ____
ROOT
ATOM      1  C   UNL     1       6.699   3.351  28.925  0.00  0.00    +0.154 C 
ATOM      2  N   UNL     1       6.619   3.049  27.506  0.00  0.00    -0.296 N 
ATOM      3  C   UNL     1       6.063   1.824  27.066  0.00  0.00    +0.058 A 
ATOM      4  C   UNL     1       5.601   0.850  27.963  0.00  0.00    +0.028 A 
ATOM      5  C   UNL     1       5.200  -0.405  27.500  0.00  0.00    +0.019 A 
ATOM      6  C   UNL     1       5.265  -0.698  26.140  0.00  0.00    +0.026 A 
ATOM      7  C   UNL     1       5.658   0.279  25.230  0.00  0.00    +0.032 A 
ATOM      8  C   UNL     1       6.039   1.542  25.699  0.00  0.00    +0.064 A 
ATOM      9  C   UNL     1       6.402   2.602  24.741  0.00  0.00    +0.265 A 
ATOM     10  O   UNL     1       6.273   2.393  23.538  0.00  0.00    -0.267 OA
ATOM     11  N   UNL     1       6.884   3.781  25.286  0.00  0.00    -0.256 N 
ATOM     12  C   UNL     1       7.223   3.932  26.619  0.00  0.00    +0.332 A 
ATOM     13  O   UNL     1       8.003   4.805  27.005  0.00  0.00    -0.246 OA
ENDROOT
BRANCH   6  14
ATOM     14  C   UNL     1       4.947  -2.008  25.688  0.00  0.00    -0.066 C 
ATOM     15  C   UNL     1       4.635  -3.200  25.264  0.00  0.00    -0.092 C 
BRANCH  15  16
ATOM     16  C   UNL     1       4.270  -4.590  24.768  0.00  0.00    +0.124 C 
BRANCH  16  17
ATOM     17  C   UNL     1       5.342  -5.089  23.829  0.00  0.00    -0.036 A 
ATOM     18  C   UNL     1       5.000  -5.622  22.577  0.00  0.00    +0.004 A 
ATOM     19  C   UNL     1       5.992  -5.996  21.670  0.00  0.00    +0.000 A 
ATOM     20  C   UNL     1       7.337  -5.840  22.003  0.00  0.00    +0.000 A 
ATOM     21  C   UNL     1       7.690  -5.317  23.245  0.00  0.00    +0.000 A 
ATOM     22  C   UNL     1       6.698  -4.941  24.154  0.00  0.00    +0.004 A 
ENDBRANCH  16  17
ENDBRANCH  15  16
ENDBRANCH   6  14
BRANCH  11  23
ATOM     23  C   UNL     1       7.233   4.866  24.379  0.00  0.00    +0.165 C 
BRANCH  23  24
ATOM     24  C   UNL     1       8.722   4.920  24.072  0.00  0.00    -0.027 A 
ATOM     25  C   UNL     1       9.399   6.148  24.040  0.00  0.00    +0.006 A 
ATOM     26  C   UNL     1      10.742   6.209  23.656  0.00  0.00    +0.015 A 
ATOM     27  C   UNL     1      11.437   5.040  23.319  0.00  0.00    +0.059 A 
ATOM     28  C   UNL     1      10.784   3.808  23.383  0.00  0.00    +0.015 A 
ATOM     29  C   UNL     1       9.438   3.750  23.774  0.00  0.00    +0.006 A 
BRANCH  27  30
ATOM     30  C   UNL     1      12.834   5.177  22.824  0.00  0.00    +0.337 C 
ATOM     31  O   UNL     1      13.100   5.546  21.692  0.00  0.00    -0.245 OA
BRANCH  30  32
ATOM     32  O   UNL     1      13.780   4.885  23.741  0.00  0.00    -0.477 OA
ATOM     33  H   UNL     1      13.459   4.423  24.535  0.00  0.00    +0.295 HD
ENDBRANCH  30  32
ENDBRANCH  27  30
ENDBRANCH  23  24
ENDBRANCH  11  23
TORSDOF 7
ENDMDL
MODEL 7
REMARK VINA RESULT:      -6.7      3.318     10.581
REMARK  Name = 
REMARK  8 active torsions:
REMARK  status: ('A' for Active; 'I' for Inactive)
REMARK    1  A    between atoms: C_1  and  N_2
REMARK    2  A    between atoms: N_5  and  C_6
REMARK    3  A    between atoms: C_6  and  C_7
REMARK    4  A    between atoms: C_10  and  C_13
REMARK    5  A    between atoms: C_13  and  O_14
REMARK    6  A    between atoms: C_22  and  C_24
REMARK    7  A    between atoms: C_25  and  C_26
REMARK    8  A    between atoms: C_26  and  C_27
REMARK                            x       y       z     vdW  Elec       q    Type
REMARK                         _______ _______ _______ _____ _____    ______ ____
ROOT
ATOM      1  C   UNL     1       8.912  -1.142  27.036  0.00  0.00    +0.154 C 
ATOM      2  N   UNL     1       8.354  -1.557  25.761  0.00  0.00    -0.296 N 
ATOM      3  C   UNL     1       7.273  -2.470  25.716  0.00  0.00    +0.058 A 
ATOM      4  C   UNL     1       6.721  -3.030  26.877  0.00  0.00    +0.028 A 
ATOM      5  C   UNL     1       5.760  -4.039  26.788  0.00  0.00    +0.019 A 
ATOM      6  C   UNL     1       5.349  -4.501  25.540  0.00  0.00    +0.026 A 
ATOM      7  C   UNL     1       5.838  -3.910  24.378  0.00  0.00    +0.032 A 
ATOM      8  C   UNL     1       6.786  -2.885  24.475  0.00  0.00    +0.064 A 
ATOM      9  C   UNL     1       7.267  -2.213  23.254  0.00  0.00    +0.265 A 
ATOM     10  O   UNL     1       6.759  -2.497  22.173  0.00  0.00    -0.267 OA
ATOM     11  N   UNL     1       8.293  -1.296  23.423  0.00  0.00    -0.256 N 
ATOM     12  C   UNL     1       8.999  -1.139  24.603  0.00  0.00    +0.332 A 
ATOM     13  O   UNL     1      10.127  -0.644  24.633  0.00  0.00    -0.246 OA
ENDROOT
BRANCH   6  14
ATOM     14  C   UNL     1       4.443  -5.593  25.459  0.00  0.00    -0.066 C 
ATOM     15  C   UNL     1       3.594  -6.579  25.378  0.00  0.00    -0.092 C 
BRANCH  15  16
ATOM     16  C   UNL     1       2.604  -7.728  25.282  0.00  0.00    +0.124 C 
BRANCH  16  17
ATOM     17  C   UNL     1       1.790  -7.589  24.018  0.00  0.00    -0.036 A 
ATOM     18  C   UNL     1       1.338  -6.329  23.598  0.00  0.00    +0.004 A 
ATOM     19  C   UNL     1       0.667  -6.185  22.383  0.00  0.00    +0.000 A 
ATOM     20  C   UNL     1       0.443  -7.298  21.572  0.00  0.00    +0.000 A 
ATOM     21  C   UNL     1       0.884  -8.555  21.981  0.00  0.00    +0.000 A 
ATOM     22  C   UNL     1       1.555  -8.702  23.197  0.00  0.00    +0.004 A 
ENDBRANCH  16  17
ENDBRANCH  15  16
ENDBRANCH   6  14
BRANCH  11  23
ATOM     23  C   UNL     1       8.785  -0.590  22.248  0.00  0.00    +0.165 C 
BRANCH  23  24
ATOM     24  C   UNL     1       8.322   0.858  22.195  0.00  0.00    -0.027 A 
ATOM     25  C   UNL     1       9.254   1.903  22.154  0.00  0.00    +0.006 A 
ATOM     26  C   UNL     1       8.831   3.236  22.211  0.00  0.00    +0.015 A 
ATOM     27  C   UNL     1       7.467   3.544  22.287  0.00  0.00    +0.059 A 
ATOM     28  C   UNL     1       6.527   2.511  22.290  0.00  0.00    +0.015 A 
ATOM     29  C   UNL     1       6.955   1.177  22.228  0.00  0.00    +0.006 A 
BRANCH  27  30
ATOM     30  C   UNL     1       7.082   4.972  22.444  0.00  0.00    +0.337 C 
ATOM     31  O   UNL     1       6.074   5.324  23.034  0.00  0.00    -0.245 OA
BRANCH  30  32
ATOM     32  O   UNL     1       7.957   5.847  21.903  0.00  0.00    -0.477 OA
ATOM     33  H   UNL     1       8.558   5.472  21.235  0.00  0.00    +0.295 HD
ENDBRANCH  30  32
ENDBRANCH  27  30
ENDBRANCH  23  24
ENDBRANCH  11  23
TORSDOF 7
ENDMDL
MODEL 8
REMARK VINA RESULT:      -6.7      4.600     10.126
REMARK  Name = 
REMARK  8 active torsions:
REMARK  status: ('A' for Active; 'I' for Inactive)
REMARK    1  A    between atoms: C_1  and  N_2
REMARK    2  A    between atoms: N_5  and  C_6
REMARK    3  A    between atoms: C_6  and  C_7
REMARK    4  A    between atoms: C_10  and  C_13
REMARK    5  A    between atoms: C_13  and  O_14
REMARK    6  A    between atoms: C_22  and  C_24
REMARK    7  A    between atoms: C_25  and  C_26
REMARK    8  A    between atoms: C_26  and  C_27
REMARK                            x       y       z     vdW  Elec       q    Type
REMARK                         _______ _______ _______ _____ _____    ______ ____
ROOT
ATOM      1  C   UNL     1      11.210   3.946  23.360  0.00  0.00    +0.154 C 
ATOM      2  N   UNL     1       9.982   3.413  23.925  0.00  0.00    -0.296 N 
ATOM      3  C   UNL     1       9.856   2.027  24.180  0.00  0.00    +0.058 A 
ATOM      4  C   UNL     1      10.878   1.116  23.878  0.00  0.00    +0.028 A 
ATOM      5  C   UNL     1      10.662  -0.257  24.002  0.00  0.00    +0.019 A 
ATOM      6  C   UNL     1       9.421  -0.732  24.422  0.00  0.00    +0.026 A 
ATOM      7  C   UNL     1       8.418   0.160  24.790  0.00  0.00    +0.032 A 
ATOM      8  C   UNL     1       8.649   1.536  24.682  0.00  0.00    +0.064 A 
ATOM      9  C   UNL     1       7.615   2.490  25.123  0.00  0.00    +0.265 A 
ATOM     10  O   UNL     1       6.600   2.065  25.668  0.00  0.00    -0.267 OA
ATOM     11  N   UNL     1       7.868   3.829  24.870  0.00  0.00    -0.256 N 
ATOM     12  C   UNL     1       8.905   4.279  24.073  0.00  0.00    +0.332 A 
ATOM     13  O   UNL     1       8.888   5.388  23.536  0.00  0.00    -0.246 OA
ENDROOT
BRANCH   6  14
ATOM     14  C   UNL     1       9.179  -2.132  24.453  0.00  0.00    -0.066 C 
ATOM     15  C   UNL     1       8.961  -3.416  24.507  0.00  0.00    -0.092 C 
BRANCH  15  16
ATOM     16  C   UNL     1       8.705  -4.913  24.570  0.00  0.00    +0.124 C 
BRANCH  16  17
ATOM     17  C   UNL     1       7.467  -5.248  23.774  0.00  0.00    -0.036 A 
ATOM     18  C   UNL     1       6.192  -5.075  24.335  0.00  0.00    +0.004 A 
ATOM     19  C   UNL     1       5.045  -5.293  23.570  0.00  0.00    +0.000 A 
ATOM     20  C   UNL     1       5.159  -5.685  22.237  0.00  0.00    +0.000 A 
ATOM     21  C   UNL     1       6.419  -5.864  21.670  0.00  0.00    +0.000 A 
ATOM     22  C   UNL     1       7.568  -5.646  22.433  0.00  0.00    +0.004 A 
ENDBRANCH  16  17
ENDBRANCH  15  16
ENDBRANCH   6  14
BRANCH  11  23
ATOM     23  C   UNL     1       6.885   4.810  25.309  0.00  0.00    +0.165 C 
BRANCH  23  24
ATOM     24  C   UNL     1       5.862   5.140  24.233  0.00  0.00    -0.027 A 
ATOM     25  C   UNL     1       5.540   6.473  23.941  0.00  0.00    +0.006 A 
ATOM     26  C   UNL     1       4.525   6.775  23.027  0.00  0.00    +0.015 A 
ATOM     27  C   UNL     1       3.831   5.748  22.373  0.00  0.00    +0.059 A 
ATOM     28  C   UNL     1       4.169   4.417  22.629  0.00  0.00    +0.015 A 
ATOM     29  C   UNL     1       5.191   4.120  23.542  0.00  0.00    +0.006 A 
BRANCH  27  30
ATOM     30  C   UNL     1       2.697   6.127  21.488  0.00  0.00    +0.337 C 
ATOM     31  O   UNL     1       1.530   5.972  21.806  0.00  0.00    -0.245 OA
BRANCH  30  32
ATOM     32  O   UNL     1       3.069   6.682  20.314  0.00  0.00    -0.477 OA
ATOM     33  H   UNL     1       2.585   7.489  20.065  0.00  0.00    +0.295 HD
ENDBRANCH  30  32
ENDBRANCH  27  30
ENDBRANCH  23  24
ENDBRANCH  11  23
TORSDOF 7
ENDMDL
MODEL 9
REMARK VINA RESULT:      -6.7      2.939      4.308
REMARK  Name = 
REMARK  8 active torsions:
REMARK  status: ('A' for Active; 'I' for Inactive)
REMARK    1  A    between atoms: C_1  and  N_2
REMARK    2  A    between atoms: N_5  and  C_6
REMARK    3  A    between atoms: C_6  and  C_7
REMARK    4  A    between atoms: C_10  and  C_13
REMARK    5  A    between atoms: C_13  and  O_14
REMARK    6  A    between atoms: C_22  and  C_24
REMARK    7  A    between atoms: C_25  and  C_26
REMARK    8  A    between atoms: C_26  and  C_27
REMARK                            x       y       z     vdW  Elec       q    Type
REMARK                         _______ _______ _______ _____ _____    ______ ____
ROOT
ATOM      1  C   UNL     1      10.364  -1.490  22.080  0.00  0.00    +0.154 C 
ATOM      2  N   UNL     1       9.678  -1.172  23.320  0.00  0.00    -0.296 N 
ATOM      3  C   UNL     1       9.332   0.167  23.623  0.00  0.00    +0.058 A 
ATOM      4  C   UNL     1       9.657   1.232  22.772  0.00  0.00    +0.028 A 
ATOM      5  C   UNL     1       9.435   2.551  23.172  0.00  0.00    +0.019 A 
ATOM      6  C   UNL     1       8.896   2.816  24.429  0.00  0.00    +0.026 A 
ATOM      7  C   UNL     1       8.506   1.769  25.259  0.00  0.00    +0.032 A 
ATOM      8  C   UNL     1       8.712   0.449  24.842  0.00  0.00    +0.064 A 
ATOM      9  C   UNL     1       8.252  -0.668  25.688  0.00  0.00    +0.265 A 
ATOM     10  O   UNL     1       7.607  -0.424  26.704  0.00  0.00    -0.267 OA
ATOM     11  N   UNL     1       8.601  -1.941  25.266  0.00  0.00    -0.256 N 
ATOM     12  C   UNL     1       9.500  -2.194  24.245  0.00  0.00    +0.332 A 
ATOM     13  O   UNL     1      10.099  -3.267  24.147  0.00  0.00    -0.246 OA
ENDROOT
BRANCH   6  14
ATOM     14  C   UNL     1       8.764   4.161  24.867  0.00  0.00    -0.066 C 
ATOM     15  C   UNL     1       8.659   5.403  25.251  0.00  0.00    -0.092 C 
BRANCH  15  16
ATOM     16  C   UNL     1       8.536   6.851  25.698  0.00  0.00    +0.124 C 
BRANCH  16  17
ATOM     17  C   UNL     1       7.492   6.957  26.784  0.00  0.00    -0.036 A 
ATOM     18  C   UNL     1       6.136   7.104  26.454  0.00  0.00    +0.004 A 
ATOM     19  C   UNL     1       5.159   7.108  27.452  0.00  0.00    +0.000 A 
ATOM     20  C   UNL     1       5.527   6.962  28.789  0.00  0.00    +0.000 A 
ATOM     21  C   UNL     1       6.871   6.820  29.129  0.00  0.00    +0.000 A 
ATOM     22  C   UNL     1       7.849   6.816  28.132  0.00  0.00    +0.004 A 
ENDBRANCH  16  17
ENDBRANCH  15  16
ENDBRANCH   6  14
BRANCH  11  23
ATOM     23  C   UNL     1       8.148  -3.076  26.057  0.00  0.00    +0.165 C 
BRANCH  23  24
ATOM     24  C   UNL     1       7.105  -3.917  25.337  0.00  0.00    -0.027 A 
ATOM     25  C   UNL     1       6.445  -3.418  24.205  0.00  0.00    +0.006 A 
ATOM     26  C   UNL     1       5.413  -4.146  23.605  0.00  0.00    +0.015 A 
ATOM     27  C   UNL     1       5.039  -5.397  24.114  0.00  0.00    +0.059 A 
ATOM     28  C   UNL     1       5.714  -5.921  25.218  0.00  0.00    +0.015 A 
ATOM     29  C   UNL     1       6.752  -5.189  25.813  0.00  0.00    +0.006 A 
BRANCH  27  30
ATOM     30  C   UNL     1       3.870  -6.080  23.496  0.00  0.00    +0.337 C 
ATOM     31  O   UNL     1       3.013  -5.483  22.867  0.00  0.00    -0.245 OA
BRANCH  30  32
ATOM     32  O   UNL     1       3.855  -7.420  23.667  0.00  0.00    -0.477 OA
ATOM     33  H   UNL     1       3.068  -7.771  24.117  0.00  0.00    +0.295 HD
ENDBRANCH  30  32
ENDBRANCH  27  30
ENDBRANCH  23  24
ENDBRANCH  11  23
TORSDOF 7
ENDMDL
