MODEL 1
REMARK VINA RESULT:      -6.1      0.000      0.000
REMARK  Name = 
REMARK  3 active torsions:
REMARK  status: ('A' for Active; 'I' for Inactive)
REMARK    1  A    between atoms: O_1  and  C_2
REMARK    2  A    between atoms: C_2  and  C_4
REMARK    3  A    between atoms: C_4  and  N_5
REMARK                            x       y       z     vdW  Elec       q    Type
REMARK                         _______ _______ _______ _____ _____    ______ ____
ROOT
ATOM      1  N   UNL     1       8.317  -3.082  24.458  0.00  0.00    -0.264 N 
ATOM      2  C   UNL     1       9.470  -2.392  24.093  0.00  0.00    +0.262 A 
ATOM      3  O   UNL     1      10.489  -2.939  23.682  0.00  0.00    -0.267 OA
ATOM      4  C   UNL     1       9.450  -0.920  24.246  0.00  0.00    +0.048 A 
ATOM      5  C   UNL     1       8.369  -0.306  24.889  0.00  0.00    +0.007 A 
ATOM      6  C   UNL     1       8.385   1.097  25.078  0.00  0.00    -0.016 A 
ATOM      7  C   UNL     1       9.464   1.846  24.578  0.00  0.00    +0.008 A 
ATOM      8  C   UNL     1      10.522   1.221  23.918  0.00  0.00    +0.001 A 
ATOM      9  C   UNL     1       7.319   1.712  25.754  0.00  0.00    +0.008 A 
ATOM     10  C   UNL     1       6.248   0.957  26.232  0.00  0.00    +0.001 A 
ATOM     11  C   UNL     1       6.215  -0.420  26.017  0.00  0.00    +0.014 A 
ATOM     12  C   UNL     1       7.269  -1.045  25.340  0.00  0.00    +0.048 A 
ATOM     13  C   UNL     1      10.522  -0.162  23.760  0.00  0.00    +0.014 A 
ATOM     14  C   UNL     1       7.201  -2.493  25.042  0.00  0.00    +0.262 A 
ATOM     15  O   UNL     1       6.163  -3.125  25.237  0.00  0.00    -0.267 OA
ENDROOT
BRANCH   1  16
ATOM     16  C   UNL     1       8.278  -4.521  24.199  0.00  0.00    +0.248 C 
BRANCH  16  17
ATOM     17  C   UNL     1       8.832  -5.318  25.374  0.00  0.00    +0.325 C 
ATOM     18  O   UNL     1       8.158  -5.708  26.318  0.00  0.00    -0.249 OA
BRANCH  17  19
ATOM     19  O   UNL     1      10.144  -5.644  25.255  0.00  0.00    -0.479 OA
ATOM     20  H   UNL     1      10.530  -6.039  26.074  0.00  0.00    +0.295 HD
ENDBRANCH  17  19
ENDBRANCH  16  17
ENDBRANCH   1  16
TORSDOF 3
ENDMDL
MODEL 2
REMARK VINA RESULT:      -6.1      0.274      3.023
REMARK  Name = 
REMARK  3 active torsions:
REMARK  status: ('A' for Active; 'I' for Inactive)
REMARK    1  A    between atoms: O_1  and  C_2
REMARK    2  A    between atoms: C_2  and  C_4
REMARK    3  A    between atoms: C_4  and  N_5
REMARK                            x       y       z     vdW  Elec       q    Type
REMARK                         _______ _______ _______ _____ _____    ______ ____
ROOT
ATOM      1  N   UNL     1       8.308  -3.127  24.264  0.00  0.00    -0.264 N 
ATOM      2  C   UNL     1       7.122  -2.532  24.686  0.00  0.00    +0.262 A 
ATOM      3  O   UNL     1       6.064  -3.141  24.817  0.00  0.00    -0.267 OA
ATOM      4  C   UNL     1       7.159  -1.077  24.957  0.00  0.00    +0.048 A 
ATOM      5  C   UNL     1       8.303  -0.341  24.631  0.00  0.00    +0.007 A 
ATOM      6  C   UNL     1       8.308   1.058  24.845  0.00  0.00    -0.016 A 
ATOM      7  C   UNL     1       7.181   1.670  25.419  0.00  0.00    +0.008 A 
ATOM      8  C   UNL     1       6.057   0.917  25.762  0.00  0.00    +0.001 A 
ATOM      9  C   UNL     1       9.441   1.805  24.485  0.00  0.00    +0.008 A 
ATOM     10  C   UNL     1      10.559   1.181  23.928  0.00  0.00    +0.001 A 
ATOM     11  C   UNL     1      10.568  -0.202  23.748  0.00  0.00    +0.014 A 
ATOM     12  C   UNL     1       9.446  -0.958  24.107  0.00  0.00    +0.048 A 
ATOM     13  C   UNL     1       6.040  -0.453  25.522  0.00  0.00    +0.014 A 
ATOM     14  C   UNL     1       9.481  -2.433  23.991  0.00  0.00    +0.262 A 
ATOM     15  O   UNL     1      10.534  -3.017  23.735  0.00  0.00    -0.267 OA
ENDROOT
BRANCH   1  16
ATOM     16  C   UNL     1       8.318  -4.582  24.110  0.00  0.00    +0.248 C 
BRANCH  16  17
ATOM     17  C   UNL     1       8.863  -5.275  25.353  0.00  0.00    +0.325 C 
ATOM     18  O   UNL     1       8.187  -5.557  26.333  0.00  0.00    -0.249 OA
BRANCH  17  19
ATOM     19  O   UNL     1      10.167  -5.638  25.260  0.00  0.00    -0.479 OA
ATOM     20  H   UNL     1      10.789  -4.872  25.214  0.00  0.00    +0.295 HD
ENDBRANCH  17  19
ENDBRANCH  16  17
ENDBRANCH   1  16
TORSDOF 3
ENDMDL
MODEL 3
REMARK VINA RESULT:      -6.0      1.422      3.254
REMARK  Name = 
REMARK  3 active torsions:
REMARK  status: ('A' for Active; 'I' for Inactive)
REMARK    1  A    between atoms: O_1  and  C_2
REMARK    2  A    between atoms: C_2  and  C_4
REMARK    3  A    between atoms: C_4  and  N_5
REMARK                            x       y       z     vdW  Elec       q    Type
REMARK                         _______ _______ _______ _____ _____    ______ ____
ROOT
ATOM      1  N   UNL     1       9.055  -2.413  24.799  0.00  0.00    -0.264 N 
ATOM      2  C   UNL     1       8.266  -1.664  25.669  0.00  0.00    +0.262 A 
ATOM      3  O   UNL     1       7.611  -2.153  26.585  0.00  0.00    -0.267 OA
ATOM      4  C   UNL     1       8.210  -0.204  25.436  0.00  0.00    +0.048 A 
ATOM      5  C   UNL     1       8.796   0.337  24.287  0.00  0.00    +0.007 A 
ATOM      6  C   UNL     1       8.690   1.729  24.047  0.00  0.00    -0.016 A 
ATOM      7  C   UNL     1       8.035   2.540  24.989  0.00  0.00    +0.008 A 
ATOM      8  C   UNL     1       7.476   1.988  26.143  0.00  0.00    +0.001 A 
ATOM      9  C   UNL     1       9.246   2.270  22.878  0.00  0.00    +0.008 A 
ATOM     10  C   UNL     1       9.906   1.453  21.959  0.00  0.00    +0.001 A 
ATOM     11  C   UNL     1      10.041   0.088  22.210  0.00  0.00    +0.014 A 
ATOM     12  C   UNL     1       9.494  -0.463  23.375  0.00  0.00    +0.048 A 
ATOM     13  C   UNL     1       7.553   0.616  26.362  0.00  0.00    +0.014 A 
ATOM     14  C   UNL     1       9.702  -1.896  23.683  0.00  0.00    +0.262 A 
ATOM     15  O   UNL     1      10.482  -2.574  23.015  0.00  0.00    -0.267 OA
ENDROOT
BRANCH   1  16
ATOM     16  C   UNL     1       9.218  -3.837  25.089  0.00  0.00    +0.248 C 
BRANCH  16  17
ATOM     17  C   UNL     1       8.128  -4.673  24.428  0.00  0.00    +0.325 C 
ATOM     18  O   UNL     1       8.255  -5.241  23.352  0.00  0.00    -0.249 OA
BRANCH  17  19
ATOM     19  O   UNL     1       7.005  -4.813  25.177  0.00  0.00    -0.479 OA
ATOM     20  H   UNL     1       6.595  -5.709  25.112  0.00  0.00    +0.295 HD
ENDBRANCH  17  19
ENDBRANCH  16  17
ENDBRANCH   1  16
TORSDOF 3
ENDMDL
MODEL 4
REMARK VINA RESULT:      -6.0      1.450      1.721
REMARK  Name = 
REMARK  3 active torsions:
REMARK  status: ('A' for Active; 'I' for Inactive)
REMARK    1  A    between atoms: O_1  and  C_2
REMARK    2  A    between atoms: C_2  and  C_4
REMARK    3  A    between atoms: C_4  and  N_5
REMARK                            x       y       z     vdW  Elec       q    Type
REMARK                         _______ _______ _______ _____ _____    ______ ____
ROOT
ATOM      1  N   UNL     1       9.127  -2.442  24.771  0.00  0.00    -0.264 N 
ATOM      2  C   UNL     1       9.777  -1.895  23.667  0.00  0.00    +0.262 A 
ATOM      3  O   UNL     1      10.539  -2.528  22.943  0.00  0.00    -0.267 OA
ATOM      4  C   UNL     1       9.541  -0.460  23.392  0.00  0.00    +0.048 A 
ATOM      5  C   UNL     1       8.830   0.315  24.315  0.00  0.00    +0.007 A 
ATOM      6  C   UNL     1       8.656   1.698  24.067  0.00  0.00    -0.016 A 
ATOM      7  C   UNL     1       9.164   2.253  22.881  0.00  0.00    +0.008 A 
ATOM      8  C   UNL     1       9.850   1.461  21.958  0.00  0.00    +0.001 A 
ATOM      9  C   UNL     1       7.974   2.484  25.009  0.00  0.00    +0.008 A 
ATOM     10  C   UNL     1       7.462   1.916  26.176  0.00  0.00    +0.001 A 
ATOM     11  C   UNL     1       7.604   0.548  26.406  0.00  0.00    +0.014 A 
ATOM     12  C   UNL     1       8.278  -0.248  25.472  0.00  0.00    +0.048 A 
ATOM     13  C   UNL     1      10.048   0.108  22.217  0.00  0.00    +0.014 A 
ATOM     14  C   UNL     1       8.362  -1.712  25.673  0.00  0.00    +0.262 A 
ATOM     15  O   UNL     1       7.713  -2.261  26.563  0.00  0.00    -0.267 OA
ENDROOT
BRANCH   1  16
ATOM     16  C   UNL     1       9.254  -3.883  24.985  0.00  0.00    +0.248 C 
BRANCH  16  17
ATOM     17  C   UNL     1       8.118  -4.652  24.319  0.00  0.00    +0.325 C 
ATOM     18  O   UNL     1       8.173  -5.114  23.188  0.00  0.00    -0.249 OA
BRANCH  17  19
ATOM     19  O   UNL     1       7.044  -4.861  25.122  0.00  0.00    -0.479 OA
ATOM     20  H   UNL     1       6.797  -4.075  25.666  0.00  0.00    +0.295 HD
ENDBRANCH  17  19
ENDBRANCH  16  17
ENDBRANCH   1  16
TORSDOF 3
ENDMDL
MODEL 5
REMARK VINA RESULT:      -5.9      2.673      4.765
REMARK  Name = 
REMARK  3 active torsions:
REMARK  status: ('A' for Active; 'I' for Inactive)
REMARK    1  A    between atoms: O_1  and  C_2
REMARK    2  A    between atoms: C_2  and  C_4
REMARK    3  A    between atoms: C_4  and  N_5
REMARK                            x       y       z     vdW  Elec       q    Type
REMARK                         _______ _______ _______ _____ _____    ______ ____
ROOT
ATOM      1  N   UNL     1       8.753  -0.934  22.687  0.00  0.00    -0.264 N 
ATOM      2  C   UNL     1       9.532  -2.018  23.083  0.00  0.00    +0.262 A 
ATOM      3  O   UNL     1      10.608  -2.307  22.567  0.00  0.00    -0.267 OA
ATOM      4  C   UNL     1       8.998  -2.869  24.170  0.00  0.00    +0.048 A 
ATOM      5  C   UNL     1       7.693  -2.663  24.632  0.00  0.00    +0.007 A 
ATOM      6  C   UNL     1       7.174  -3.517  25.634  0.00  0.00    -0.016 A 
ATOM      7  C   UNL     1       7.992  -4.525  26.171  0.00  0.00    +0.008 A 
ATOM      8  C   UNL     1       9.300  -4.702  25.715  0.00  0.00    +0.001 A 
ATOM      9  C   UNL     1       5.853  -3.335  26.076  0.00  0.00    +0.008 A 
ATOM     10  C   UNL     1       5.057  -2.321  25.543  0.00  0.00    +0.001 A 
ATOM     11  C   UNL     1       5.579  -1.458  24.581  0.00  0.00    +0.014 A 
ATOM     12  C   UNL     1       6.896  -1.626  24.136  0.00  0.00    +0.048 A 
ATOM     13  C   UNL     1       9.800  -3.883  24.708  0.00  0.00    +0.014 A 
ATOM     14  C   UNL     1       7.478  -0.665  23.172  0.00  0.00    +0.262 A 
ATOM     15  O   UNL     1       6.879   0.369  22.879  0.00  0.00    -0.267 OA
ENDROOT
BRANCH   1  16
ATOM     16  C   UNL     1       9.321  -0.015  21.701  0.00  0.00    +0.248 C 
BRANCH  16  17
ATOM     17  C   UNL     1      10.025   1.160  22.369  0.00  0.00    +0.325 C 
ATOM     18  O   UNL     1      10.495   1.127  23.498  0.00  0.00    -0.249 OA
BRANCH  17  19
ATOM     19  O   UNL     1      10.166   2.249  21.571  0.00  0.00    -0.479 OA
ATOM     20  H   UNL     1      10.490   3.050  22.049  0.00  0.00    +0.295 HD
ENDBRANCH  17  19
ENDBRANCH  16  17
ENDBRANCH   1  16
TORSDOF 3
ENDMDL
MODEL 6
REMARK VINA RESULT:      -5.9      3.952      5.384
REMARK  Name = 
REMARK  3 active torsions:
REMARK  status: ('A' for Active; 'I' for Inactive)
REMARK    1  A    between atoms: O_1  and  C_2
REMARK    2  A    between atoms: C_2  and  C_4
REMARK    3  A    between atoms: C_4  and  N_5
REMARK                            x       y       z     vdW  Elec       q    Type
REMARK                         _______ _______ _______ _____ _____    ______ ____
ROOT
ATOM      1  N   UNL     1       4.546  -5.414  24.726  0.00  0.00    -0.264 N 
ATOM      2  C   UNL     1       4.762  -4.657  23.577  0.00  0.00    +0.262 A 
ATOM      3  O   UNL     1       3.936  -4.536  22.677  0.00  0.00    -0.267 OA
ATOM      4  C   UNL     1       6.079  -3.996  23.445  0.00  0.00    +0.048 A 
ATOM      5  C   UNL     1       7.092  -4.280  24.368  0.00  0.00    +0.007 A 
ATOM      6  C   UNL     1       8.365  -3.684  24.201  0.00  0.00    -0.016 A 
ATOM      7  C   UNL     1       8.571  -2.788  23.138  0.00  0.00    +0.008 A 
ATOM      8  C   UNL     1       7.542  -2.496  22.241  0.00  0.00    +0.001 A 
ATOM      9  C   UNL     1       9.394  -3.994  25.104  0.00  0.00    +0.008 A 
ATOM     10  C   UNL     1       9.170  -4.875  26.163  0.00  0.00    +0.001 A 
ATOM     11  C   UNL     1       7.908  -5.438  26.348  0.00  0.00    +0.014 A 
ATOM     12  C   UNL     1       6.873  -5.132  25.456  0.00  0.00    +0.048 A 
ATOM     13  C   UNL     1       6.301  -3.107  22.386  0.00  0.00    +0.014 A 
ATOM     14  C   UNL     1       5.512  -5.664  25.694  0.00  0.00    +0.262 A 
ATOM     15  O   UNL     1       5.239  -6.239  26.747  0.00  0.00    -0.267 OA
ENDROOT
BRANCH   1  16
ATOM     16  C   UNL     1       3.210  -5.972  24.928  0.00  0.00    +0.248 C 
BRANCH  16  17
ATOM     17  C   UNL     1       3.063  -7.335  24.263  0.00  0.00    +0.325 C 
ATOM     18  O   UNL     1       3.255  -8.401  24.831  0.00  0.00    -0.249 OA
BRANCH  17  19
ATOM     19  O   UNL     1       2.615  -7.283  22.983  0.00  0.00    -0.479 OA
ATOM     20  H   UNL     1       3.090  -6.622  22.424  0.00  0.00    +0.295 HD
ENDBRANCH  17  19
ENDBRANCH  16  17
ENDBRANCH   1  16
TORSDOF 3
ENDMDL
MODEL 7
REMARK VINA RESULT:      -5.8      2.638      5.775
REMARK  Name = 
REMARK  3 active torsions:
REMARK  status: ('A' for Active; 'I' for Inactive)
REMARK    1  A    between atoms: O_1  and  C_2
REMARK    2  A    between atoms: C_2  and  C_4
REMARK    3  A    between atoms: C_4  and  N_5
REMARK                            x       y       z     vdW  Elec       q    Type
REMARK                         _______ _______ _______ _____ _____    ______ ____
ROOT
ATOM      1  N   UNL     1       8.678  -2.360  24.344  0.00  0.00    -0.264 N 
ATOM      2  C   UNL     1       8.273  -2.854  25.582  0.00  0.00    +0.262 A 
ATOM      3  O   UNL     1       8.735  -2.470  26.652  0.00  0.00    -0.267 OA
ATOM      4  C   UNL     1       7.249  -3.923  25.576  0.00  0.00    +0.048 A 
ATOM      5  C   UNL     1       6.856  -4.499  24.363  0.00  0.00    +0.007 A 
ATOM      6  C   UNL     1       5.916  -5.557  24.374  0.00  0.00    -0.016 A 
ATOM      7  C   UNL     1       5.366  -5.975  25.598  0.00  0.00    +0.008 A 
ATOM      8  C   UNL     1       5.750  -5.373  26.797  0.00  0.00    +0.001 A 
ATOM      9  C   UNL     1       5.546  -6.162  23.163  0.00  0.00    +0.008 A 
ATOM     10  C   UNL     1       6.090  -5.726  21.954  0.00  0.00    +0.001 A 
ATOM     11  C   UNL     1       6.991  -4.662  21.938  0.00  0.00    +0.014 A 
ATOM     12  C   UNL     1       7.364  -4.048  23.139  0.00  0.00    +0.048 A 
ATOM     13  C   UNL     1       6.699  -4.355  26.789  0.00  0.00    +0.014 A 
ATOM     14  C   UNL     1       8.259  -2.869  23.120  0.00  0.00    +0.262 A 
ATOM     15  O   UNL     1       8.553  -2.322  22.057  0.00  0.00    -0.267 OA
ENDROOT
BRANCH   1  16
ATOM     16  C   UNL     1       9.597  -1.223  24.337  0.00  0.00    +0.248 C 
BRANCH  16  17
ATOM     17  C   UNL     1       8.866   0.093  24.575  0.00  0.00    +0.325 C 
ATOM     18  O   UNL     1       8.192   0.666  23.730  0.00  0.00    -0.249 OA
BRANCH  17  19
ATOM     19  O   UNL     1       8.952   0.554  25.848  0.00  0.00    -0.479 OA
ATOM     20  H   UNL     1       8.570  -0.061  26.519  0.00  0.00    +0.295 HD
ENDBRANCH  17  19
ENDBRANCH  16  17
ENDBRANCH   1  16
TORSDOF 3
ENDMDL
MODEL 8
REMARK VINA RESULT:      -5.8      3.429      5.511
REMARK  Name = 
REMARK  3 active torsions:
REMARK  status: ('A' for Active; 'I' for Inactive)
REMARK    1  A    between atoms: O_1  and  C_2
REMARK    2  A    between atoms: C_2  and  C_4
REMARK    3  A    between atoms: C_4  and  N_5
REMARK                            x       y       z     vdW  Elec       q    Type
REMARK                         _______ _______ _______ _____ _____    ______ ____
ROOT
ATOM      1  N   UNL     1       8.962   1.048  23.392  0.00  0.00    -0.264 N 
ATOM      2  C   UNL     1       7.710   1.486  22.967  0.00  0.00    +0.262 A 
ATOM      3  O   UNL     1       6.826   0.734  22.568  0.00  0.00    -0.267 OA
ATOM      4  C   UNL     1       7.470   2.946  22.979  0.00  0.00    +0.048 A 
ATOM      5  C   UNL     1       8.529   3.820  23.248  0.00  0.00    +0.007 A 
ATOM      6  C   UNL     1       8.300   5.216  23.204  0.00  0.00    -0.016 A 
ATOM      7  C   UNL     1       7.006   5.692  22.933  0.00  0.00    +0.008 A 
ATOM      8  C   UNL     1       5.955   4.807  22.690  0.00  0.00    +0.001 A 
ATOM      9  C   UNL     1       9.368   6.096  23.439  0.00  0.00    +0.008 A 
ATOM     10  C   UNL     1      10.645   5.608  23.721  0.00  0.00    +0.001 A 
ATOM     11  C   UNL     1      10.864   4.233  23.798  0.00  0.00    +0.014 A 
ATOM     12  C   UNL     1       9.806   3.345  23.570  0.00  0.00    +0.048 A 
ATOM     13  C   UNL     1       6.187   3.435  22.702  0.00  0.00    +0.014 A 
ATOM     14  C   UNL     1      10.016   1.889  23.727  0.00  0.00    +0.262 A 
ATOM     15  O   UNL     1      11.062   1.455  24.210  0.00  0.00    -0.267 OA
ENDROOT
BRANCH   1  16
ATOM     16  C   UNL     1       9.173  -0.396  23.502  0.00  0.00    +0.248 C 
BRANCH  16  17
ATOM     17  C   UNL     1       9.892  -0.953  22.279  0.00  0.00    +0.325 C 
ATOM     18  O   UNL     1      10.788  -1.784  22.329  0.00  0.00    -0.249 OA
BRANCH  17  19
ATOM     19  O   UNL     1       9.401  -0.509  21.095  0.00  0.00    -0.479 OA
ATOM     20  H   UNL     1       9.671   0.415  20.875  0.00  0.00    +0.295 HD
ENDBRANCH  17  19
ENDBRANCH  16  17
ENDBRANCH   1  16
TORSDOF 3
ENDMDL
MODEL 9
REMARK VINA RESULT:      -5.8      2.632      5.405
REMARK  Name = 
REMARK  3 active torsions:
REMARK  status: ('A' for Active; 'I' for Inactive)
REMARK    1  A    between atoms: O_1  and  C_2
REMARK    2  A    between atoms: C_2  and  C_4
REMARK    3  A    between atoms: C_4  and  N_5
REMARK                            x       y       z     vdW  Elec       q    Type
REMARK                         _______ _______ _______ _____ _____    ______ ____
ROOT
ATOM      1  N   UNL     1       8.653  -2.341  24.332  0.00  0.00    -0.264 N 
ATOM      2  C   UNL     1       8.227  -2.826  23.099  0.00  0.00    +0.262 A 
ATOM      3  O   UNL     1       8.538  -2.321  22.024  0.00  0.00    -0.267 OA
ATOM      4  C   UNL     1       7.325  -3.999  23.113  0.00  0.00    +0.048 A 
ATOM      5  C   UNL     1       6.813  -4.464  24.330  0.00  0.00    +0.007 A 
ATOM      6  C   UNL     1       5.909  -5.554  24.327  0.00  0.00    -0.016 A 
ATOM      7  C   UNL     1       5.580  -6.171  23.108  0.00  0.00    +0.008 A 
ATOM      8  C   UNL     1       6.119  -5.710  21.905  0.00  0.00    +0.001 A 
ATOM      9  C   UNL     1       5.366  -6.000  25.542  0.00  0.00    +0.008 A 
ATOM     10  C   UNL     1       5.713  -5.386  26.746  0.00  0.00    +0.001 A 
ATOM     11  C   UNL     1       6.629  -4.334  26.754  0.00  0.00    +0.014 A 
ATOM     12  C   UNL     1       7.181  -3.883  25.549  0.00  0.00    +0.048 A 
ATOM     13  C   UNL     1       6.982  -4.619  21.905  0.00  0.00    +0.014 A 
ATOM     14  C   UNL     1       8.212  -2.821  25.560  0.00  0.00    +0.262 A 
ATOM     15  O   UNL     1       8.706  -2.439  26.620  0.00  0.00    -0.267 OA
ENDROOT
BRANCH   1  16
ATOM     16  C   UNL     1       9.639  -1.260  24.331  0.00  0.00    +0.248 C 
BRANCH  16  17
ATOM     17  C   UNL     1       8.980   0.101  24.522  0.00  0.00    +0.325 C 
ATOM     18  O   UNL     1       8.392   0.709  23.639  0.00  0.00    -0.249 OA
BRANCH  17  19
ATOM     19  O   UNL     1       9.024   0.566  25.796  0.00  0.00    -0.479 OA
ATOM     20  H   UNL     1       8.140   0.816  26.157  0.00  0.00    +0.295 HD
ENDBRANCH  17  19
ENDBRANCH  16  17
ENDBRANCH   1  16
TORSDOF 3
ENDMDL
