MODEL 1
REMARK VINA RESULT:      -6.0      0.000      0.000
REMARK  Name = 
REMARK  5 active torsions:
REMARK  status: ('A' for Active; 'I' for Inactive)
REMARK    1  A    between atoms: O_1  and  C_2
REMARK    2  A    between atoms: C_2  and  C_3
REMARK    3  A    between atoms: C_13  and  O_15
REMARK    4  A    between atoms: C_16  and  O_18
REMARK    5  A    between atoms: C_19  and  O_21
REMARK                            x       y       z     vdW  Elec       q    Type
REMARK                         _______ _______ _______ _____ _____    ______ ____
ROOT
ATOM      1  C   UNL     1       6.650  -5.053  22.581  0.00  0.00    +0.178 C 
ATOM      2  C   UNL     1       6.682  -3.555  22.251  0.00  0.00    +0.177 C 
ATOM      3  C   UNL     1       6.766  -2.717  23.528  0.00  0.00    +0.179 C 
ATOM      4  C   UNL     1       7.935  -3.169  24.407  0.00  0.00    +0.205 C 
ATOM      5  C   UNL     1       7.803  -4.689  24.671  0.00  0.00    +0.242 C 
ATOM      6  C   UNL     1       9.027  -5.129  25.524  0.00  0.00    +0.272 C 
ATOM      7  O   UNL     1      10.207  -5.048  25.199  0.00  0.00    -0.270 OA
ATOM      8  N   UNL     1       8.580  -5.537  26.742  0.00  0.00    -0.264 N 
ATOM      9  H   UNL     1       9.183  -5.820  27.499  0.00  0.00    +0.157 HD
ATOM     10  C   UNL     1       7.234  -5.436  26.809  0.00  0.00    +0.139 C 
ATOM     11  S   UNL     1       6.315  -5.728  28.144  0.00  0.00    -0.018 S 
ATOM     12  N   UNL     1       6.744  -5.044  25.590  0.00  0.00    -0.289 N 
ATOM     13  H   UNL     1       5.763  -4.840  25.461  0.00  0.00    +0.151 HD
ATOM     14  O   UNL     1       7.680  -5.458  23.493  0.00  0.00    -0.338 OA
ENDROOT
BRANCH   2  15
ATOM     15  O   UNL     1       5.484  -3.204  21.541  0.00  0.00    -0.386 OA
ATOM     16  H   UNL     1       5.756  -2.922  20.644  0.00  0.00    +0.210 HD
ENDBRANCH   2  15
BRANCH   3  17
ATOM     17  O   UNL     1       6.864  -1.332  23.151  0.00  0.00    -0.386 OA
ATOM     18  H   UNL     1       7.358  -0.857  23.843  0.00  0.00    +0.210 HD
ENDBRANCH   3  17
BRANCH   4  19
ATOM     19  O   UNL     1       7.930  -2.393  25.615  0.00  0.00    -0.384 OA
ATOM     20  H   UNL     1       7.047  -1.992  25.717  0.00  0.00    +0.210 HD
ENDBRANCH   4  19
BRANCH   1  21
ATOM     21  C   UNL     1       6.791  -5.888  21.295  0.00  0.00    +0.190 C 
BRANCH  21  22
ATOM     22  O   UNL     1       5.504  -6.207  20.760  0.00  0.00    -0.392 OA
ATOM     23  H   UNL     1       5.642  -6.467  19.833  0.00  0.00    +0.210 HD
ENDBRANCH  21  22
ENDBRANCH   1  21
TORSDOF 5
ENDMDL
MODEL 2
REMARK VINA RESULT:      -5.7      2.398      2.874
REMARK  Name = 
REMARK  5 active torsions:
REMARK  status: ('A' for Active; 'I' for Inactive)
REMARK    1  A    between atoms: O_1  and  C_2
REMARK    2  A    between atoms: C_2  and  C_3
REMARK    3  A    between atoms: C_13  and  O_15
REMARK    4  A    between atoms: C_16  and  O_18
REMARK    5  A    between atoms: C_19  and  O_21
REMARK                            x       y       z     vdW  Elec       q    Type
REMARK                         _______ _______ _______ _____ _____    ______ ____
ROOT
ATOM      1  C   UNL     1       5.076  -5.491  24.576  0.00  0.00    +0.178 C 
ATOM      2  C   UNL     1       4.887  -5.333  23.062  0.00  0.00    +0.177 C 
ATOM      3  C   UNL     1       5.721  -4.167  22.527  0.00  0.00    +0.179 C 
ATOM      4  C   UNL     1       7.187  -4.302  22.945  0.00  0.00    +0.205 C 
ATOM      5  C   UNL     1       7.257  -4.459  24.483  0.00  0.00    +0.242 C 
ATOM      6  C   UNL     1       8.752  -4.643  24.873  0.00  0.00    +0.272 C 
ATOM      7  O   UNL     1       9.492  -5.551  24.510  0.00  0.00    -0.270 OA
ATOM      8  N   UNL     1       9.139  -3.571  25.615  0.00  0.00    -0.264 N 
ATOM      9  H   UNL     1      10.080  -3.424  25.946  0.00  0.00    +0.157 HD
ATOM     10  C   UNL     1       8.109  -2.711  25.776  0.00  0.00    +0.139 C 
ATOM     11  S   UNL     1       8.190  -1.244  26.519  0.00  0.00    -0.018 S 
ATOM     12  N   UNL     1       6.976  -3.246  25.219  0.00  0.00    -0.289 N 
ATOM     13  H   UNL     1       6.116  -2.718  25.172  0.00  0.00    +0.151 HD
ATOM     14  O   UNL     1       6.451  -5.508  24.981  0.00  0.00    -0.338 OA
ENDROOT
BRANCH   2  15
ATOM     15  O   UNL     1       3.501  -5.081  22.784  0.00  0.00    -0.386 OA
ATOM     16  H   UNL     1       3.411  -5.021  21.812  0.00  0.00    +0.210 HD
ENDBRANCH   2  15
BRANCH   3  17
ATOM     17  O   UNL     1       5.557  -4.114  21.099  0.00  0.00    -0.386 OA
ATOM     18  H   UNL     1       4.676  -4.462  20.875  0.00  0.00    +0.210 HD
ENDBRANCH   3  17
BRANCH   4  19
ATOM     19  O   UNL     1       7.909  -3.155  22.470  0.00  0.00    -0.384 OA
ATOM     20  H   UNL     1       8.243  -3.354  21.575  0.00  0.00    +0.210 HD
ENDBRANCH   4  19
BRANCH   1  21
ATOM     21  C   UNL     1       4.416  -6.793  25.065  0.00  0.00    +0.190 C 
BRANCH  21  22
ATOM     22  O   UNL     1       4.158  -7.670  23.965  0.00  0.00    -0.392 OA
ATOM     23  H   UNL     1       3.935  -8.537  24.345  0.00  0.00    +0.210 HD
ENDBRANCH  21  22
ENDBRANCH   1  21
TORSDOF 5
ENDMDL
MODEL 3
REMARK VINA RESULT:      -5.5      2.734      4.162
REMARK  Name = 
REMARK  5 active torsions:
REMARK  status: ('A' for Active; 'I' for Inactive)
REMARK    1  A    between atoms: O_1  and  C_2
REMARK    2  A    between atoms: C_2  and  C_3
REMARK    3  A    between atoms: C_13  and  O_15
REMARK    4  A    between atoms: C_16  and  O_18
REMARK    5  A    between atoms: C_19  and  O_21
REMARK                            x       y       z     vdW  Elec       q    Type
REMARK                         _______ _______ _______ _____ _____    ______ ____
ROOT
ATOM      1  C   UNL     1       9.159  -0.969  23.573  0.00  0.00    +0.178 C 
ATOM      2  C   UNL     1       9.546  -0.504  24.983  0.00  0.00    +0.177 C 
ATOM      3  C   UNL     1       8.635  -1.137  26.036  0.00  0.00    +0.179 C 
ATOM      4  C   UNL     1       8.598  -2.660  25.888  0.00  0.00    +0.205 C 
ATOM      5  C   UNL     1       8.202  -3.012  24.434  0.00  0.00    +0.242 C 
ATOM      6  C   UNL     1       8.220  -4.562  24.300  0.00  0.00    +0.272 C 
ATOM      7  O   UNL     1       9.189  -5.295  24.464  0.00  0.00    -0.270 OA
ATOM      8  N   UNL     1       6.951  -4.990  24.062  0.00  0.00    -0.264 N 
ATOM      9  H   UNL     1       6.686  -5.960  23.990  0.00  0.00    +0.157 HD
ATOM     10  C   UNL     1       6.101  -3.940  24.010  0.00  0.00    +0.139 C 
ATOM     11  S   UNL     1       4.465  -4.037  23.849  0.00  0.00    -0.018 S 
ATOM     12  N   UNL     1       6.810  -2.772  24.120  0.00  0.00    -0.289 N 
ATOM     13  H   UNL     1       6.342  -1.878  24.179  0.00  0.00    +0.151 HD
ATOM     14  O   UNL     1       9.016  -2.391  23.460  0.00  0.00    -0.338 OA
ENDROOT
BRANCH   2  15
ATOM     15  O   UNL     1       9.424   0.925  25.057  0.00  0.00    -0.386 OA
ATOM     16  H   UNL     1       9.989   1.297  24.351  0.00  0.00    +0.210 HD
ENDBRANCH   2  15
BRANCH   3  17
ATOM     17  O   UNL     1       9.091  -0.720  27.335  0.00  0.00    -0.386 OA
ATOM     18  H   UNL     1       8.473  -0.052  27.680  0.00  0.00    +0.210 HD
ENDBRANCH   3  17
BRANCH   4  19
ATOM     19  O   UNL     1       7.684  -3.195  26.858  0.00  0.00    -0.384 OA
ATOM     20  H   UNL     1       7.306  -2.451  27.363  0.00  0.00    +0.210 HD
ENDBRANCH   4  19
BRANCH   1  21
ATOM     21  C   UNL     1      10.211  -0.509  22.548  0.00  0.00    +0.190 C 
BRANCH  21  22
ATOM     22  O   UNL     1      10.323  -1.456  21.483  0.00  0.00    -0.392 OA
ATOM     23  H   UNL     1      10.362  -0.944  20.656  0.00  0.00    +0.210 HD
ENDBRANCH  21  22
ENDBRANCH   1  21
TORSDOF 5
ENDMDL
MODEL 4
REMARK VINA RESULT:      -5.4      2.959      4.236
REMARK  Name = 
REMARK  5 active torsions:
REMARK  status: ('A' for Active; 'I' for Inactive)
REMARK    1  A    between atoms: O_1  and  C_2
REMARK    2  A    between atoms: C_2  and  C_3
REMARK    3  A    between atoms: C_13  and  O_15
REMARK    4  A    between atoms: C_16  and  O_18
REMARK    5  A    between atoms: C_19  and  O_21
REMARK                            x       y       z     vdW  Elec       q    Type
REMARK                         _______ _______ _______ _____ _____    ______ ____
ROOT
ATOM      1  C   UNL     1       8.473  -0.746  22.311  0.00  0.00    +0.178 C 
ATOM      2  C   UNL     1       7.496   0.053  23.183  0.00  0.00    +0.177 C 
ATOM      3  C   UNL     1       6.349  -0.835  23.671  0.00  0.00    +0.179 C 
ATOM      4  C   UNL     1       6.883  -2.096  24.355  0.00  0.00    +0.205 C 
ATOM      5  C   UNL     1       7.855  -2.816  23.390  0.00  0.00    +0.242 C 
ATOM      6  C   UNL     1       8.418  -4.064  24.130  0.00  0.00    +0.272 C 
ATOM      7  O   UNL     1       9.073  -4.062  25.166  0.00  0.00    -0.270 OA
ATOM      8  N   UNL     1       7.982  -5.180  23.485  0.00  0.00    -0.264 N 
ATOM      9  H   UNL     1       8.164  -6.120  23.800  0.00  0.00    +0.157 HD
ATOM     10  C   UNL     1       7.219  -4.843  22.421  0.00  0.00    +0.139 C 
ATOM     11  S   UNL     1       6.414  -5.897  21.445  0.00  0.00    -0.018 S 
ATOM     12  N   UNL     1       7.210  -3.479  22.279  0.00  0.00    -0.289 N 
ATOM     13  H   UNL     1       6.633  -3.029  21.583  0.00  0.00    +0.151 HD
ATOM     14  O   UNL     1       8.889  -1.983  22.905  0.00  0.00    -0.338 OA
ENDROOT
BRANCH   2  15
ATOM     15  O   UNL     1       6.953   1.134  22.411  0.00  0.00    -0.386 OA
ATOM     16  H   UNL     1       6.942   1.922  22.991  0.00  0.00    +0.210 HD
ENDBRANCH   2  15
BRANCH   3  17
ATOM     17  O   UNL     1       5.510  -0.050  24.536  0.00  0.00    -0.386 OA
ATOM     18  H   UNL     1       5.616  -0.375  25.448  0.00  0.00    +0.210 HD
ENDBRANCH   3  17
BRANCH   4  19
ATOM     19  O   UNL     1       5.769  -2.918  24.738  0.00  0.00    -0.384 OA
ATOM     20  H   UNL     1       4.974  -2.356  24.777  0.00  0.00    +0.210 HD
ENDBRANCH   4  19
BRANCH   1  21
ATOM     21  C   UNL     1       9.731   0.090  22.012  0.00  0.00    +0.190 C 
BRANCH  21  22
ATOM     22  O   UNL     1       9.395   1.244  21.239  0.00  0.00    -0.392 OA
ATOM     23  H   UNL     1      10.128   1.875  21.343  0.00  0.00    +0.210 HD
ENDBRANCH  21  22
ENDBRANCH   1  21
TORSDOF 5
ENDMDL
MODEL 5
REMARK VINA RESULT:      -5.3      2.412      4.445
REMARK  Name = 
REMARK  5 active torsions:
REMARK  status: ('A' for Active; 'I' for Inactive)
REMARK    1  A    between atoms: O_1  and  C_2
REMARK    2  A    between atoms: C_2  and  C_3
REMARK    3  A    between atoms: C_13  and  O_15
REMARK    4  A    between atoms: C_16  and  O_18
REMARK    5  A    between atoms: C_19  and  O_21
REMARK                            x       y       z     vdW  Elec       q    Type
REMARK                         _______ _______ _______ _____ _____    ______ ____
ROOT
ATOM      1  C   UNL     1       8.201  -1.357  22.930  0.00  0.00    +0.178 C 
ATOM      2  C   UNL     1       9.396  -2.211  23.374  0.00  0.00    +0.177 C 
ATOM      3  C   UNL     1       8.934  -3.395  24.225  0.00  0.00    +0.179 C 
ATOM      4  C   UNL     1       7.846  -4.199  23.507  0.00  0.00    +0.205 C 
ATOM      5  C   UNL     1       6.700  -3.240  23.105  0.00  0.00    +0.242 C 
ATOM      6  C   UNL     1       5.634  -4.073  22.335  0.00  0.00    +0.272 C 
ATOM      7  O   UNL     1       5.808  -4.686  21.287  0.00  0.00    -0.270 OA
ATOM      8  N   UNL     1       4.489  -4.092  23.069  0.00  0.00    -0.264 N 
ATOM      9  H   UNL     1       3.664  -4.612  22.813  0.00  0.00    +0.157 HD
ATOM     10  C   UNL     1       4.646  -3.382  24.208  0.00  0.00    +0.139 C 
ATOM     11  S   UNL     1       3.536  -3.247  25.416  0.00  0.00    -0.018 S 
ATOM     12  N   UNL     1       5.883  -2.790  24.211  0.00  0.00    -0.289 N 
ATOM     13  H   UNL     1       6.217  -2.278  25.014  0.00  0.00    +0.151 HD
ATOM     14  O   UNL     1       7.133  -2.123  22.356  0.00  0.00    -0.338 OA
ENDROOT
BRANCH   2  15
ATOM     15  O   UNL     1      10.292  -1.400  24.149  0.00  0.00    -0.386 OA
ATOM     16  H   UNL     1      10.287  -0.508  23.749  0.00  0.00    +0.210 HD
ENDBRANCH   2  15
BRANCH   3  17
ATOM     17  O   UNL     1      10.086  -4.193  24.549  0.00  0.00    -0.386 OA
ATOM     18  H   UNL     1      10.281  -4.084  25.496  0.00  0.00    +0.210 HD
ENDBRANCH   3  17
BRANCH   4  19
ATOM     19  O   UNL     1       7.408  -5.257  24.373  0.00  0.00    -0.384 OA
ATOM     20  H   UNL     1       7.496  -6.101  23.892  0.00  0.00    +0.210 HD
ENDBRANCH   4  19
BRANCH   1  21
ATOM     21  C   UNL     1       8.647  -0.306  21.898  0.00  0.00    +0.190 C 
BRANCH  21  22
ATOM     22  O   UNL     1       9.781  -0.773  21.163  0.00  0.00    -0.392 OA
ATOM     23  H   UNL     1      10.533  -0.776  21.780  0.00  0.00    +0.210 HD
ENDBRANCH  21  22
ENDBRANCH   1  21
TORSDOF 5
ENDMDL
MODEL 6
REMARK VINA RESULT:      -5.3      3.665      5.282
REMARK  Name = 
REMARK  5 active torsions:
REMARK  status: ('A' for Active; 'I' for Inactive)
REMARK    1  A    between atoms: O_1  and  C_2
REMARK    2  A    between atoms: C_2  and  C_3
REMARK    3  A    between atoms: C_13  and  O_15
REMARK    4  A    between atoms: C_16  and  O_18
REMARK    5  A    between atoms: C_19  and  O_21
REMARK                            x       y       z     vdW  Elec       q    Type
REMARK                         _______ _______ _______ _____ _____    ______ ____
ROOT
ATOM      1  C   UNL     1       9.100   0.831  23.350  0.00  0.00    +0.178 C 
ATOM      2  C   UNL     1       9.017   1.264  24.819  0.00  0.00    +0.177 C 
ATOM      3  C   UNL     1       8.103   0.329  25.613  0.00  0.00    +0.179 C 
ATOM      4  C   UNL     1       8.521  -1.133  25.433  0.00  0.00    +0.205 C 
ATOM      5  C   UNL     1       8.574  -1.455  23.920  0.00  0.00    +0.242 C 
ATOM      6  C   UNL     1       9.047  -2.930  23.767  0.00  0.00    +0.272 C 
ATOM      7  O   UNL     1      10.118  -3.393  24.144  0.00  0.00    -0.270 OA
ATOM      8  N   UNL     1       8.032  -3.655  23.225  0.00  0.00    -0.264 N 
ATOM      9  H   UNL     1       8.068  -4.651  23.074  0.00  0.00    +0.157 HD
ATOM     10  C   UNL     1       6.960  -2.865  22.991  0.00  0.00    +0.139 C 
ATOM     11  S   UNL     1       5.494  -3.375  22.442  0.00  0.00    -0.018 S 
ATOM     12  N   UNL     1       7.277  -1.564  23.288  0.00  0.00    -0.289 N 
ATOM     13  H   UNL     1       6.581  -0.834  23.250  0.00  0.00    +0.151 HD
ATOM     14  O   UNL     1       9.383  -0.564  23.181  0.00  0.00    -0.338 OA
ENDROOT
BRANCH   2  15
ATOM     15  O   UNL     1       8.493   2.599  24.888  0.00  0.00    -0.386 OA
ATOM     16  H   UNL     1       8.209   2.840  23.984  0.00  0.00    +0.210 HD
ENDBRANCH   2  15
BRANCH   3  17
ATOM     17  O   UNL     1       8.123   0.742  26.991  0.00  0.00    -0.386 OA
ATOM     18  H   UNL     1       7.409   0.278  27.463  0.00  0.00    +0.210 HD
ENDBRANCH   3  17
BRANCH   4  19
ATOM     19  O   UNL     1       7.596  -1.967  26.147  0.00  0.00    -0.384 OA
ATOM     20  H   UNL     1       7.771  -1.871  27.101  0.00  0.00    +0.210 HD
ENDBRANCH   4  19
BRANCH   1  21
ATOM     21  C   UNL     1      10.187   1.635  22.615  0.00  0.00    +0.190 C 
BRANCH  21  22
ATOM     22  O   UNL     1       9.687   2.141  21.375  0.00  0.00    -0.392 OA
ATOM     23  H   UNL     1      10.342   2.782  21.048  0.00  0.00    +0.210 HD
ENDBRANCH  21  22
ENDBRANCH   1  21
TORSDOF 5
ENDMDL
MODEL 7
REMARK VINA RESULT:      -5.3      5.709      7.285
REMARK  Name = 
REMARK  5 active torsions:
REMARK  status: ('A' for Active; 'I' for Inactive)
REMARK    1  A    between atoms: O_1  and  C_2
REMARK    2  A    between atoms: C_2  and  C_3
REMARK    3  A    between atoms: C_13  and  O_15
REMARK    4  A    between atoms: C_16  and  O_18
REMARK    5  A    between atoms: C_19  and  O_21
REMARK                            x       y       z     vdW  Elec       q    Type
REMARK                         _______ _______ _______ _____ _____    ______ ____
ROOT
ATOM      1  C   UNL     1       8.686  -0.124  24.926  0.00  0.00    +0.178 C 
ATOM      2  C   UNL     1       9.090  -1.087  23.802  0.00  0.00    +0.177 C 
ATOM      3  C   UNL     1       8.931  -0.424  22.433  0.00  0.00    +0.179 C 
ATOM      4  C   UNL     1       9.670   0.916  22.380  0.00  0.00    +0.205 C 
ATOM      5  C   UNL     1       9.188   1.799  23.556  0.00  0.00    +0.242 C 
ATOM      6  C   UNL     1       9.991   3.132  23.506  0.00  0.00    +0.272 C 
ATOM      7  O   UNL     1      11.207   3.253  23.604  0.00  0.00    -0.270 OA
ATOM      8  N   UNL     1       9.125   4.147  23.240  0.00  0.00    -0.264 N 
ATOM      9  H   UNL     1       9.405   5.106  23.102  0.00  0.00    +0.157 HD
ATOM     10  C   UNL     1       7.866   3.673  23.115  0.00  0.00    +0.139 C 
ATOM     11  S   UNL     1       6.545   4.558  22.689  0.00  0.00    -0.018 S 
ATOM     12  N   UNL     1       7.853   2.330  23.394  0.00  0.00    -0.289 N 
ATOM     13  H   UNL     1       7.013   1.780  23.281  0.00  0.00    +0.151 HD
ATOM     14  O   UNL     1       9.294   1.170  24.816  0.00  0.00    -0.338 OA
ENDROOT
BRANCH   2  15
ATOM     15  O   UNL     1       8.253  -2.252  23.857  0.00  0.00    -0.386 OA
ATOM     16  H   UNL     1       8.565  -2.792  24.610  0.00  0.00    +0.210 HD
ENDBRANCH   2  15
BRANCH   3  17
ATOM     17  O   UNL     1       9.390  -1.347  21.430  0.00  0.00    -0.386 OA
ATOM     18  H   UNL     1       8.614  -1.744  20.996  0.00  0.00    +0.210 HD
ENDBRANCH   3  17
BRANCH   4  19
ATOM     19  O   UNL     1       9.438   1.520  21.099  0.00  0.00    -0.384 OA
ATOM     20  H   UNL     1       9.335   2.481  21.229  0.00  0.00    +0.210 HD
ENDBRANCH   4  19
BRANCH   1  21
ATOM     21  C   UNL     1       9.058  -0.715  26.298  0.00  0.00    +0.190 C 
BRANCH  21  22
ATOM     22  O   UNL     1       8.102  -1.700  26.697  0.00  0.00    -0.392 OA
ATOM     23  H   UNL     1       7.295  -1.535  26.179  0.00  0.00    +0.210 HD
ENDBRANCH  21  22
ENDBRANCH   1  21
TORSDOF 5
ENDMDL
MODEL 8
REMARK VINA RESULT:      -5.3      6.565      8.033
REMARK  Name = 
REMARK  5 active torsions:
REMARK  status: ('A' for Active; 'I' for Inactive)
REMARK    1  A    between atoms: O_1  and  C_2
REMARK    2  A    between atoms: C_2  and  C_3
REMARK    3  A    between atoms: C_13  and  O_15
REMARK    4  A    between atoms: C_16  and  O_18
REMARK    5  A    between atoms: C_19  and  O_21
REMARK                            x       y       z     vdW  Elec       q    Type
REMARK                         _______ _______ _______ _____ _____    ______ ____
ROOT
ATOM      1  C   UNL     1       9.643   0.568  22.583  0.00  0.00    +0.178 C 
ATOM      2  C   UNL     1       9.085  -0.066  23.864  0.00  0.00    +0.177 C 
ATOM      3  C   UNL     1       9.083   0.942  25.015  0.00  0.00    +0.179 C 
ATOM      4  C   UNL     1       8.365   2.234  24.614  0.00  0.00    +0.205 C 
ATOM      5  C   UNL     1       9.005   2.779  23.315  0.00  0.00    +0.242 C 
ATOM      6  C   UNL     1       8.225   4.062  22.905  0.00  0.00    +0.272 C 
ATOM      7  O   UNL     1       7.033   4.131  22.628  0.00  0.00    -0.270 OA
ATOM      8  N   UNL     1       9.067   5.126  22.997  0.00  0.00    -0.264 N 
ATOM      9  H   UNL     1       8.789   6.082  22.837  0.00  0.00    +0.157 HD
ATOM     10  C   UNL     1      10.294   4.725  23.400  0.00  0.00    +0.139 C 
ATOM     11  S   UNL     1      11.565   5.715  23.736  0.00  0.00    -0.018 S 
ATOM     12  N   UNL     1      10.319   3.357  23.494  0.00  0.00    -0.289 N 
ATOM     13  H   UNL     1      11.128   2.872  23.854  0.00  0.00    +0.151 HD
ATOM     14  O   UNL     1       9.047   1.833  22.266  0.00  0.00    -0.338 OA
ENDROOT
BRANCH   2  15
ATOM     15  O   UNL     1       9.903  -1.188  24.228  0.00  0.00    -0.386 OA
ATOM     16  H   UNL     1      10.075  -1.693  23.408  0.00  0.00    +0.210 HD
ENDBRANCH   2  15
BRANCH   3  17
ATOM     17  O   UNL     1       8.486   0.313  26.163  0.00  0.00    -0.386 OA
ATOM     18  H   UNL     1       9.101   0.393  26.913  0.00  0.00    +0.210 HD
ENDBRANCH   3  17
BRANCH   4  19
ATOM     19  O   UNL     1       8.446   3.163  25.706  0.00  0.00    -0.384 OA
ATOM     20  H   UNL     1       7.568   3.215  26.127  0.00  0.00    +0.210 HD
ENDBRANCH   4  19
BRANCH   1  21
ATOM     21  C   UNL     1       9.435  -0.375  21.384  0.00  0.00    +0.190 C 
BRANCH  21  22
ATOM     22  O   UNL     1      10.289  -1.516  21.488  0.00  0.00    -0.392 OA
ATOM     23  H   UNL     1       9.839  -2.246  21.029  0.00  0.00    +0.210 HD
ENDBRANCH  21  22
ENDBRANCH   1  21
TORSDOF 5
ENDMDL
MODEL 9
REMARK VINA RESULT:      -5.2      3.226      4.512
REMARK  Name = 
REMARK  5 active torsions:
REMARK  status: ('A' for Active; 'I' for Inactive)
REMARK    1  A    between atoms: O_1  and  C_2
REMARK    2  A    between atoms: C_2  and  C_3
REMARK    3  A    between atoms: C_13  and  O_15
REMARK    4  A    between atoms: C_16  and  O_18
REMARK    5  A    between atoms: C_19  and  O_21
REMARK                            x       y       z     vdW  Elec       q    Type
REMARK                         _______ _______ _______ _____ _____    ______ ____
ROOT
ATOM      1  C   UNL     1       8.149  -4.242  25.603  0.00  0.00    +0.178 C 
ATOM      2  C   UNL     1       7.177  -4.843  24.580  0.00  0.00    +0.177 C 
ATOM      3  C   UNL     1       6.666  -3.769  23.618  0.00  0.00    +0.179 C 
ATOM      4  C   UNL     1       7.828  -3.006  22.977  0.00  0.00    +0.205 C 
ATOM      5  C   UNL     1       8.740  -2.450  24.097  0.00  0.00    +0.242 C 
ATOM      6  C   UNL     1       9.936  -1.723  23.416  0.00  0.00    +0.272 C 
ATOM      7  O   UNL     1      10.764  -2.230  22.668  0.00  0.00    -0.270 OA
ATOM      8  N   UNL     1       9.860  -0.398  23.713  0.00  0.00    -0.264 N 
ATOM      9  H   UNL     1      10.490   0.299  23.347  0.00  0.00    +0.157 HD
ATOM     10  C   UNL     1       8.789  -0.151  24.500  0.00  0.00    +0.139 C 
ATOM     11  S   UNL     1       8.284   1.337  24.993  0.00  0.00    -0.018 S 
ATOM     12  N   UNL     1       8.177  -1.334  24.825  0.00  0.00    -0.289 N 
ATOM     13  H   UNL     1       7.312  -1.350  25.346  0.00  0.00    +0.151 HD
ATOM     14  O   UNL     1       9.175  -3.436  25.011  0.00  0.00    -0.338 OA
ENDROOT
BRANCH   2  15
ATOM     15  O   UNL     1       6.059  -5.418  25.273  0.00  0.00    -0.386 OA
ATOM     16  H   UNL     1       5.606  -4.687  25.739  0.00  0.00    +0.210 HD
ENDBRANCH   2  15
BRANCH   3  17
ATOM     17  O   UNL     1       5.819  -4.404  22.643  0.00  0.00    -0.386 OA
ATOM     18  H   UNL     1       4.890  -4.260  22.900  0.00  0.00    +0.210 HD
ENDBRANCH   3  17
BRANCH   4  19
ATOM     19  O   UNL     1       7.292  -1.975  22.133  0.00  0.00    -0.384 OA
ATOM     20  H   UNL     1       6.834  -1.325  22.699  0.00  0.00    +0.210 HD
ENDBRANCH   4  19
BRANCH   1  21
ATOM     21  C   UNL     1       8.826  -5.358  26.419  0.00  0.00    +0.190 C 
BRANCH  21  22
ATOM     22  O   UNL     1       7.948  -5.837  27.441  0.00  0.00    -0.392 OA
ATOM     23  H   UNL     1       7.516  -6.634  27.090  0.00  0.00    +0.210 HD
ENDBRANCH  21  22
ENDBRANCH   1  21
TORSDOF 5
ENDMDL
