MODEL 1
REMARK VINA RESULT:       1.0      0.000      0.000
REMARK  Name = 
REMARK  30 active torsions:
REMARK  status: ('A' for Active; 'I' for Inactive)
REMARK    1  A    between atoms: C_1  and  C_2
REMARK    2  A    between atoms: C_2  and  C_3
REMARK    3  A    between atoms: C_6  and  C_8
REMARK    4  A    between atoms: C_11  and  C_13
REMARK    5  A    between atoms: C_13  and  C_14
REMARK    6  A    between atoms: C_14  and  O_16
REMARK    7  A    between atoms: C_14  and  C_17
REMARK    8  A    between atoms: C_17  and  C_19
REMARK    9  A    between atoms: C_17  and  C_20
REMARK   10  A    between atoms: C_20  and  C_21
REMARK   11  A    between atoms: C_21  and  C_22
REMARK   12  A    between atoms: C_23  and  C_24
REMARK   13  A    between atoms: C_25  and  C_26
REMARK   14  A    between atoms: C_25  and  C_27
REMARK   15  A    between atoms: C_34  and  O_36
REMARK   16  A    between atoms: C_37  and  C_39
REMARK   17  A    between atoms: C_40  and  O_42
REMARK   18  A    between atoms: C_43  and  C_45
REMARK   19  A    between atoms: C_45  and  C_46
REMARK   20  A    between atoms: C_46  and  C_47
REMARK   21  A    between atoms: C_47  and  C_48
REMARK   22  A    between atoms: C_53  and  C_55
REMARK   23  A    between atoms: C_55  and  C_56
REMARK   24  A    between atoms: C_55  and  C_57
REMARK   25  A    between atoms: C_61  and  C_63
REMARK   26  A    between atoms: C_63  and  C_64
REMARK   27  A    between atoms: C_68  and  O_69
REMARK   28  A    between atoms: C_83  and  C_85
REMARK   29  A    between atoms: C_86  and  O_88
REMARK   30  A    between atoms: C_89  and  C_91
REMARK                            x       y       z     vdW  Elec       q    Type
REMARK                         _______ _______ _______ _____ _____    ______ ____
ROOT
ATOM      1  C   UNL     1       7.167  -2.153  25.010  0.00  0.00    +0.206 C 
ATOM      2  O   UNL     1       5.997  -0.702  26.177  0.00  0.00    -0.455 OA
ATOM      3  C   UNL     1       4.650   0.550  26.905  0.00  0.00    +0.326 C 
ATOM      4  O   UNL     1       3.598   0.069  26.359  0.00  0.00    -0.249 OA
ATOM      5  C   UNL     1       3.742   2.268  27.971  0.00  0.00    +0.181 C 
ATOM      6  N   UNL     1       2.270   3.690  27.466  0.00  0.00    -0.224 NA
ATOM      7  H   UNL     1       1.455   3.114  27.787  0.00  0.00    +0.145 HD
ATOM      8  N   UNL     1       1.489   5.245  28.194  0.00  0.00    -0.235 N 
ATOM      9  C   UNL     1       1.487   5.984  29.551  0.00  0.00    +0.127 C 
ATOM     10  C   UNL     1       2.237   5.004  30.435  0.00  0.00    +0.023 C 
ATOM     11  C   UNL     1       1.403   6.564  27.487  0.00  0.00    +0.250 C 
ATOM     12  O   UNL     1       0.443   7.045  26.892  0.00  0.00    -0.272 OA
ATOM     13  C   UNL     1       2.934   7.107  27.582  0.00  0.00    +0.165 C 
ATOM     14  N   UNL     1       3.074   6.110  26.545  0.00  0.00    -0.302 N 
ATOM     15  H   UNL     1       2.267   5.444  26.520  0.00  0.00    +0.150 HD
ATOM     16  C   UNL     1       3.999   5.137  26.384  0.00  0.00    +0.234 C 
ATOM     17  O   UNL     1       4.953   4.879  27.115  0.00  0.00    -0.274 OA
ATOM     18  C   UNL     1       3.600   4.205  25.234  0.00  0.00    +0.161 C 
ATOM     19  N   UNL     1       4.490   3.080  25.569  0.00  0.00    -0.303 N 
ATOM     20  H   UNL     1       5.135   3.393  26.294  0.00  0.00    +0.149 HD
ATOM     21  C   UNL     1       5.080   2.244  24.669  0.00  0.00    +0.219 C 
ATOM     22  O   UNL     1       4.396   1.797  23.754  0.00  0.00    -0.275 OA
ATOM     23  C   UNL     1       6.568   1.802  24.960  0.00  0.00    +0.104 C 
ATOM     24  C   UNL     1       7.302   1.313  23.659  0.00  0.00    +0.132 C 
ATOM     25  C   UNL     1       8.661   0.539  23.787  0.00  0.00    +0.048 C 
ATOM     26  C   UNL     1       9.636   0.097  24.936  0.00  0.00    +0.013 C 
ATOM     27  C   UNL     1       9.169   0.077  22.317  0.00  0.00    +0.143 C 
ATOM     28  C   UNL     1      10.674  -0.237  22.226  0.00  0.00    +0.004 C 
ATOM     29  C   UNL     1      11.244  -1.208  21.487  0.00  0.00    -0.002 C 
ATOM     30  C   UNL     1      11.498  -2.360  22.404  0.00  0.00    -0.004 C 
ATOM     31  C   UNL     1      10.277  -2.778  22.841  0.00  0.00    -0.023 C 
ATOM     32  C   UNL     1       3.004   3.372  29.631  0.00  0.00    +0.033 C 
ATOM     33  C   UNL     1       9.008  -2.193  24.194  0.00  0.00    +0.076 C 
ENDROOT
BRANCH   1  35
ATOM     34  C   UNL     1       6.825  -5.479  24.963  0.00  0.00    +0.002 C 
ATOM     35  C   UNL     1       7.565  -4.138  24.427  0.00  0.00    -0.032 C 
ATOM     36  C   UNL     1       7.038  -5.021  22.750  0.00  0.00    +0.043 C 
BRANCH  34  38
ATOM     37  C   UNL     1       4.699  -7.130  24.962  0.00  0.00    -0.027 C 
ATOM     38  C   UNL     1       5.883  -6.891  24.381  0.00  0.00    -0.004 C 
BRANCH  37  39
ATOM     39  C   UNL     1       3.449  -7.558  24.225  0.00  0.00    +0.027 C 
BRANCH  39  40
ATOM     40  C   UNL     1       2.372  -6.498  24.023  0.00  0.00    +0.010 C 
BRANCH  40  41
ATOM     41  C   UNL     1       2.936  -5.277  23.250  0.00  0.00    +0.015 C 
ATOM     42  C   UNL     1       3.735  -5.691  22.022  0.00  0.00    +0.010 C 
BRANCH  41  43
ATOM     43  C   UNL     1       3.697  -4.289  24.196  0.00  0.00    +0.120 C 
BRANCH  43  44
ATOM     44  O   UNL     1       3.420  -2.961  23.769  0.00  0.00    -0.391 OA
ATOM     45  H   UNL     1       4.256  -2.591  23.426  0.00  0.00    +0.210 HD
ENDBRANCH  43  44
BRANCH  43  46
ATOM     46  C   UNL     1       3.138  -4.562  25.589  0.00  0.00    +0.063 C 
BRANCH  46  58
ATOM     47  C   UNL     1       0.834  -7.588  28.101  0.00  0.00    +0.075 C 
ATOM     48  C   UNL     1       1.973  -7.407  29.133  0.00  0.00    +0.218 C 
ATOM     49  O   UNL     1       2.592  -8.345  29.627  0.00  0.00    -0.275 OA
ATOM     50  N   UNL     1       2.139  -6.112  29.603  0.00  0.00    -0.287 N 
ATOM     51  H   UNL     1       2.621  -6.058  30.487  0.00  0.00    +0.151 HD
ATOM     52  C   UNL     1       2.205  -4.985  28.646  0.00  0.00    +0.144 C 
ATOM     53  C   UNL     1       2.320  -3.574  29.317  0.00  0.00    +0.065 C 
ATOM     54  C   UNL     1       3.326  -3.632  30.481  0.00  0.00    +0.015 C 
ATOM     55  C   UNL     1       2.801  -2.421  28.340  0.00  0.00    +0.127 C 
ATOM     56  C   UNL     1       3.959  -2.844  27.421  0.00  0.00    +0.044 C 
ATOM     57  C   UNL     1       5.290  -2.712  28.163  0.00  0.00    +0.013 C 
ATOM     58  C   UNL     1       3.852  -4.278  26.894  0.00  0.00    +0.129 C 
ATOM     59  O   UNL     1       3.407  -5.226  27.891  0.00  0.00    -0.352 OA
ATOM     60  C   UNL     1       0.861  -5.172  27.889  0.00  0.00    +0.037 C 
ATOM     61  C   UNL     1       0.444  -3.989  27.085  0.00  0.00    +0.012 C 
ATOM     62  C   UNL     1       0.908  -6.476  27.084  0.00  0.00    +0.020 C 
BRANCH  47  64
ATOM     63  C   UNL     1       0.997  -9.169  25.981  0.00  0.00    +0.004 C 
ATOM     64  C   UNL     1       0.877  -8.985  27.488  0.00  0.00    +0.009 C 
ENDBRANCH  47  64
BRANCH  55  65
ATOM     65  O   UNL     1       1.775  -1.739  27.594  0.00  0.00    -0.391 OA
ATOM     66  H   UNL     1       1.454  -2.310  26.857  0.00  0.00    +0.210 HD
ENDBRANCH  55  65
ENDBRANCH  46  58
ENDBRANCH  43  46
ENDBRANCH  41  43
ENDBRANCH  40  41
ENDBRANCH  39  40
ENDBRANCH  37  39
ENDBRANCH  34  38
ENDBRANCH   1  35
BRANCH  18  67
ATOM     67  C   UNL     1       2.158   4.570  24.642  0.00  0.00    +0.012 C 
ATOM     68  C   UNL     1       2.401   5.234  23.198  0.00  0.00    +0.009 C 
ATOM     69  C   UNL     1       1.322   3.342  24.474  0.00  0.00    +0.009 C 
ENDBRANCH  18  67
BRANCH  27  70
ATOM     70  O   UNL     1       8.303  -1.009  21.907  0.00  0.00    -0.387 OA
ATOM     71  H   UNL     1       7.595  -0.699  21.318  0.00  0.00    +0.210 HD
ENDBRANCH  27  70
BRANCH  24  72
ATOM     72  O   UNL     1       6.395   0.273  23.083  0.00  0.00    -0.391 OA
ATOM     73  H   UNL     1       6.500  -0.586  23.552  0.00  0.00    +0.210 HD
ENDBRANCH  24  72
BRANCH  13  74
ATOM     74  C   UNL     1       4.012   6.756  28.647  0.00  0.00    +0.067 C 
BRANCH  74  75
ATOM     75  C   UNL     1       5.474   7.086  28.502  0.00  0.00    -0.042 A 
ATOM     76  C   UNL     1       6.414   7.084  29.562  0.00  0.00    +0.049 A 
ATOM     77  C   UNL     1       7.763   6.960  29.304  0.00  0.00    +0.117 A 
ATOM     78  C   UNL     1       8.189   6.817  28.003  0.00  0.00    +0.045 A 
ATOM     79  C   UNL     1       7.292   6.996  26.952  0.00  0.00    +0.004 A 
ATOM     80  C   UNL     1       5.936   7.108  27.197  0.00  0.00    +0.004 A 
BRANCH  77  81
ATOM     81  O   UNL     1       8.627   6.883  30.352  0.00  0.00    -0.507 OA
ATOM     82  H   UNL     1       8.104   6.943  31.169  0.00  0.00    +0.292 HD
ENDBRANCH  77  81
ENDBRANCH  74  75
ENDBRANCH  13  74
BRANCH  23  83
ATOM     83  C   UNL     1       7.223   2.051  26.385  0.00  0.00    +0.023 C 
BRANCH  83  84
ATOM     84  C   UNL     1       8.151   3.193  26.275  0.00  0.00    +0.075 C 
BRANCH  84  85
ATOM     85  C   UNL     1       8.203   4.006  25.023  0.00  0.00    +0.130 C 
ATOM     86  O   UNL     1       7.306   4.733  24.614  0.00  0.00    -0.298 OA
ATOM     87  C   UNL     1       9.560   3.937  24.397  0.00  0.00    +0.086 C 
ENDBRANCH  84  85
ENDBRANCH  83  84
ENDBRANCH  23  83
TORSDOF 20
ENDMDL
MODEL 2
REMARK VINA RESULT:       2.3      2.807      6.746
REMARK  Name = 
REMARK  30 active torsions:
REMARK  status: ('A' for Active; 'I' for Inactive)
REMARK    1  A    between atoms: C_1  and  C_2
REMARK    2  A    between atoms: C_2  and  C_3
REMARK    3  A    between atoms: C_6  and  C_8
REMARK    4  A    between atoms: C_11  and  C_13
REMARK    5  A    between atoms: C_13  and  C_14
REMARK    6  A    between atoms: C_14  and  O_16
REMARK    7  A    between atoms: C_14  and  C_17
REMARK    8  A    between atoms: C_17  and  C_19
REMARK    9  A    between atoms: C_17  and  C_20
REMARK   10  A    between atoms: C_20  and  C_21
REMARK   11  A    between atoms: C_21  and  C_22
REMARK   12  A    between atoms: C_23  and  C_24
REMARK   13  A    between atoms: C_25  and  C_26
REMARK   14  A    between atoms: C_25  and  C_27
REMARK   15  A    between atoms: C_34  and  O_36
REMARK   16  A    between atoms: C_37  and  C_39
REMARK   17  A    between atoms: C_40  and  O_42
REMARK   18  A    between atoms: C_43  and  C_45
REMARK   19  A    between atoms: C_45  and  C_46
REMARK   20  A    between atoms: C_46  and  C_47
REMARK   21  A    between atoms: C_47  and  C_48
REMARK   22  A    between atoms: C_53  and  C_55
REMARK   23  A    between atoms: C_55  and  C_56
REMARK   24  A    between atoms: C_55  and  C_57
REMARK   25  A    between atoms: C_61  and  C_63
REMARK   26  A    between atoms: C_63  and  C_64
REMARK   27  A    between atoms: C_68  and  O_69
REMARK   28  A    between atoms: C_83  and  C_85
REMARK   29  A    between atoms: C_86  and  O_88
REMARK   30  A    between atoms: C_89  and  C_91
REMARK                            x       y       z     vdW  Elec       q    Type
REMARK                         _______ _______ _______ _____ _____    ______ ____
ROOT
ATOM      1  C   UNL     1       2.355  -1.572  25.667  0.00  0.00    +0.206 C 
ATOM      2  O   UNL     1       3.396   0.248  25.003  0.00  0.00    -0.455 OA
ATOM      3  C   UNL     1       4.602   1.598  24.207  0.00  0.00    +0.326 C 
ATOM      4  O   UNL     1       5.059   0.921  23.225  0.00  0.00    -0.249 OA
ATOM      5  C   UNL     1       5.751   3.471  23.912  0.00  0.00    +0.181 C 
ATOM      6  N   UNL     1       7.749   3.894  23.391  0.00  0.00    -0.224 NA
ATOM      7  H   UNL     1       7.592   3.876  22.354  0.00  0.00    +0.145 HD
ATOM      8  N   UNL     1       8.885   5.389  23.217  0.00  0.00    -0.235 N 
ATOM      9  C   UNL     1       8.740   6.928  23.201  0.00  0.00    +0.127 C 
ATOM     10  C   UNL     1       7.231   7.093  23.198  0.00  0.00    +0.023 C 
ATOM     11  C   UNL     1      10.213   5.532  23.898  0.00  0.00    +0.250 C 
ATOM     12  O   UNL     1      11.331   5.340  23.428  0.00  0.00    -0.272 OA
ATOM     13  C   UNL     1       9.781   5.849  25.434  0.00  0.00    +0.165 C 
ATOM     14  N   UNL     1       9.516   4.430  25.376  0.00  0.00    -0.302 N 
ATOM     15  H   UNL     1       9.462   4.074  24.393  0.00  0.00    +0.150 HD
ATOM     16  C   UNL     1       8.440   3.722  25.788  0.00  0.00    +0.234 C 
ATOM     17  O   UNL     1       7.416   4.151  26.316  0.00  0.00    -0.274 OA
ATOM     18  C   UNL     1       8.547   2.265  25.321  0.00  0.00    +0.161 C 
ATOM     19  N   UNL     1       7.136   1.889  25.513  0.00  0.00    -0.303 N 
ATOM     20  H   UNL     1       6.676   2.639  26.026  0.00  0.00    +0.149 HD
ATOM     21  C   UNL     1       6.691   0.653  25.880  0.00  0.00    +0.219 C 
ATOM     22  O   UNL     1       7.171  -0.328  25.321  0.00  0.00    -0.275 OA
ATOM     23  C   UNL     1       5.486   0.593  26.898  0.00  0.00    +0.104 C 
ATOM     24  C   UNL     1       5.412  -0.790  27.641  0.00  0.00    +0.132 C 
ATOM     25  C   UNL     1       4.116  -1.164  28.443  0.00  0.00    +0.048 C 
ATOM     26  C   UNL     1       2.745  -0.490  28.804  0.00  0.00    +0.013 C 
ATOM     27  C   UNL     1       4.259  -2.664  29.045  0.00  0.00    +0.143 C 
ATOM     28  C   UNL     1       3.324  -2.973  30.230  0.00  0.00    +0.004 C 
ATOM     29  C   UNL     1       2.714  -4.148  30.480  0.00  0.00    -0.002 C 
ATOM     30  C   UNL     1       1.315  -4.029  29.965  0.00  0.00    -0.004 C 
ATOM     31  C   UNL     1       1.418  -3.847  28.619  0.00  0.00    -0.023 C 
ATOM     32  C   UNL     1       6.085   5.492  23.345  0.00  0.00    +0.033 C 
ATOM     33  C   UNL     1       1.803  -2.347  27.442  0.00  0.00    +0.076 C 
ENDROOT
BRANCH   1  35
ATOM     34  C   UNL     1       1.363  -4.531  24.466  0.00  0.00    +0.002 C 
ATOM     35  C   UNL     1       1.035  -3.169  25.285  0.00  0.00    -0.032 C 
ATOM     36  C   UNL     1       0.446  -4.562  26.542  0.00  0.00    +0.043 C 
BRANCH  34  38
ATOM     37  C   UNL     1       2.407  -6.991  24.140  0.00  0.00    -0.027 C 
ATOM     38  C   UNL     1       1.371  -6.316  24.657  0.00  0.00    -0.004 C 
BRANCH  37  39
ATOM     39  C   UNL     1       3.098  -8.155  24.815  0.00  0.00    +0.027 C 
BRANCH  39  40
ATOM     40  C   UNL     1       4.426  -7.861  25.506  0.00  0.00    +0.010 C 
BRANCH  40  41
ATOM     41  C   UNL     1       4.402  -6.463  26.177  0.00  0.00    +0.015 C 
ATOM     42  C   UNL     1       4.259  -5.338  25.161  0.00  0.00    +0.010 C 
BRANCH  41  43
ATOM     43  C   UNL     1       5.599  -6.272  27.167  0.00  0.00    +0.120 C 
BRANCH  43  44
ATOM     44  O   UNL     1       5.831  -7.510  27.829  0.00  0.00    -0.391 OA
ATOM     45  H   UNL     1       6.668  -7.417  28.323  0.00  0.00    +0.210 HD
ENDBRANCH  43  44
BRANCH  43  46
ATOM     46  C   UNL     1       6.782  -5.871  26.291  0.00  0.00    +0.063 C 
BRANCH  46  58
ATOM     47  C   UNL     1       5.883  -5.344  21.854  0.00  0.00    +0.075 C 
ATOM     48  C   UNL     1       6.124  -3.838  22.115  0.00  0.00    +0.218 C 
ATOM     49  O   UNL     1       5.335  -2.959  21.781  0.00  0.00    -0.275 OA
ATOM     50  N   UNL     1       7.385  -3.521  22.600  0.00  0.00    -0.287 N 
ATOM     51  H   UNL     1       7.652  -2.560  22.447  0.00  0.00    +0.151 HD
ATOM     52  C   UNL     1       7.946  -4.278  23.741  0.00  0.00    +0.144 C 
ATOM     53  C   UNL     1       9.404  -3.865  24.137  0.00  0.00    +0.065 C 
ATOM     54  C   UNL     1       9.533  -2.331  24.118  0.00  0.00    +0.015 C 
ATOM     55  C   UNL     1       9.855  -4.353  25.576  0.00  0.00    +0.127 C 
ATOM     56  C   UNL     1       8.771  -4.170  26.651  0.00  0.00    +0.044 C 
ATOM     57  C   UNL     1       8.795  -2.735  27.178  0.00  0.00    +0.013 C 
ATOM     58  C   UNL     1       7.350  -4.472  26.168  0.00  0.00    +0.129 C 
ATOM     59  O   UNL     1       7.072  -3.966  24.842  0.00  0.00    -0.352 OA
ATOM     60  C   UNL     1       7.872  -5.728  23.186  0.00  0.00    +0.037 C 
ATOM     61  C   UNL     1       8.687  -6.715  23.950  0.00  0.00    +0.012 C 
ATOM     62  C   UNL     1       6.403  -6.137  23.027  0.00  0.00    +0.020 C 
BRANCH  47  64
ATOM     63  C   UNL     1       3.918  -7.024  21.273  0.00  0.00    +0.004 C 
ATOM     64  C   UNL     1       4.414  -5.608  21.536  0.00  0.00    +0.009 C 
ENDBRANCH  47  64
BRANCH  55  65
ATOM     65  O   UNL     1      10.443  -5.667  25.656  0.00  0.00    -0.391 OA
ATOM     66  H   UNL     1       9.898  -6.314  25.149  0.00  0.00    +0.210 HD
ENDBRANCH  55  65
ENDBRANCH  46  58
ENDBRANCH  43  46
ENDBRANCH  41  43
ENDBRANCH  40  41
ENDBRANCH  39  40
ENDBRANCH  37  39
ENDBRANCH  34  38
ENDBRANCH   1  35
BRANCH  18  67
ATOM     67  C   UNL     1       9.824   2.031  24.384  0.00  0.00    +0.012 C 
ATOM     68  C   UNL     1      10.588   0.734  24.951  0.00  0.00    +0.009 C 
ATOM     69  C   UNL     1       9.410   1.768  22.972  0.00  0.00    +0.009 C 
ENDBRANCH  18  67
BRANCH  27  70
ATOM     70  O   UNL     1       4.127  -3.570  27.924  0.00  0.00    -0.387 OA
ATOM     71  H   UNL     1       4.846  -3.451  27.280  0.00  0.00    +0.210 HD
ENDBRANCH  27  70
BRANCH  24  72
ATOM     72  O   UNL     1       5.415  -1.807  26.545  0.00  0.00    -0.391 OA
ATOM     73  H   UNL     1       6.222  -1.725  25.989  0.00  0.00    +0.210 HD
ENDBRANCH  24  72
BRANCH  13  74
ATOM     74  C   UNL     1       8.464   6.500  25.946  0.00  0.00    +0.067 C 
BRANCH  74  75
ATOM     75  C   UNL     1       8.229   6.908  27.376  0.00  0.00    -0.042 A 
ATOM     76  C   UNL     1       6.955   7.068  27.973  0.00  0.00    +0.049 A 
ATOM     77  C   UNL     1       6.809   7.007  29.343  0.00  0.00    +0.117 A 
ATOM     78  C   UNL     1       7.915   6.767  30.128  0.00  0.00    +0.045 A 
ATOM     79  C   UNL     1       9.188   6.787  29.562  0.00  0.00    +0.004 A 
ATOM     80  C   UNL     1       9.347   6.834  28.190  0.00  0.00    +0.004 A 
BRANCH  77  81
ATOM     81  O   UNL     1       5.559   7.086  29.875  0.00  0.00    -0.507 OA
ATOM     82  H   UNL     1       5.376   8.023  30.057  0.00  0.00    +0.292 HD
ENDBRANCH  77  81
ENDBRANCH  74  75
ENDBRANCH  13  74
BRANCH  23  83
ATOM     83  C   UNL     1       4.629   1.891  27.217  0.00  0.00    +0.023 C 
BRANCH  83  84
ATOM     84  C   UNL     1       5.470   2.822  27.994  0.00  0.00    +0.075 C 
BRANCH  84  85
ATOM     85  C   UNL     1       5.584   2.679  29.476  0.00  0.00    +0.130 C 
ATOM     86  O   UNL     1       6.597   2.891  30.132  0.00  0.00    -0.298 OA
ATOM     87  C   UNL     1       4.251   2.384  30.089  0.00  0.00    +0.086 C 
ENDBRANCH  84  85
ENDBRANCH  83  84
ENDBRANCH  23  83
TORSDOF 20
ENDMDL
