MODEL 1
REMARK VINA RESULT:      -6.5      0.000      0.000
REMARK  Name = 
REMARK  10 active torsions:
REMARK  status: ('A' for Active; 'I' for Inactive)
REMARK    1  A    between atoms: C_1  and  C_2
REMARK    2  A    between atoms: C_6  and  O_8
REMARK    3  A    between atoms: C_9  and  O_11
REMARK    4  A    between atoms: C_12  and  N_14
REMARK    5  A    between atoms: N_14  and  C_15
REMARK    6  A    between atoms: C_18  and  C_19
REMARK    7  A    between atoms: C_19  and  O_20
REMARK    8  A    between atoms: C_21  and  O_23
REMARK    9  A    between atoms: C_24  and  O_26
REMARK   10  A    between atoms: C_27  and  O_29
REMARK                            x       y       z     vdW  Elec       q    Type
REMARK                         _______ _______ _______ _____ _____    ______ ____
ROOT
ATOM      1  C   UNL     1       9.872  -0.559  23.921  0.00  0.00    +0.109 C 
ATOM      2  C   UNL     1      10.176  -0.511  22.382  0.00  0.00    +0.166 C 
ATOM      3  C   UNL     1       9.347   0.523  21.594  0.00  0.00    +0.177 C 
ATOM      4  C   UNL     1       9.503   1.938  22.196  0.00  0.00    +0.173 C 
ATOM      5  C   UNL     1       9.487   1.959  23.709  0.00  0.00    -0.016 C 
ATOM      6  C   UNL     1       9.640   0.843  24.450  0.00  0.00    -0.002 C 
ENDROOT
BRANCH   1   7
ATOM      7  N   UNL     1       8.743  -1.472  24.247  0.00  0.00    -0.300 NA
ATOM      8  H   UNL     1       8.062  -0.916  24.768  0.00  0.00    +0.123 HD
BRANCH   7  11
ATOM      9  C   UNL     1       6.894  -2.295  26.427  0.00  0.00    +0.039 C 
ATOM     10  C   UNL     1       8.357  -2.742  26.403  0.00  0.00    +0.135 C 
ATOM     11  C   UNL     1       9.088  -2.708  25.020  0.00  0.00    +0.114 C 
ATOM     12  C   UNL     1       9.006  -4.069  24.232  0.00  0.00    +0.164 C 
ATOM     13  C   UNL     1       8.993  -5.305  25.148  0.00  0.00    +0.170 C 
ATOM     14  C   UNL     1       8.015  -5.110  26.298  0.00  0.00    +0.194 C 
ATOM     15  O   UNL     1       8.468  -4.002  27.080  0.00  0.00    -0.373 OA
BRANCH  12  16
ATOM     16  O   UNL     1       7.866  -4.144  23.362  0.00  0.00    -0.388 OA
ATOM     17  H   UNL     1       7.076  -4.305  23.905  0.00  0.00    +0.210 HD
ENDBRANCH  12  16
BRANCH  13  18
ATOM     18  O   UNL     1      10.306  -5.542  25.676  0.00  0.00    -0.387 OA
ATOM     19  H   UNL     1      10.324  -5.171  26.579  0.00  0.00    +0.210 HD
ENDBRANCH  13  18
ENDBRANCH   7  11
ENDBRANCH   1   7
BRANCH   2  20
ATOM     20  O   UNL     1       9.986  -1.798  21.775  0.00  0.00    -0.387 OA
ATOM     21  H   UNL     1      10.106  -2.428  22.514  0.00  0.00    +0.210 HD
ENDBRANCH   2  20
BRANCH   3  22
ATOM     22  O   UNL     1       7.962   0.141  21.560  0.00  0.00    -0.386 OA
ATOM     23  H   UNL     1       7.444   0.968  21.480  0.00  0.00    +0.210 HD
ENDBRANCH   3  22
BRANCH   4  24
ATOM     24  O   UNL     1      10.699   2.589  21.771  0.00  0.00    -0.385 OA
ATOM     25  H   UNL     1      10.847   2.423  20.825  0.00  0.00    +0.210 HD
ENDBRANCH   4  24
BRANCH   5  26
ATOM     26  C   UNL     1       9.284   3.338  24.295  0.00  0.00    +0.189 C 
BRANCH  26  27
ATOM     27  O   UNL     1       9.181   4.334  23.297  0.00  0.00    -0.391 OA
ATOM     28  H   UNL     1       8.864   5.140  23.738  0.00  0.00    +0.210 HD
ENDBRANCH  26  27
ENDBRANCH   5  26
TORSDOF 9
ENDMDL
MODEL 2
REMARK VINA RESULT:      -6.4      2.635      3.628
REMARK  Name = 
REMARK  10 active torsions:
REMARK  status: ('A' for Active; 'I' for Inactive)
REMARK    1  A    between atoms: C_1  and  C_2
REMARK    2  A    between atoms: C_6  and  O_8
REMARK    3  A    between atoms: C_9  and  O_11
REMARK    4  A    between atoms: C_12  and  N_14
REMARK    5  A    between atoms: N_14  and  C_15
REMARK    6  A    between atoms: C_18  and  C_19
REMARK    7  A    between atoms: C_19  and  O_20
REMARK    8  A    between atoms: C_21  and  O_23
REMARK    9  A    between atoms: C_24  and  O_26
REMARK   10  A    between atoms: C_27  and  O_29
REMARK                            x       y       z     vdW  Elec       q    Type
REMARK                         _______ _______ _______ _____ _____    ______ ____
ROOT
ATOM      1  C   UNL     1       7.982  -1.855  23.608  0.00  0.00    +0.109 C 
ATOM      2  C   UNL     1       9.524  -1.886  23.898  0.00  0.00    +0.166 C 
ATOM      3  C   UNL     1      10.394  -1.190  22.833  0.00  0.00    +0.177 C 
ATOM      4  C   UNL     1       9.939   0.271  22.610  0.00  0.00    +0.173 C 
ATOM      5  C   UNL     1       8.437   0.441  22.580  0.00  0.00    -0.016 C 
ATOM      6  C   UNL     1       7.591  -0.516  23.014  0.00  0.00    -0.002 C 
ENDROOT
BRANCH   1   7
ATOM      7  N   UNL     1       7.544  -2.993  22.754  0.00  0.00    -0.300 NA
ATOM      8  H   UNL     1       7.435  -2.620  21.809  0.00  0.00    +0.123 HD
BRANCH   7  11
ATOM      9  C   UNL     1       6.813  -5.491  21.312  0.00  0.00    +0.039 C 
ATOM     10  C   UNL     1       5.768  -4.655  22.053  0.00  0.00    +0.135 C 
ATOM     11  C   UNL     1       6.287  -3.694  23.172  0.00  0.00    +0.114 C 
ATOM     12  C   UNL     1       6.297  -4.345  24.606  0.00  0.00    +0.164 C 
ATOM     13  C   UNL     1       5.157  -5.355  24.825  0.00  0.00    +0.170 C 
ATOM     14  C   UNL     1       5.040  -6.298  23.636  0.00  0.00    +0.194 C 
ATOM     15  O   UNL     1       4.706  -5.518  22.485  0.00  0.00    -0.373 OA
BRANCH  12  16
ATOM     16  O   UNL     1       7.539  -4.997  24.916  0.00  0.00    -0.388 OA
ATOM     17  H   UNL     1       8.255  -4.345  24.843  0.00  0.00    +0.210 HD
ENDBRANCH  12  16
BRANCH  13  18
ATOM     18  O   UNL     1       3.914  -4.664  25.008  0.00  0.00    -0.387 OA
ATOM     19  H   UNL     1       3.345  -5.236  25.559  0.00  0.00    +0.210 HD
ENDBRANCH  13  18
ENDBRANCH   7  11
ENDBRANCH   1   7
BRANCH   2  20
ATOM     20  O   UNL     1       9.995  -3.233  24.055  0.00  0.00    -0.387 OA
ATOM     21  H   UNL     1      10.661  -3.335  23.346  0.00  0.00    +0.210 HD
ENDBRANCH   2  20
BRANCH   3  22
ATOM     22  O   UNL     1      10.362  -1.920  21.596  0.00  0.00    -0.386 OA
ATOM     23  H   UNL     1      10.853  -2.753  21.748  0.00  0.00    +0.210 HD
ENDBRANCH   3  22
BRANCH   4  24
ATOM     24  O   UNL     1      10.452   1.164  23.598  0.00  0.00    -0.385 OA
ATOM     25  H   UNL     1      10.359   0.769  24.481  0.00  0.00    +0.210 HD
ENDBRANCH   4  24
BRANCH   5  26
ATOM     26  C   UNL     1       7.987   1.772  22.020  0.00  0.00    +0.189 C 
BRANCH  26  27
ATOM     27  O   UNL     1       9.067   2.537  21.526  0.00  0.00    -0.391 OA
ATOM     28  H   UNL     1       8.868   2.736  20.595  0.00  0.00    +0.210 HD
ENDBRANCH  26  27
ENDBRANCH   5  26
TORSDOF 9
ENDMDL
MODEL 3
REMARK VINA RESULT:      -6.1      2.236      6.615
REMARK  Name = 
REMARK  10 active torsions:
REMARK  status: ('A' for Active; 'I' for Inactive)
REMARK    1  A    between atoms: C_1  and  C_2
REMARK    2  A    between atoms: C_6  and  O_8
REMARK    3  A    between atoms: C_9  and  O_11
REMARK    4  A    between atoms: C_12  and  N_14
REMARK    5  A    between atoms: N_14  and  C_15
REMARK    6  A    between atoms: C_18  and  C_19
REMARK    7  A    between atoms: C_19  and  O_20
REMARK    8  A    between atoms: C_21  and  O_23
REMARK    9  A    between atoms: C_24  and  O_26
REMARK   10  A    between atoms: C_27  and  O_29
REMARK                            x       y       z     vdW  Elec       q    Type
REMARK                         _______ _______ _______ _____ _____    ______ ____
ROOT
ATOM      1  C   UNL     1       6.584  -2.781  23.843  0.00  0.00    +0.109 C 
ATOM      2  C   UNL     1       5.642  -3.724  23.015  0.00  0.00    +0.166 C 
ATOM      3  C   UNL     1       5.901  -5.230  23.216  0.00  0.00    +0.177 C 
ATOM      4  C   UNL     1       5.830  -5.613  24.712  0.00  0.00    +0.173 C 
ATOM      5  C   UNL     1       6.495  -4.609  25.627  0.00  0.00    -0.016 C 
ATOM      6  C   UNL     1       6.831  -3.368  25.218  0.00  0.00    -0.002 C 
ENDROOT
BRANCH   1   7
ATOM      7  N   UNL     1       7.856  -2.482  23.128  0.00  0.00    -0.300 NA
ATOM      8  H   UNL     1       8.610  -2.836  23.720  0.00  0.00    +0.123 HD
BRANCH   7  11
ATOM      9  C   UNL     1       9.293  -0.824  25.137  0.00  0.00    +0.039 C 
ATOM     10  C   UNL     1       8.393  -0.195  24.072  0.00  0.00    +0.135 C 
ATOM     11  C   UNL     1       8.108  -1.044  22.790  0.00  0.00    +0.114 C 
ATOM     12  C   UNL     1       9.122  -0.773  21.616  0.00  0.00    +0.164 C 
ATOM     13  C   UNL     1       9.626   0.680  21.569  0.00  0.00    +0.170 C 
ATOM     14  C   UNL     1      10.030   1.153  22.959  0.00  0.00    +0.194 C 
ATOM     15  O   UNL     1       8.866   1.129  23.789  0.00  0.00    -0.373 OA
BRANCH  12  16
ATOM     16  O   UNL     1      10.265  -1.642  21.652  0.00  0.00    -0.388 OA
ATOM     17  H   UNL     1      10.691  -1.626  20.779  0.00  0.00    +0.210 HD
ENDBRANCH  12  16
BRANCH  13  18
ATOM     18  O   UNL     1       8.601   1.541  21.054  0.00  0.00    -0.387 OA
ATOM     19  H   UNL     1       8.432   2.224  21.731  0.00  0.00    +0.210 HD
ENDBRANCH  13  18
ENDBRANCH   7  11
ENDBRANCH   1   7
BRANCH   2  20
ATOM     20  O   UNL     1       5.724  -3.436  21.611  0.00  0.00    -0.387 OA
ATOM     21  H   UNL     1       6.671  -3.242  21.464  0.00  0.00    +0.210 HD
ENDBRANCH   2  20
BRANCH   3  22
ATOM     22  O   UNL     1       7.172  -5.604  22.661  0.00  0.00    -0.386 OA
ATOM     23  H   UNL     1       7.230  -5.183  21.779  0.00  0.00    +0.210 HD
ENDBRANCH   3  22
BRANCH   4  24
ATOM     24  O   UNL     1       4.492  -5.792  25.172  0.00  0.00    -0.385 OA
ATOM     25  H   UNL     1       3.876  -5.308  24.596  0.00  0.00    +0.210 HD
ENDBRANCH   4  24
BRANCH   5  26
ATOM     26  C   UNL     1       6.742  -5.132  27.025  0.00  0.00    +0.189 C 
BRANCH  26  27
ATOM     27  O   UNL     1       7.866  -5.987  27.085  0.00  0.00    -0.391 OA
ATOM     28  H   UNL     1       7.699  -6.619  27.804  0.00  0.00    +0.210 HD
ENDBRANCH  26  27
ENDBRANCH   5  26
TORSDOF 9
ENDMDL
MODEL 4
REMARK VINA RESULT:      -6.1      1.847      2.203
REMARK  Name = 
REMARK  10 active torsions:
REMARK  status: ('A' for Active; 'I' for Inactive)
REMARK    1  A    between atoms: C_1  and  C_2
REMARK    2  A    between atoms: C_6  and  O_8
REMARK    3  A    between atoms: C_9  and  O_11
REMARK    4  A    between atoms: C_12  and  N_14
REMARK    5  A    between atoms: N_14  and  C_15
REMARK    6  A    between atoms: C_18  and  C_19
REMARK    7  A    between atoms: C_19  and  O_20
REMARK    8  A    between atoms: C_21  and  O_23
REMARK    9  A    between atoms: C_24  and  O_26
REMARK   10  A    between atoms: C_27  and  O_29
REMARK                            x       y       z     vdW  Elec       q    Type
REMARK                         _______ _______ _______ _____ _____    ______ ____
ROOT
ATOM      1  C   UNL     1       8.333  -0.699  23.802  0.00  0.00    +0.109 C 
ATOM      2  C   UNL     1       9.806  -0.715  23.259  0.00  0.00    +0.166 C 
ATOM      3  C   UNL     1       9.961  -0.228  21.805  0.00  0.00    +0.177 C 
ATOM      4  C   UNL     1       9.359   1.184  21.624  0.00  0.00    +0.173 C 
ATOM      5  C   UNL     1       8.043   1.380  22.344  0.00  0.00    -0.016 C 
ATOM      6  C   UNL     1       7.604   0.529  23.294  0.00  0.00    -0.002 C 
ENDROOT
BRANCH   1   7
ATOM      7  N   UNL     1       7.599  -1.955  23.485  0.00  0.00    -0.300 NA
ATOM      8  H   UNL     1       6.771  -1.679  22.953  0.00  0.00    +0.123 HD
BRANCH   7  11
ATOM      9  C   UNL     1       5.227  -3.719  23.151  0.00  0.00    +0.039 C 
ATOM     10  C   UNL     1       5.707  -3.270  24.532  0.00  0.00    +0.135 C 
ATOM     11  C   UNL     1       7.194  -2.803  24.652  0.00  0.00    +0.114 C 
ATOM     12  C   UNL     1       8.187  -3.958  25.050  0.00  0.00    +0.164 C 
ATOM     13  C   UNL     1       7.557  -5.010  25.980  0.00  0.00    +0.170 C 
ATOM     14  C   UNL     1       6.182  -5.421  25.471  0.00  0.00    +0.194 C 
ATOM     15  O   UNL     1       5.339  -4.266  25.496  0.00  0.00    -0.373 OA
BRANCH  12  16
ATOM     16  O   UNL     1       8.738  -4.640  23.913  0.00  0.00    -0.388 OA
ATOM     17  H   UNL     1       8.878  -5.571  24.150  0.00  0.00    +0.210 HD
ENDBRANCH  12  16
BRANCH  13  18
ATOM     18  O   UNL     1       7.434  -4.484  27.309  0.00  0.00    -0.387 OA
ATOM     19  H   UNL     1       6.483  -4.328  27.469  0.00  0.00    +0.210 HD
ENDBRANCH  13  18
ENDBRANCH   7  11
ENDBRANCH   1   7
BRANCH   2  20
ATOM     20  O   UNL     1      10.381  -2.027  23.359  0.00  0.00    -0.387 OA
ATOM     21  H   UNL     1      10.331  -2.235  24.313  0.00  0.00    +0.210 HD
ENDBRANCH   2  20
BRANCH   3  22
ATOM     22  O   UNL     1       9.352  -1.155  20.892  0.00  0.00    -0.386 OA
ATOM     23  H   UNL     1       9.362  -2.030  21.331  0.00  0.00    +0.210 HD
ENDBRANCH   3  22
BRANCH   4  24
ATOM     24  O   UNL     1      10.241   2.219  22.054  0.00  0.00    -0.385 OA
ATOM     25  H   UNL     1      10.702   2.601  21.288  0.00  0.00    +0.210 HD
ENDBRANCH   4  24
BRANCH   5  26
ATOM     26  C   UNL     1       7.282   2.608  21.896  0.00  0.00    +0.189 C 
BRANCH  26  27
ATOM     27  O   UNL     1       8.018   3.797  22.096  0.00  0.00    -0.391 OA
ATOM     28  H   UNL     1       8.958   3.554  22.059  0.00  0.00    +0.210 HD
ENDBRANCH  26  27
ENDBRANCH   5  26
TORSDOF 9
ENDMDL
MODEL 5
REMARK VINA RESULT:      -6.0      1.978      2.372
REMARK  Name = 
REMARK  10 active torsions:
REMARK  status: ('A' for Active; 'I' for Inactive)
REMARK    1  A    between atoms: C_1  and  C_2
REMARK    2  A    between atoms: C_6  and  O_8
REMARK    3  A    between atoms: C_9  and  O_11
REMARK    4  A    between atoms: C_12  and  N_14
REMARK    5  A    between atoms: N_14  and  C_15
REMARK    6  A    between atoms: C_18  and  C_19
REMARK    7  A    between atoms: C_19  and  O_20
REMARK    8  A    between atoms: C_21  and  O_23
REMARK    9  A    between atoms: C_24  and  O_26
REMARK   10  A    between atoms: C_27  and  O_29
REMARK                            x       y       z     vdW  Elec       q    Type
REMARK                         _______ _______ _______ _____ _____    ______ ____
ROOT
ATOM      1  C   UNL     1       8.863  -0.905  23.507  0.00  0.00    +0.109 C 
ATOM      2  C   UNL     1      10.043  -0.495  22.557  0.00  0.00    +0.166 C 
ATOM      3  C   UNL     1       9.925   0.920  21.957  0.00  0.00    +0.177 C 
ATOM      4  C   UNL     1       9.761   1.984  23.066  0.00  0.00    +0.173 C 
ATOM      5  C   UNL     1       8.829   1.561  24.180  0.00  0.00    -0.016 C 
ATOM      6  C   UNL     1       8.436   0.282  24.348  0.00  0.00    -0.002 C 
ENDROOT
BRANCH   1   7
ATOM      7  N   UNL     1       7.720  -1.503  22.765  0.00  0.00    -0.300 NA
ATOM      8  H   UNL     1       6.872  -1.088  23.157  0.00  0.00    +0.123 HD
BRANCH   7  11
ATOM      9  C   UNL     1       6.600  -2.759  25.218  0.00  0.00    +0.039 C 
ATOM     10  C   UNL     1       7.504  -3.535  24.257  0.00  0.00    +0.135 C 
ATOM     11  C   UNL     1       7.615  -2.997  22.794  0.00  0.00    +0.114 C 
ATOM     12  C   UNL     1       6.573  -3.641  21.805  0.00  0.00    +0.164 C 
ATOM     13  C   UNL     1       6.237  -5.105  22.140  0.00  0.00    +0.170 C 
ATOM     14  C   UNL     1       5.970  -5.265  23.631  0.00  0.00    +0.194 C 
ATOM     15  O   UNL     1       7.170  -4.929  24.333  0.00  0.00    -0.373 OA
BRANCH  12  16
ATOM     16  O   UNL     1       5.342  -2.904  21.732  0.00  0.00    -0.388 OA
ATOM     17  H   UNL     1       4.632  -3.517  21.478  0.00  0.00    +0.210 HD
ENDBRANCH  12  16
BRANCH  13  18
ATOM     18  O   UNL     1       7.322  -5.961  21.757  0.00  0.00    -0.387 OA
ATOM     19  H   UNL     1       7.091  -6.345  20.889  0.00  0.00    +0.210 HD
ENDBRANCH  13  18
ENDBRANCH   7  11
ENDBRANCH   1   7
BRANCH   2  20
ATOM     20  O   UNL     1      10.190  -1.432  21.480  0.00  0.00    -0.387 OA
ATOM     21  H   UNL     1      11.104  -1.764  21.577  0.00  0.00    +0.210 HD
ENDBRANCH   2  20
BRANCH   3  22
ATOM     22  O   UNL     1       8.829   0.987  21.031  0.00  0.00    -0.386 OA
ATOM     23  H   UNL     1       8.137   0.382  21.369  0.00  0.00    +0.210 HD
ENDBRANCH   3  22
BRANCH   4  24
ATOM     24  O   UNL     1      11.003   2.352  23.664  0.00  0.00    -0.385 OA
ATOM     25  H   UNL     1      11.400   1.582  24.103  0.00  0.00    +0.210 HD
ENDBRANCH   4  24
BRANCH   5  26
ATOM     26  C   UNL     1       8.389   2.702  25.070  0.00  0.00    +0.189 C 
BRANCH  26  27
ATOM     27  O   UNL     1       8.856   3.953  24.606  0.00  0.00    -0.391 OA
ATOM     28  H   UNL     1       8.804   4.567  25.357  0.00  0.00    +0.210 HD
ENDBRANCH  26  27
ENDBRANCH   5  26
TORSDOF 9
ENDMDL
MODEL 6
REMARK VINA RESULT:      -6.0      1.712      2.446
REMARK  Name = 
REMARK  10 active torsions:
REMARK  status: ('A' for Active; 'I' for Inactive)
REMARK    1  A    between atoms: C_1  and  C_2
REMARK    2  A    between atoms: C_6  and  O_8
REMARK    3  A    between atoms: C_9  and  O_11
REMARK    4  A    between atoms: C_12  and  N_14
REMARK    5  A    between atoms: N_14  and  C_15
REMARK    6  A    between atoms: C_18  and  C_19
REMARK    7  A    between atoms: C_19  and  O_20
REMARK    8  A    between atoms: C_21  and  O_23
REMARK    9  A    between atoms: C_24  and  O_26
REMARK   10  A    between atoms: C_27  and  O_29
REMARK                            x       y       z     vdW  Elec       q    Type
REMARK                         _______ _______ _______ _____ _____    ______ ____
ROOT
ATOM      1  C   UNL     1      10.074  -1.589  24.081  0.00  0.00    +0.109 C 
ATOM      2  C   UNL     1      10.011  -0.811  22.719  0.00  0.00    +0.166 C 
ATOM      3  C   UNL     1       8.635  -0.200  22.389  0.00  0.00    +0.177 C 
ATOM      4  C   UNL     1       8.144   0.718  23.532  0.00  0.00    +0.173 C 
ATOM      5  C   UNL     1       8.406   0.161  24.913  0.00  0.00    -0.016 C 
ATOM      6  C   UNL     1       9.252  -0.867  25.131  0.00  0.00    -0.002 C 
ENDROOT
BRANCH   1   7
ATOM      7  N   UNL     1       9.668  -3.014  23.938  0.00  0.00    -0.300 NA
ATOM      8  H   UNL     1       9.344  -3.127  22.975  0.00  0.00    +0.123 HD
BRANCH   7  11
ATOM      9  C   UNL     1       7.422  -4.604  22.809  0.00  0.00    +0.039 C 
ATOM     10  C   UNL     1       7.293  -3.865  24.143  0.00  0.00    +0.135 C 
ATOM     11  C   UNL     1       8.620  -3.507  24.888  0.00  0.00    +0.114 C 
ATOM     12  C   UNL     1       9.077  -4.603  25.922  0.00  0.00    +0.164 C 
ATOM     13  C   UNL     1       7.902  -5.334  26.596  0.00  0.00    +0.170 C 
ATOM     14  C   UNL     1       6.862  -5.744  25.563  0.00  0.00    +0.194 C 
ATOM     15  O   UNL     1       6.341  -4.555  24.964  0.00  0.00    -0.373 OA
BRANCH  12  16
ATOM     16  O   UNL     1       9.945  -5.590  25.343  0.00  0.00    -0.388 OA
ATOM     17  H   UNL     1      10.504  -5.156  24.677  0.00  0.00    +0.210 HD
ENDBRANCH  12  16
BRANCH  13  18
ATOM     18  O   UNL     1       7.289  -4.484  27.576  0.00  0.00    -0.387 OA
ATOM     19  H   UNL     1       8.010  -4.024  28.049  0.00  0.00    +0.210 HD
ENDBRANCH  13  18
ENDBRANCH   7  11
ENDBRANCH   1   7
BRANCH   2  20
ATOM     20  O   UNL     1      10.406  -1.651  21.624  0.00  0.00    -0.387 OA
ATOM     21  H   UNL     1      10.997  -1.083  21.091  0.00  0.00    +0.210 HD
ENDBRANCH   2  20
BRANCH   3  22
ATOM     22  O   UNL     1       7.672  -1.234  22.127  0.00  0.00    -0.386 OA
ATOM     23  H   UNL     1       7.946  -1.670  21.295  0.00  0.00    +0.210 HD
ENDBRANCH   3  22
BRANCH   4  24
ATOM     24  O   UNL     1       8.723   2.021  23.479  0.00  0.00    -0.385 OA
ATOM     25  H   UNL     1       8.025   2.689  23.372  0.00  0.00    +0.210 HD
ENDBRANCH   4  24
BRANCH   5  26
ATOM     26  C   UNL     1       7.631   0.860  26.008  0.00  0.00    +0.189 C 
BRANCH  26  27
ATOM     27  O   UNL     1       8.017   2.212  26.156  0.00  0.00    -0.391 OA
ATOM     28  H   UNL     1       8.895   2.209  26.574  0.00  0.00    +0.210 HD
ENDBRANCH  26  27
ENDBRANCH   5  26
TORSDOF 9
ENDMDL
MODEL 7
REMARK VINA RESULT:      -5.9      1.709      6.539
REMARK  Name = 
REMARK  10 active torsions:
REMARK  status: ('A' for Active; 'I' for Inactive)
REMARK    1  A    between atoms: C_1  and  C_2
REMARK    2  A    between atoms: C_6  and  O_8
REMARK    3  A    between atoms: C_9  and  O_11
REMARK    4  A    between atoms: C_12  and  N_14
REMARK    5  A    between atoms: N_14  and  C_15
REMARK    6  A    between atoms: C_18  and  C_19
REMARK    7  A    between atoms: C_19  and  O_20
REMARK    8  A    between atoms: C_21  and  O_23
REMARK    9  A    between atoms: C_24  and  O_26
REMARK   10  A    between atoms: C_27  and  O_29
REMARK                            x       y       z     vdW  Elec       q    Type
REMARK                         _______ _______ _______ _____ _____    ______ ____
ROOT
ATOM      1  C   UNL     1       7.672  -1.732  24.405  0.00  0.00    +0.109 C 
ATOM      2  C   UNL     1       6.478  -2.574  23.830  0.00  0.00    +0.166 C 
ATOM      3  C   UNL     1       6.881  -3.937  23.232  0.00  0.00    +0.177 C 
ATOM      4  C   UNL     1       7.667  -4.786  24.258  0.00  0.00    +0.173 C 
ATOM      5  C   UNL     1       8.674  -3.991  25.059  0.00  0.00    -0.016 C 
ATOM      6  C   UNL     1       8.665  -2.643  25.099  0.00  0.00    -0.002 C 
ENDROOT
BRANCH   1   7
ATOM      7  N   UNL     1       8.322  -0.889  23.364  0.00  0.00    -0.300 NA
ATOM      8  H   UNL     1       9.307  -1.161  23.346  0.00  0.00    +0.123 HD
BRANCH   7  11
ATOM      9  C   UNL     1      10.612   0.530  24.627  0.00  0.00    +0.039 C 
ATOM     10  C   UNL     1       9.200   1.120  24.629  0.00  0.00    +0.135 C 
ATOM     11  C   UNL     1       8.207   0.595  23.542  0.00  0.00    +0.114 C 
ATOM     12  C   UNL     1       8.205   1.455  22.223  0.00  0.00    +0.164 C 
ATOM     13  C   UNL     1       8.469   2.951  22.470  0.00  0.00    +0.170 C 
ATOM     14  C   UNL     1       9.645   3.138  23.419  0.00  0.00    +0.194 C 
ATOM     15  O   UNL     1       9.297   2.551  24.675  0.00  0.00    -0.373 OA
BRANCH  12  16
ATOM     16  O   UNL     1       9.151   0.989  21.249  0.00  0.00    -0.388 OA
ATOM     17  H   UNL     1       9.407   0.080  21.479  0.00  0.00    +0.210 HD
ENDBRANCH  12  16
BRANCH  13  18
ATOM     18  O   UNL     1       7.303   3.572  23.030  0.00  0.00    -0.387 OA
ATOM     19  H   UNL     1       7.500   4.525  23.119  0.00  0.00    +0.210 HD
ENDBRANCH  13  18
ENDBRANCH   7  11
ENDBRANCH   1   7
BRANCH   2  20
ATOM     20  O   UNL     1       5.758  -1.838  22.831  0.00  0.00    -0.387 OA
ATOM     21  H   UNL     1       4.875  -2.258  22.817  0.00  0.00    +0.210 HD
ENDBRANCH   2  20
BRANCH   3  22
ATOM     22  O   UNL     1       7.653  -3.755  22.034  0.00  0.00    -0.386 OA
ATOM     23  H   UNL     1       8.587  -3.923  22.273  0.00  0.00    +0.210 HD
ENDBRANCH   3  22
BRANCH   4  24
ATOM     24  O   UNL     1       6.815  -5.456  25.185  0.00  0.00    -0.385 OA
ATOM     25  H   UNL     1       7.180  -5.382  26.083  0.00  0.00    +0.210 HD
ENDBRANCH   4  24
BRANCH   5  26
ATOM     26  C   UNL     1       9.677  -4.849  25.797  0.00  0.00    +0.189 C 
BRANCH  26  27
ATOM     27  O   UNL     1       9.837  -6.119  25.198  0.00  0.00    -0.391 OA
ATOM     28  H   UNL     1      10.512  -6.590  25.715  0.00  0.00    +0.210 HD
ENDBRANCH  26  27
ENDBRANCH   5  26
TORSDOF 9
ENDMDL
MODEL 8
REMARK VINA RESULT:      -5.9      2.664      6.671
REMARK  Name = 
REMARK  10 active torsions:
REMARK  status: ('A' for Active; 'I' for Inactive)
REMARK    1  A    between atoms: C_1  and  C_2
REMARK    2  A    between atoms: C_6  and  O_8
REMARK    3  A    between atoms: C_9  and  O_11
REMARK    4  A    between atoms: C_12  and  N_14
REMARK    5  A    between atoms: N_14  and  C_15
REMARK    6  A    between atoms: C_18  and  C_19
REMARK    7  A    between atoms: C_19  and  O_20
REMARK    8  A    between atoms: C_21  and  O_23
REMARK    9  A    between atoms: C_24  and  O_26
REMARK   10  A    between atoms: C_27  and  O_29
REMARK                            x       y       z     vdW  Elec       q    Type
REMARK                         _______ _______ _______ _____ _____    ______ ____
ROOT
ATOM      1  C   UNL     1       6.948  -3.141  23.112  0.00  0.00    +0.109 C 
ATOM      2  C   UNL     1       7.627  -4.516  23.444  0.00  0.00    +0.166 C 
ATOM      3  C   UNL     1       6.948  -5.312  24.576  0.00  0.00    +0.177 C 
ATOM      4  C   UNL     1       5.447  -5.535  24.278  0.00  0.00    +0.173 C 
ATOM      5  C   UNL     1       4.757  -4.321  23.696  0.00  0.00    -0.016 C 
ATOM      6  C   UNL     1       5.440  -3.270  23.198  0.00  0.00    -0.002 C 
ENDROOT
BRANCH   1   7
ATOM      7  N   UNL     1       7.463  -2.035  23.965  0.00  0.00    -0.300 NA
ATOM      8  H   UNL     1       6.712  -1.800  24.618  0.00  0.00    +0.123 HD
BRANCH   7  11
ATOM      9  C   UNL     1       9.103  -0.083  25.497  0.00  0.00    +0.039 C 
ATOM     10  C   UNL     1       8.311   0.333  24.256  0.00  0.00    +0.135 C 
ATOM     11  C   UNL     1       7.919  -0.799  23.251  0.00  0.00    +0.114 C 
ATOM     12  C   UNL     1       8.972  -1.010  22.099  0.00  0.00    +0.164 C 
ATOM     13  C   UNL     1       9.678   0.289  21.672  0.00  0.00    +0.170 C 
ATOM     14  C   UNL     1      10.132   1.078  22.892  0.00  0.00    +0.194 C 
ATOM     15  O   UNL     1       8.970   1.447  23.638  0.00  0.00    -0.373 OA
BRANCH  12  16
ATOM     16  O   UNL     1       9.979  -1.978  22.432  0.00  0.00    -0.388 OA
ATOM     17  H   UNL     1      10.778  -1.504  22.717  0.00  0.00    +0.210 HD
ENDBRANCH  12  16
BRANCH  13  18
ATOM     18  O   UNL     1       8.790   1.098  20.887  0.00  0.00    -0.387 OA
ATOM     19  H   UNL     1       8.554   1.875  21.429  0.00  0.00    +0.210 HD
ENDBRANCH  13  18
ENDBRANCH   7  11
ENDBRANCH   1   7
BRANCH   2  20
ATOM     20  O   UNL     1       9.011  -4.343  23.783  0.00  0.00    -0.387 OA
ATOM     21  H   UNL     1       9.367  -3.799  23.052  0.00  0.00    +0.210 HD
ENDBRANCH   2  20
BRANCH   3  22
ATOM     22  O   UNL     1       7.115  -4.644  25.837  0.00  0.00    -0.386 OA
ATOM     23  H   UNL     1       8.071  -4.672  26.045  0.00  0.00    +0.210 HD
ENDBRANCH   3  22
BRANCH   4  24
ATOM     24  O   UNL     1       5.219  -6.626  23.387  0.00  0.00    -0.385 OA
ATOM     25  H   UNL     1       5.499  -6.383  22.489  0.00  0.00    +0.210 HD
ENDBRANCH   4  24
BRANCH   5  26
ATOM     26  C   UNL     1       3.248  -4.405  23.731  0.00  0.00    +0.189 C 
BRANCH  26  27
ATOM     27  O   UNL     1       2.745  -5.375  22.834  0.00  0.00    -0.391 OA
ATOM     28  H   UNL     1       3.475  -5.610  22.238  0.00  0.00    +0.210 HD
ENDBRANCH  26  27
ENDBRANCH   5  26
TORSDOF 9
ENDMDL
MODEL 9
REMARK VINA RESULT:      -5.8      2.297      6.603
REMARK  Name = 
REMARK  10 active torsions:
REMARK  status: ('A' for Active; 'I' for Inactive)
REMARK    1  A    between atoms: C_1  and  C_2
REMARK    2  A    between atoms: C_6  and  O_8
REMARK    3  A    between atoms: C_9  and  O_11
REMARK    4  A    between atoms: C_12  and  N_14
REMARK    5  A    between atoms: N_14  and  C_15
REMARK    6  A    between atoms: C_18  and  C_19
REMARK    7  A    between atoms: C_19  and  O_20
REMARK    8  A    between atoms: C_21  and  O_23
REMARK    9  A    between atoms: C_24  and  O_26
REMARK   10  A    between atoms: C_27  and  O_29
REMARK                            x       y       z     vdW  Elec       q    Type
REMARK                         _______ _______ _______ _____ _____    ______ ____
ROOT
ATOM      1  C   UNL     1       6.164  -2.459  23.824  0.00  0.00    +0.109 C 
ATOM      2  C   UNL     1       5.524  -3.689  23.087  0.00  0.00    +0.166 C 
ATOM      3  C   UNL     1       6.333  -4.997  23.197  0.00  0.00    +0.177 C 
ATOM      4  C   UNL     1       6.604  -5.362  24.674  0.00  0.00    +0.173 C 
ATOM      5  C   UNL     1       6.976  -4.175  25.535  0.00  0.00    -0.016 C 
ATOM      6  C   UNL     1       6.785  -2.902  25.134  0.00  0.00    -0.002 C 
ENDROOT
BRANCH   1   7
ATOM      7  N   UNL     1       7.135  -1.728  22.965  0.00  0.00    -0.300 NA
ATOM      8  H   UNL     1       7.778  -2.430  22.593  0.00  0.00    +0.123 HD
BRANCH   7  11
ATOM      9  C   UNL     1       9.405  -0.542  21.450  0.00  0.00    +0.039 C 
ATOM     10  C   UNL     1       9.323  -0.455  22.976  0.00  0.00    +0.135 C 
ATOM     11  C   UNL     1       7.910  -0.628  23.624  0.00  0.00    +0.114 C 
ATOM     12  C   UNL     1       7.145   0.731  23.838  0.00  0.00    +0.164 C 
ATOM     13  C   UNL     1       8.079   1.914  24.155  0.00  0.00    +0.170 C 
ATOM     14  C   UNL     1       9.267   1.928  23.203  0.00  0.00    +0.194 C 
ATOM     15  O   UNL     1      10.013   0.726  23.409  0.00  0.00    -0.373 OA
BRANCH  12  16
ATOM     16  O   UNL     1       6.327   1.096  22.715  0.00  0.00    -0.388 OA
ATOM     17  H   UNL     1       6.901   1.203  21.939  0.00  0.00    +0.210 HD
ENDBRANCH  12  16
BRANCH  13  18
ATOM     18  O   UNL     1       8.552   1.820  25.505  0.00  0.00    -0.387 OA
ATOM     19  H   UNL     1       8.317   2.656  25.951  0.00  0.00    +0.210 HD
ENDBRANCH  13  18
ENDBRANCH   7  11
ENDBRANCH   1   7
BRANCH   2  20
ATOM     20  O   UNL     1       5.310  -3.407  21.697  0.00  0.00    -0.387 OA
ATOM     21  H   UNL     1       4.343  -3.501  21.582  0.00  0.00    +0.210 HD
ENDBRANCH   2  20
BRANCH   3  22
ATOM     22  O   UNL     1       7.568  -4.890  22.471  0.00  0.00    -0.386 OA
ATOM     23  H   UNL     1       7.535  -4.044  21.980  0.00  0.00    +0.210 HD
ENDBRANCH   3  22
BRANCH   4  24
ATOM     24  O   UNL     1       5.494  -6.009  25.294  0.00  0.00    -0.385 OA
ATOM     25  H   UNL     1       5.063  -5.401  25.918  0.00  0.00    +0.210 HD
ENDBRANCH   4  24
BRANCH   5  26
ATOM     26  C   UNL     1       7.578  -4.557  26.869  0.00  0.00    +0.189 C 
BRANCH  26  27
ATOM     27  O   UNL     1       8.007  -5.903  26.897  0.00  0.00    -0.391 OA
ATOM     28  H   UNL     1       7.233  -6.449  26.680  0.00  0.00    +0.210 HD
ENDBRANCH  26  27
ENDBRANCH   5  26
TORSDOF 9
ENDMDL
