MODEL 1
REMARK VINA RESULT:      -4.0      0.000      0.000
REMARK  Name = 
REMARK  8 active torsions:
REMARK  status: ('A' for Active; 'I' for Inactive)
REMARK    1  A    between atoms: C_1  and  N_2
REMARK    2  A    between atoms: N_2  and  CA_3
REMARK    3  A    between atoms: CA_3  and  CB_5
REMARK    4  A    between atoms: CA_3  and  C_9
REMARK    5  A    between atoms: CB_5  and  CG_6
REMARK    6  A    between atoms: CG_6  and  CD1_7
REMARK    7  A    between atoms: CG_6  and  CD2_8
REMARK    8  A    between atoms: C_9  and  O_10
REMARK                            x       y       z     vdW  Elec       q    Type
REMARK                         _______ _______ _______ _____ _____    ______ ____
ROOT
ATOM      1  CA  LEU A   1       8.490  -4.942  24.785  0.00  0.00    +0.163 C 
ENDROOT
BRANCH   1   3
ATOM      2  C   ACE A   0       9.576  -2.853  24.052  0.00  0.00    +0.101 C 
ATOM      3  N   LEU A   1       9.760  -4.218  24.534  0.00  0.00    -0.307 NA
ATOM      4  H   LEU A   1      10.373  -4.210  25.342  0.00  0.00    +0.122 HD
ENDBRANCH   1   3
BRANCH   1   5
ATOM      5  C   LEU A   1       8.312  -5.286  26.281  0.00  0.00    +0.322 C 
ATOM      6  OXT LEU A   1       7.379  -5.913  26.758  0.00  0.00    -0.249 OA
BRANCH   5   7
ATOM      7  O   LEU A   1       9.334  -4.832  27.053  0.00  0.00    -0.480 OA
ATOM      8  H   LEU A   1       9.738  -5.539  27.586  0.00  0.00    +0.295 HD
ENDBRANCH   5   7
ENDBRANCH   1   5
BRANCH   1   9
ATOM      9  CB  LEU A   1       7.242  -4.214  24.244  0.00  0.00    +0.033 C 
BRANCH   9  10
ATOM     10  CG  LEU A   1       6.445  -4.976  23.163  0.00  0.00    -0.015 C 
ATOM     11  CD2 LEU A   1       5.390  -5.862  23.831  0.00  0.00    +0.007 C 
ATOM     12  CD1 LEU A   1       7.346  -5.833  22.273  0.00  0.00    +0.007 C 
ENDBRANCH   9  10
ENDBRANCH   1   9
TORSDOF 5
ENDMDL
MODEL 2
REMARK VINA RESULT:      -4.0      1.231      1.446
REMARK  Name = 
REMARK  8 active torsions:
REMARK  status: ('A' for Active; 'I' for Inactive)
REMARK    1  A    between atoms: C_1  and  N_2
REMARK    2  A    between atoms: N_2  and  CA_3
REMARK    3  A    between atoms: CA_3  and  CB_5
REMARK    4  A    between atoms: CA_3  and  C_9
REMARK    5  A    between atoms: CB_5  and  CG_6
REMARK    6  A    between atoms: CG_6  and  CD1_7
REMARK    7  A    between atoms: CG_6  and  CD2_8
REMARK    8  A    between atoms: C_9  and  O_10
REMARK                            x       y       z     vdW  Elec       q    Type
REMARK                         _______ _______ _______ _____ _____    ______ ____
ROOT
ATOM      1  CA  LEU A   1       8.547  -4.527  24.281  0.00  0.00    +0.163 C 
ENDROOT
BRANCH   1   3
ATOM      2  C   ACE A   0       9.833  -2.477  23.809  0.00  0.00    +0.101 C 
ATOM      3  N   LEU A   1       8.710  -3.072  24.524  0.00  0.00    -0.307 NA
ATOM      4  H   LEU A   1       7.866  -2.546  24.325  0.00  0.00    +0.122 HD
ENDBRANCH   1   3
BRANCH   1   5
ATOM      5  C   LEU A   1       8.831  -5.356  25.554  0.00  0.00    +0.322 C 
ATOM      6  OXT LEU A   1       7.989  -5.753  26.344  0.00  0.00    -0.249 OA
BRANCH   5   7
ATOM      7  O   LEU A   1      10.150  -5.638  25.718  0.00  0.00    -0.480 OA
ATOM      8  H   LEU A   1      10.680  -5.401  24.936  0.00  0.00    +0.295 HD
ENDBRANCH   5   7
ENDBRANCH   1   5
BRANCH   1   9
ATOM      9  CB  LEU A   1       7.178  -4.908  23.679  0.00  0.00    +0.033 C 
BRANCH   9  10
ATOM     10  CG  LEU A   1       7.014  -4.625  22.171  0.00  0.00    -0.015 C 
ATOM     11  CD2 LEU A   1       6.040  -3.460  21.970  0.00  0.00    +0.007 C 
ATOM     12  CD1 LEU A   1       6.518  -5.848  21.400  0.00  0.00    +0.007 C 
ENDBRANCH   9  10
ENDBRANCH   1   9
TORSDOF 5
ENDMDL
MODEL 3
REMARK VINA RESULT:      -3.9      1.924      2.865
REMARK  Name = 
REMARK  8 active torsions:
REMARK  status: ('A' for Active; 'I' for Inactive)
REMARK    1  A    between atoms: C_1  and  N_2
REMARK    2  A    between atoms: N_2  and  CA_3
REMARK    3  A    between atoms: CA_3  and  CB_5
REMARK    4  A    between atoms: CA_3  and  C_9
REMARK    5  A    between atoms: CB_5  and  CG_6
REMARK    6  A    between atoms: CG_6  and  CD1_7
REMARK    7  A    between atoms: CG_6  and  CD2_8
REMARK    8  A    between atoms: C_9  and  O_10
REMARK                            x       y       z     vdW  Elec       q    Type
REMARK                         _______ _______ _______ _____ _____    ______ ____
ROOT
ATOM      1  CA  LEU A   1       8.250  -4.516  26.163  0.00  0.00    +0.163 C 
ENDROOT
BRANCH   1   3
ATOM      2  C   ACE A   0       6.773  -5.591  27.820  0.00  0.00    +0.101 C 
ATOM      3  N   LEU A   1       8.054  -5.631  27.122  0.00  0.00    -0.307 NA
ATOM      4  H   LEU A   1       8.176  -6.542  26.693  0.00  0.00    +0.122 HD
ENDBRANCH   1   3
BRANCH   1   5
ATOM      5  C   LEU A   1       9.451  -4.770  25.225  0.00  0.00    +0.322 C 
ATOM      6  OXT LEU A   1       9.960  -3.942  24.486  0.00  0.00    -0.249 OA
BRANCH   5   7
ATOM      7  O   LEU A   1       9.928  -6.039  25.309  0.00  0.00    -0.480 OA
ATOM      8  H   LEU A   1      10.901  -6.070  25.315  0.00  0.00    +0.295 HD
ENDBRANCH   5   7
ENDBRANCH   1   5
BRANCH   1   9
ATOM      9  CB  LEU A   1       6.987  -4.168  25.347  0.00  0.00    +0.033 C 
BRANCH   9  10
ATOM     10  CG  LEU A   1       6.680  -5.112  24.165  0.00  0.00    -0.015 C 
ATOM     11  CD2 LEU A   1       6.648  -4.309  22.861  0.00  0.00    +0.007 C 
ATOM     12  CD1 LEU A   1       5.356  -5.856  24.343  0.00  0.00    +0.007 C 
ENDBRANCH   9  10
ENDBRANCH   1   9
TORSDOF 5
ENDMDL
MODEL 4
REMARK VINA RESULT:      -3.9      4.569      6.046
REMARK  Name = 
REMARK  8 active torsions:
REMARK  status: ('A' for Active; 'I' for Inactive)
REMARK    1  A    between atoms: C_1  and  N_2
REMARK    2  A    between atoms: N_2  and  CA_3
REMARK    3  A    between atoms: CA_3  and  CB_5
REMARK    4  A    between atoms: CA_3  and  C_9
REMARK    5  A    between atoms: CB_5  and  CG_6
REMARK    6  A    between atoms: CG_6  and  CD1_7
REMARK    7  A    between atoms: CG_6  and  CD2_8
REMARK    8  A    between atoms: C_9  and  O_10
REMARK                            x       y       z     vdW  Elec       q    Type
REMARK                         _______ _______ _______ _____ _____    ______ ____
ROOT
ATOM      1  CA  LEU A   1       9.809  -0.376  23.560  0.00  0.00    +0.163 C 
ENDROOT
BRANCH   1   3
ATOM      2  C   ACE A   0       8.417  -0.111  25.578  0.00  0.00    +0.101 C 
ATOM      3  N   LEU A   1       9.751  -0.359  25.043  0.00  0.00    -0.307 NA
ATOM      4  H   LEU A   1      10.130  -1.203  25.458  0.00  0.00    +0.122 HD
ENDBRANCH   1   3
BRANCH   1   5
ATOM      5  C   LEU A   1      10.163  -1.777  23.015  0.00  0.00    +0.322 C 
ATOM      6  OXT LEU A   1      10.224  -2.801  23.678  0.00  0.00    -0.249 OA
BRANCH   5   7
ATOM      7  O   LEU A   1      10.391  -1.782  21.676  0.00  0.00    -0.480 OA
ATOM      8  H   LEU A   1      11.296  -2.064  21.455  0.00  0.00    +0.295 HD
ENDBRANCH   5   7
ENDBRANCH   1   5
BRANCH   1   9
ATOM      9  CB  LEU A   1       8.532   0.164  22.882  0.00  0.00    +0.033 C 
BRANCH   9  10
ATOM     10  CG  LEU A   1       8.755   1.274  21.833  0.00  0.00    -0.015 C 
ATOM     11  CD2 LEU A   1      10.116   1.936  22.066  0.00  0.00    +0.007 C 
ATOM     12  CD1 LEU A   1       7.655   2.335  21.866  0.00  0.00    +0.007 C 
ENDBRANCH   9  10
ENDBRANCH   1   9
TORSDOF 5
ENDMDL
MODEL 5
REMARK VINA RESULT:      -3.7      5.611      6.786
REMARK  Name = 
REMARK  8 active torsions:
REMARK  status: ('A' for Active; 'I' for Inactive)
REMARK    1  A    between atoms: C_1  and  N_2
REMARK    2  A    between atoms: N_2  and  CA_3
REMARK    3  A    between atoms: CA_3  and  CB_5
REMARK    4  A    between atoms: CA_3  and  C_9
REMARK    5  A    between atoms: CB_5  and  CG_6
REMARK    6  A    between atoms: CG_6  and  CD1_7
REMARK    7  A    between atoms: CG_6  and  CD2_8
REMARK    8  A    between atoms: C_9  and  O_10
REMARK                            x       y       z     vdW  Elec       q    Type
REMARK                         _______ _______ _______ _____ _____    ______ ____
ROOT
ATOM      1  CA  LEU A   1       9.615   1.001  23.666  0.00  0.00    +0.163 C 
ENDROOT
BRANCH   1   3
ATOM      2  C   ACE A   0       7.925   0.823  25.453  0.00  0.00    +0.101 C 
ATOM      3  N   LEU A   1       9.296   1.179  25.104  0.00  0.00    -0.307 NA
ATOM      4  H   LEU A   1       9.939   0.683  25.712  0.00  0.00    +0.122 HD
ENDBRANCH   1   3
BRANCH   1   5
ATOM      5  C   LEU A   1       9.958   2.344  22.983  0.00  0.00    +0.322 C 
ATOM      6  OXT LEU A   1      10.079   3.418  23.552  0.00  0.00    -0.249 OA
BRANCH   5   7
ATOM      7  O   LEU A   1      10.142   2.224  21.643  0.00  0.00    -0.480 OA
ATOM      8  H   LEU A   1      11.007   1.836  21.420  0.00  0.00    +0.295 HD
ENDBRANCH   5   7
ENDBRANCH   1   5
BRANCH   1   9
ATOM      9  CB  LEU A   1      10.721  -0.042  23.399  0.00  0.00    +0.033 C 
BRANCH   9  10
ATOM     10  CG  LEU A   1      10.237  -1.393  22.830  0.00  0.00    -0.015 C 
ATOM     11  CD2 LEU A   1       9.139  -1.149  21.791  0.00  0.00    +0.007 C 
ATOM     12  CD1 LEU A   1       9.714  -2.329  23.920  0.00  0.00    +0.007 C 
ENDBRANCH   9  10
ENDBRANCH   1   9
TORSDOF 5
ENDMDL
MODEL 6
REMARK VINA RESULT:      -3.7      4.940      6.638
REMARK  Name = 
REMARK  8 active torsions:
REMARK  status: ('A' for Active; 'I' for Inactive)
REMARK    1  A    between atoms: C_1  and  N_2
REMARK    2  A    between atoms: N_2  and  CA_3
REMARK    3  A    between atoms: CA_3  and  CB_5
REMARK    4  A    between atoms: CA_3  and  C_9
REMARK    5  A    between atoms: CB_5  and  CG_6
REMARK    6  A    between atoms: CG_6  and  CD1_7
REMARK    7  A    between atoms: CG_6  and  CD2_8
REMARK    8  A    between atoms: C_9  and  O_10
REMARK                            x       y       z     vdW  Elec       q    Type
REMARK                         _______ _______ _______ _____ _____    ______ ____
ROOT
ATOM      1  CA  LEU A   1       8.739  -0.154  22.796  0.00  0.00    +0.163 C 
ENDROOT
BRANCH   1   3
ATOM      2  C   ACE A   0       6.645   0.293  24.019  0.00  0.00    +0.101 C 
ATOM      3  N   LEU A   1       7.312   0.246  22.723  0.00  0.00    -0.307 NA
ATOM      4  H   LEU A   1       7.178   1.128  22.241  0.00  0.00    +0.122 HD
ENDBRANCH   1   3
BRANCH   1   5
ATOM      5  C   LEU A   1       8.994  -1.505  22.092  0.00  0.00    +0.322 C 
ATOM      6  OXT LEU A   1       8.228  -2.457  22.086  0.00  0.00    -0.249 OA
BRANCH   5   7
ATOM      7  O   LEU A   1      10.181  -1.543  21.433  0.00  0.00    -0.480 OA
ATOM      8  H   LEU A   1      10.850  -2.070  21.905  0.00  0.00    +0.295 HD
ENDBRANCH   5   7
ENDBRANCH   1   5
BRANCH   1   9
ATOM      9  CB  LEU A   1       9.715   0.922  22.275  0.00  0.00    +0.033 C 
BRANCH   9  10
ATOM     10  CG  LEU A   1      10.454   1.731  23.362  0.00  0.00    -0.015 C 
ATOM     11  CD2 LEU A   1      10.840   0.805  24.519  0.00  0.00    +0.007 C 
ATOM     12  CD1 LEU A   1       9.615   2.894  23.893  0.00  0.00    +0.007 C 
ENDBRANCH   9  10
ENDBRANCH   1   9
TORSDOF 5
ENDMDL
MODEL 7
REMARK VINA RESULT:      -3.7      1.458      3.198
REMARK  Name = 
REMARK  8 active torsions:
REMARK  status: ('A' for Active; 'I' for Inactive)
REMARK    1  A    between atoms: C_1  and  N_2
REMARK    2  A    between atoms: N_2  and  CA_3
REMARK    3  A    between atoms: CA_3  and  CB_5
REMARK    4  A    between atoms: CA_3  and  C_9
REMARK    5  A    between atoms: CB_5  and  CG_6
REMARK    6  A    between atoms: CG_6  and  CD1_7
REMARK    7  A    between atoms: CG_6  and  CD2_8
REMARK    8  A    between atoms: C_9  and  O_10
REMARK                            x       y       z     vdW  Elec       q    Type
REMARK                         _______ _______ _______ _____ _____    ______ ____
ROOT
ATOM      1  CA  LEU A   1       8.050  -4.696  24.577  0.00  0.00    +0.163 C 
ENDROOT
BRANCH   1   3
ATOM      2  C   ACE A   0       7.184  -5.486  22.407  0.00  0.00    +0.101 C 
ATOM      3  N   LEU A   1       8.281  -5.525  23.368  0.00  0.00    -0.307 NA
ATOM      4  H   LEU A   1       9.150  -5.298  22.898  0.00  0.00    +0.122 HD
ENDBRANCH   1   3
BRANCH   1   5
ATOM      5  C   LEU A   1       9.147  -4.916  25.642  0.00  0.00    +0.322 C 
ATOM      6  OXT LEU A   1       9.160  -4.422  26.759  0.00  0.00    -0.249 OA
BRANCH   5   7
ATOM      7  O   LEU A   1      10.130  -5.755  25.223  0.00  0.00    -0.480 OA
ATOM      8  H   LEU A   1      10.358  -5.621  24.286  0.00  0.00    +0.295 HD
ENDBRANCH   5   7
ENDBRANCH   1   5
BRANCH   1   9
ATOM      9  CB  LEU A   1       7.878  -3.192  24.276  0.00  0.00    +0.033 C 
BRANCH   9  10
ATOM     10  CG  LEU A   1       9.092  -2.505  23.615  0.00  0.00    -0.015 C 
ATOM     11  CD2 LEU A   1       9.570  -1.347  24.497  0.00  0.00    +0.007 C 
ATOM     12  CD1 LEU A   1       8.774  -1.985  22.213  0.00  0.00    +0.007 C 
ENDBRANCH   9  10
ENDBRANCH   1   9
TORSDOF 5
ENDMDL
MODEL 8
REMARK VINA RESULT:      -3.6      4.822      6.005
REMARK  Name = 
REMARK  8 active torsions:
REMARK  status: ('A' for Active; 'I' for Inactive)
REMARK    1  A    between atoms: C_1  and  N_2
REMARK    2  A    between atoms: N_2  and  CA_3
REMARK    3  A    between atoms: CA_3  and  CB_5
REMARK    4  A    between atoms: CA_3  and  C_9
REMARK    5  A    between atoms: CB_5  and  CG_6
REMARK    6  A    between atoms: CG_6  and  CD1_7
REMARK    7  A    between atoms: CG_6  and  CD2_8
REMARK    8  A    between atoms: C_9  and  O_10
REMARK                            x       y       z     vdW  Elec       q    Type
REMARK                         _______ _______ _______ _____ _____    ______ ____
ROOT
ATOM      1  CA  LEU A   1       8.436  -0.139  22.299  0.00  0.00    +0.163 C 
ENDROOT
BRANCH   1   3
ATOM      2  C   ACE A   0       8.896   2.251  21.904  0.00  0.00    +0.101 C 
ATOM      3  N   LEU A   1       9.129   0.878  21.470  0.00  0.00    -0.307 NA
ATOM      4  H   LEU A   1      10.127   0.710  21.399  0.00  0.00    +0.122 HD
ENDBRANCH   1   3
BRANCH   1   5
ATOM      5  C   LEU A   1       9.013  -1.554  22.073  0.00  0.00    +0.322 C 
ATOM      6  OXT LEU A   1       8.447  -2.602  22.343  0.00  0.00    -0.249 OA
BRANCH   5   7
ATOM      7  O   LEU A   1      10.247  -1.538  21.504  0.00  0.00    -0.480 OA
ATOM      8  H   LEU A   1      10.644  -0.649  21.507  0.00  0.00    +0.295 HD
ENDBRANCH   5   7
ENDBRANCH   1   5
BRANCH   1   9
ATOM      9  CB  LEU A   1       8.405   0.201  23.804  0.00  0.00    +0.033 C 
BRANCH   9  10
ATOM     10  CG  LEU A   1       9.570  -0.374  24.638  0.00  0.00    -0.015 C 
ATOM     11  CD2 LEU A   1       9.084  -0.675  26.059  0.00  0.00    +0.007 C 
ATOM     12  CD1 LEU A   1      10.768   0.573  24.694  0.00  0.00    +0.007 C 
ENDBRANCH   9  10
ENDBRANCH   1   9
TORSDOF 5
ENDMDL
MODEL 9
REMARK VINA RESULT:      -3.6      1.727      2.713
REMARK  Name = 
REMARK  8 active torsions:
REMARK  status: ('A' for Active; 'I' for Inactive)
REMARK    1  A    between atoms: C_1  and  N_2
REMARK    2  A    between atoms: N_2  and  CA_3
REMARK    3  A    between atoms: CA_3  and  CB_5
REMARK    4  A    between atoms: CA_3  and  C_9
REMARK    5  A    between atoms: CB_5  and  CG_6
REMARK    6  A    between atoms: CG_6  and  CD1_7
REMARK    7  A    between atoms: CG_6  and  CD2_8
REMARK    8  A    between atoms: C_9  and  O_10
REMARK                            x       y       z     vdW  Elec       q    Type
REMARK                         _______ _______ _______ _____ _____    ______ ____
ROOT
ATOM      1  CA  LEU A   1       7.639  -4.828  24.606  0.00  0.00    +0.163 C 
ENDROOT
BRANCH   1   3
ATOM      2  C   ACE A   0       5.456  -5.881  25.058  0.00  0.00    +0.101 C 
ATOM      3  N   LEU A   1       6.681  -5.328  25.623  0.00  0.00    -0.307 NA
ATOM      4  H   LEU A   1       7.098  -6.005  26.254  0.00  0.00    +0.122 HD
ENDBRANCH   1   3
BRANCH   1   5
ATOM      5  C   LEU A   1       9.080  -4.757  25.160  0.00  0.00    +0.322 C 
ATOM      6  OXT LEU A   1      10.048  -4.314  24.563  0.00  0.00    -0.249 OA
BRANCH   5   7
ATOM      7  O   LEU A   1       9.182  -5.230  26.430  0.00  0.00    -0.480 OA
ATOM      8  H   LEU A   1       8.717  -6.078  26.548  0.00  0.00    +0.295 HD
ENDBRANCH   5   7
ENDBRANCH   1   5
BRANCH   1   9
ATOM      9  CB  LEU A   1       7.606  -5.617  23.280  0.00  0.00    +0.033 C 
BRANCH   9  10
ATOM     10  CG  LEU A   1       7.211  -4.800  22.031  0.00  0.00    -0.015 C 
ATOM     11  CD2 LEU A   1       6.587  -3.469  22.464  0.00  0.00    +0.007 C 
ATOM     12  CD1 LEU A   1       6.237  -5.555  21.126  0.00  0.00    +0.007 C 
ENDBRANCH   9  10
ENDBRANCH   1   9
TORSDOF 5
ENDMDL
