MODEL 1
REMARK VINA RESULT:      -7.1      0.000      0.000
REMARK  Name = 
REMARK  17 active torsions:
REMARK  status: ('A' for Active; 'I' for Inactive)
REMARK    1  A    between atoms: N_1  and  C_2
REMARK    2  A    between atoms: C_2  and  C_3
REMARK    3  A    between atoms: C_3  and  C_4
REMARK    4  A    between atoms: C_4  and  N_5
REMARK    5  A    between atoms: N_8  and  C_9
REMARK    6  A    between atoms: C_9  and  C_10
REMARK    7  A    between atoms: C_10  and  C_11
REMARK    8  A    between atoms: C_11  and  N_12
REMARK    9  A    between atoms: C_13  and  C_15
REMARK   10  A    between atoms: C_17  and  O_18
REMARK   11  A    between atoms: O_18  and  C_19
REMARK   12  A    between atoms: C_22  and  C_24
REMARK   13  A    between atoms: C_24  and  O_25
REMARK   14  A    between atoms: C_26  and  O_28
REMARK   15  A    between atoms: C_29  and  O_31
REMARK   16  A    between atoms: C_32  and  O_34
REMARK   17  A    between atoms: C_36  and  N_38
REMARK                            x       y       z     vdW  Elec       q    Type
REMARK                         _______ _______ _______ _____ _____    ______ ____
ROOT
ATOM      1  C   UNL     1       6.527  -0.814  24.205  0.00  0.00    +0.047 A 
ATOM      2  C   UNL     1       7.632  -0.401  23.453  0.00  0.00    +0.097 A 
ATOM      3  C   UNL     1       8.415  -1.366  22.818  0.00  0.00    +0.277 A 
ATOM      4  C   UNL     1       8.105  -2.728  22.934  0.00  0.00    +0.130 A 
ATOM      5  C   UNL     1       7.011  -3.131  23.699  0.00  0.00    +0.131 A 
ATOM      6  C   UNL     1       6.206  -2.174  24.317  0.00  0.00    +0.059 A 
ENDROOT
BRANCH   1   9
ATOM      7  N   UNL     1       5.352   1.292  24.215  0.00  0.00    -0.311 N 
ATOM      8  H   UNL     1       5.727   1.452  23.290  0.00  0.00    +0.149 HD
ATOM      9  C   UNL     1       5.682   0.159  24.925  0.00  0.00    +0.244 C 
ATOM     10  O   UNL     1       5.374  -0.057  26.089  0.00  0.00    -0.270 OA
BRANCH   7  11
ATOM     11  C   UNL     1       4.581   2.357  24.819  0.00  0.00    +0.106 C 
BRANCH  11  12
ATOM     12  C   UNL     1       4.589   3.624  23.963  0.00  0.00    +0.034 C 
BRANCH  12  13
ATOM     13  C   UNL     1       5.862   4.449  24.173  0.00  0.00    +0.086 C 
BRANCH  13  17
ATOM     14  N   UNL     1       9.492   5.544  24.083  0.00  0.00    -0.300 NA
ATOM     15  C   UNL     1       8.800   5.019  25.282  0.00  0.00    +0.100 C 
ATOM     16  C   UNL     1       8.003   3.705  25.074  0.00  0.00    +0.100 C 
ATOM     17  N   UNL     1       7.098   3.695  23.907  0.00  0.00    -0.300 NA
ATOM     18  C   UNL     1       7.835   4.195  22.725  0.00  0.00    +0.100 C 
ATOM     19  C   UNL     1       8.529   5.554  22.959  0.00  0.00    +0.100 C 
BRANCH  14  20
ATOM     20  C   UNL     1      10.718   4.779  23.777  0.00  0.00    +0.086 C 
BRANCH  20  21
ATOM     21  C   UNL     1      11.953   5.691  23.737  0.00  0.00    +0.030 C 
BRANCH  21  22
ATOM     22  C   UNL     1      12.871   5.405  22.553  0.00  0.00    +0.079 C 
BRANCH  22  23
ATOM     23  N   UNL     1      14.221   5.147  23.049  0.00  0.00    -0.330 NA
ATOM     24  H   UNL     1      14.339   5.578  23.965  0.00  0.00    +0.118 HD
ATOM     25  H   UNL     1      14.361   4.147  23.176  0.00  0.00    +0.118 HD
ENDBRANCH  22  23
ENDBRANCH  21  22
ENDBRANCH  20  21
ENDBRANCH  14  20
ENDBRANCH  13  17
ENDBRANCH  12  13
ENDBRANCH  11  12
ENDBRANCH   7  11
ENDBRANCH   1   9
BRANCH   3  26
ATOM     26  N   UNL     1       9.592  -0.944  22.055  0.00  0.00    +0.080 N 
ATOM     27  O   UNL     1       9.515   0.124  21.429  0.00  0.00    +0.041 OA
ATOM     28  O   UNL     1      10.597  -1.666  22.092  0.00  0.00    -0.576 OA
ENDBRANCH   3  26
BRANCH   5  29
ATOM     29  O   UNL     1       6.809  -4.481  23.767  0.00  0.00    -0.461 OA
BRANCH  29  30
ATOM     30  C   UNL     1       5.670  -4.936  24.516  0.00  0.00    +0.339 C 
ATOM     31  C   UNL     1       5.031  -6.107  23.735  0.00  0.00    +0.214 C 
ATOM     32  C   UNL     1       3.896  -6.727  24.564  0.00  0.00    +0.180 C 
ATOM     33  C   UNL     1       4.372  -7.079  25.978  0.00  0.00    +0.177 C 
ATOM     34  C   UNL     1       4.996  -5.841  26.630  0.00  0.00    +0.179 C 
ATOM     35  O   UNL     1       6.077  -5.349  25.828  0.00  0.00    -0.331 OA
BRANCH  33  36
ATOM     36  O   UNL     1       3.267  -7.596  26.725  0.00  0.00    -0.386 OA
ATOM     37  H   UNL     1       3.106  -8.522  26.466  0.00  0.00    +0.210 HD
ENDBRANCH  33  36
BRANCH  32  38
ATOM     38  O   UNL     1       3.385  -7.901  23.922  0.00  0.00    -0.386 OA
ATOM     39  H   UNL     1       3.566  -7.800  22.966  0.00  0.00    +0.210 HD
ENDBRANCH  32  38
BRANCH  31  40
ATOM     40  O   UNL     1       4.551  -5.648  22.458  0.00  0.00    -0.383 OA
ATOM     41  H   UNL     1       3.593  -5.799  22.402  0.00  0.00    +0.210 HD
ENDBRANCH  31  40
BRANCH  34  42
ATOM     42  C   UNL     1       5.555  -6.163  28.020  0.00  0.00    +0.190 C 
BRANCH  42  43
ATOM     43  O   UNL     1       5.514  -7.575  28.234  0.00  0.00    -0.392 OA
ATOM     44  H   UNL     1       4.676  -7.878  27.837  0.00  0.00    +0.210 HD
ENDBRANCH  42  43
ENDBRANCH  34  42
ENDBRANCH  29  30
ENDBRANCH   5  29
TORSDOF 17
ENDMDL
MODEL 2
REMARK VINA RESULT:      -6.9      4.004      8.917
REMARK  Name = 
REMARK  17 active torsions:
REMARK  status: ('A' for Active; 'I' for Inactive)
REMARK    1  A    between atoms: N_1  and  C_2
REMARK    2  A    between atoms: C_2  and  C_3
REMARK    3  A    between atoms: C_3  and  C_4
REMARK    4  A    between atoms: C_4  and  N_5
REMARK    5  A    between atoms: N_8  and  C_9
REMARK    6  A    between atoms: C_9  and  C_10
REMARK    7  A    between atoms: C_10  and  C_11
REMARK    8  A    between atoms: C_11  and  N_12
REMARK    9  A    between atoms: C_13  and  C_15
REMARK   10  A    between atoms: C_17  and  O_18
REMARK   11  A    between atoms: O_18  and  C_19
REMARK   12  A    between atoms: C_22  and  C_24
REMARK   13  A    between atoms: C_24  and  O_25
REMARK   14  A    between atoms: C_26  and  O_28
REMARK   15  A    between atoms: C_29  and  O_31
REMARK   16  A    between atoms: C_32  and  O_34
REMARK   17  A    between atoms: C_36  and  N_38
REMARK                            x       y       z     vdW  Elec       q    Type
REMARK                         _______ _______ _______ _____ _____    ______ ____
ROOT
ATOM      1  C   UNL     1       5.265  -2.557  26.514  0.00  0.00    +0.047 A 
ATOM      2  C   UNL     1       5.786  -3.831  26.761  0.00  0.00    +0.097 A 
ATOM      3  C   UNL     1       7.171  -4.008  26.752  0.00  0.00    +0.277 A 
ATOM      4  C   UNL     1       8.028  -2.930  26.494  0.00  0.00    +0.130 A 
ATOM      5  C   UNL     1       7.498  -1.666  26.233  0.00  0.00    +0.131 A 
ATOM      6  C   UNL     1       6.117  -1.472  26.265  0.00  0.00    +0.059 A 
ENDROOT
BRANCH   1   9
ATOM      7  N   UNL     1       3.023  -3.442  26.608  0.00  0.00    -0.311 N 
ATOM      8  H   UNL     1       3.438  -4.362  26.657  0.00  0.00    +0.149 HD
ATOM      9  C   UNL     1       3.809  -2.318  26.479  0.00  0.00    +0.244 C 
ATOM     10  O   UNL     1       3.390  -1.184  26.293  0.00  0.00    -0.270 OA
BRANCH   7  11
ATOM     11  C   UNL     1       1.580  -3.361  26.530  0.00  0.00    +0.106 C 
BRANCH  11  12
ATOM     12  C   UNL     1       1.001  -4.409  25.580  0.00  0.00    +0.034 C 
BRANCH  12  13
ATOM     13  C   UNL     1       1.800  -5.716  25.611  0.00  0.00    +0.086 C 
BRANCH  13  17
ATOM     14  N   UNL     1       5.017  -5.464  23.618  0.00  0.00    -0.300 NA
ATOM     15  C   UNL     1       4.675  -6.582  24.528  0.00  0.00    +0.100 C 
ATOM     16  C   UNL     1       3.263  -7.193  24.335  0.00  0.00    +0.100 C 
ATOM     17  N   UNL     1       2.156  -6.216  24.273  0.00  0.00    -0.300 NA
ATOM     18  C   UNL     1       2.523  -5.135  23.332  0.00  0.00    +0.100 C 
ATOM     19  C   UNL     1       3.897  -4.497  23.630  0.00  0.00    +0.100 C 
BRANCH  14  20
ATOM     20  C   UNL     1       5.345  -5.942  22.260  0.00  0.00    +0.086 C 
BRANCH  20  21
ATOM     21  C   UNL     1       6.533  -5.172  21.666  0.00  0.00    +0.030 C 
BRANCH  21  22
ATOM     22  C   UNL     1       7.532  -4.706  22.721  0.00  0.00    +0.079 C 
BRANCH  22  23
ATOM     23  N   UNL     1       7.381  -3.265  22.913  0.00  0.00    -0.330 NA
ATOM     24  H   UNL     1       8.225  -2.885  23.339  0.00  0.00    +0.118 HD
ATOM     25  H   UNL     1       7.275  -2.803  22.012  0.00  0.00    +0.118 HD
ENDBRANCH  22  23
ENDBRANCH  21  22
ENDBRANCH  20  21
ENDBRANCH  14  20
ENDBRANCH  13  17
ENDBRANCH  12  13
ENDBRANCH  11  12
ENDBRANCH   7  11
ENDBRANCH   1   9
BRANCH   3  26
ATOM     26  N   UNL     1       7.723  -5.346  26.977  0.00  0.00    +0.080 N 
ATOM     27  O   UNL     1       7.370  -5.944  28.005  0.00  0.00    +0.041 OA
ATOM     28  O   UNL     1       8.494  -5.806  26.125  0.00  0.00    -0.576 OA
ENDBRANCH   3  26
BRANCH   5  29
ATOM     29  O   UNL     1       8.416  -0.688  25.971  0.00  0.00    -0.461 OA
BRANCH  29  30
ATOM     30  C   UNL     1       8.244   0.063  24.758  0.00  0.00    +0.339 C 
ATOM     31  C   UNL     1       8.812   1.481  24.998  0.00  0.00    +0.214 C 
ATOM     32  C   UNL     1       8.788   2.280  23.686  0.00  0.00    +0.180 C 
ATOM     33  C   UNL     1       9.459   1.500  22.550  0.00  0.00    +0.177 C 
ATOM     34  C   UNL     1       8.816   0.116  22.431  0.00  0.00    +0.179 C 
ATOM     35  O   UNL     1       8.920  -0.590  23.674  0.00  0.00    -0.331 OA
BRANCH  33  36
ATOM     36  O   UNL     1       9.357   2.260  21.342  0.00  0.00    -0.386 OA
ATOM     37  H   UNL     1      10.028   2.967  21.347  0.00  0.00    +0.210 HD
ENDBRANCH  33  36
BRANCH  32  38
ATOM     38  O   UNL     1       9.438   3.545  23.853  0.00  0.00    -0.386 OA
ATOM     39  H   UNL     1       9.385   3.766  24.805  0.00  0.00    +0.210 HD
ENDBRANCH  32  38
BRANCH  31  40
ATOM     40  O   UNL     1       8.059   2.148  26.027  0.00  0.00    -0.383 OA
ATOM     41  H   UNL     1       7.737   1.492  26.667  0.00  0.00    +0.210 HD
ENDBRANCH  31  40
BRANCH  34  42
ATOM     42  C   UNL     1       9.506  -0.731  21.356  0.00  0.00    +0.190 C 
BRANCH  42  43
ATOM     43  O   UNL     1      10.119  -1.867  21.966  0.00  0.00    -0.392 OA
ATOM     44  H   UNL     1       9.845  -1.844  22.902  0.00  0.00    +0.210 HD
ENDBRANCH  42  43
ENDBRANCH  34  42
ENDBRANCH  29  30
ENDBRANCH   5  29
TORSDOF 17
ENDMDL
MODEL 3
REMARK VINA RESULT:      -6.9      1.439      2.630
REMARK  Name = 
REMARK  17 active torsions:
REMARK  status: ('A' for Active; 'I' for Inactive)
REMARK    1  A    between atoms: N_1  and  C_2
REMARK    2  A    between atoms: C_2  and  C_3
REMARK    3  A    between atoms: C_3  and  C_4
REMARK    4  A    between atoms: C_4  and  N_5
REMARK    5  A    between atoms: N_8  and  C_9
REMARK    6  A    between atoms: C_9  and  C_10
REMARK    7  A    between atoms: C_10  and  C_11
REMARK    8  A    between atoms: C_11  and  N_12
REMARK    9  A    between atoms: C_13  and  C_15
REMARK   10  A    between atoms: C_17  and  O_18
REMARK   11  A    between atoms: O_18  and  C_19
REMARK   12  A    between atoms: C_22  and  C_24
REMARK   13  A    between atoms: C_24  and  O_25
REMARK   14  A    between atoms: C_26  and  O_28
REMARK   15  A    between atoms: C_29  and  O_31
REMARK   16  A    between atoms: C_32  and  O_34
REMARK   17  A    between atoms: C_36  and  N_38
REMARK                            x       y       z     vdW  Elec       q    Type
REMARK                         _______ _______ _______ _____ _____    ______ ____
ROOT
ATOM      1  C   UNL     1       7.089  -0.117  23.374  0.00  0.00    +0.047 A 
ATOM      2  C   UNL     1       8.344  -0.679  23.117  0.00  0.00    +0.097 A 
ATOM      3  C   UNL     1       8.643  -1.935  23.647  0.00  0.00    +0.277 A 
ATOM      4  C   UNL     1       7.704  -2.623  24.429  0.00  0.00    +0.130 A 
ATOM      5  C   UNL     1       6.461  -2.048  24.692  0.00  0.00    +0.131 A 
ATOM      6  C   UNL     1       6.143  -0.805  24.146  0.00  0.00    +0.059 A 
ENDROOT
BRANCH   1   9
ATOM      7  N   UNL     1       5.609   1.787  23.434  0.00  0.00    -0.311 N 
ATOM      8  H   UNL     1       5.053   1.274  24.104  0.00  0.00    +0.149 HD
ATOM      9  C   UNL     1       6.730   1.222  22.866  0.00  0.00    +0.244 C 
ATOM     10  O   UNL     1       7.389   1.720  21.965  0.00  0.00    -0.270 OA
BRANCH   7  11
ATOM     11  C   UNL     1       5.108   3.069  22.988  0.00  0.00    +0.106 C 
BRANCH  11  12
ATOM     12  C   UNL     1       5.179   4.124  24.091  0.00  0.00    +0.034 C 
BRANCH  12  13
ATOM     13  C   UNL     1       5.933   5.378  23.638  0.00  0.00    +0.086 C 
BRANCH  13  17
ATOM     14  N   UNL     1       9.725   5.439  23.653  0.00  0.00    -0.300 NA
ATOM     15  C   UNL     1       8.867   6.536  23.150  0.00  0.00    +0.100 C 
ATOM     16  C   UNL     1       7.719   6.975  24.095  0.00  0.00    +0.100 C 
ATOM     17  N   UNL     1       6.893   5.876  24.636  0.00  0.00    -0.300 NA
ATOM     18  C   UNL     1       7.786   4.817  25.156  0.00  0.00    +0.100 C 
ATOM     19  C   UNL     1       8.848   4.350  24.138  0.00  0.00    +0.100 C 
BRANCH  14  20
ATOM     20  C   UNL     1      10.674   5.911  24.682  0.00  0.00    +0.086 C 
BRANCH  20  21
ATOM     21  C   UNL     1      12.067   6.162  24.087  0.00  0.00    +0.030 C 
BRANCH  21  22
ATOM     22  C   UNL     1      12.611   4.967  23.311  0.00  0.00    +0.079 C 
BRANCH  22  23
ATOM     23  N   UNL     1      14.054   5.124  23.147  0.00  0.00    -0.330 NA
ATOM     24  H   UNL     1      14.518   4.230  23.305  0.00  0.00    +0.118 HD
ATOM     25  H   UNL     1      14.269   5.399  22.191  0.00  0.00    +0.118 HD
ENDBRANCH  22  23
ENDBRANCH  21  22
ENDBRANCH  20  21
ENDBRANCH  14  20
ENDBRANCH  13  17
ENDBRANCH  12  13
ENDBRANCH  11  12
ENDBRANCH   7  11
ENDBRANCH   1   9
BRANCH   3  26
ATOM     26  N   UNL     1       9.967  -2.516  23.411  0.00  0.00    +0.080 N 
ATOM     27  O   UNL     1      10.679  -1.982  22.548  0.00  0.00    +0.041 OA
ATOM     28  O   UNL     1      10.302  -3.492  24.094  0.00  0.00    -0.576 OA
ENDBRANCH   3  26
BRANCH   5  29
ATOM     29  O   UNL     1       5.628  -2.788  25.483  0.00  0.00    -0.461 OA
BRANCH  29  30
ATOM     30  C   UNL     1       5.491  -4.182  25.163  0.00  0.00    +0.339 C 
ATOM     31  C   UNL     1       5.529  -4.975  26.490  0.00  0.00    +0.214 C 
ATOM     32  C   UNL     1       5.237  -6.459  26.217  0.00  0.00    +0.180 C 
ATOM     33  C   UNL     1       3.951  -6.630  25.400  0.00  0.00    +0.177 C 
ATOM     34  C   UNL     1       4.037  -5.783  24.128  0.00  0.00    +0.179 C 
ATOM     35  O   UNL     1       4.260  -4.407  24.460  0.00  0.00    -0.331 OA
BRANCH  33  36
ATOM     36  O   UNL     1       3.757  -8.020  25.124  0.00  0.00    -0.386 OA
ATOM     37  H   UNL     1       3.001  -8.350  25.643  0.00  0.00    +0.210 HD
ENDBRANCH  33  36
BRANCH  32  38
ATOM     38  O   UNL     1       5.127  -7.186  27.446  0.00  0.00    -0.386 OA
ATOM     39  H   UNL     1       4.980  -8.123  27.207  0.00  0.00    +0.210 HD
ENDBRANCH  32  38
BRANCH  31  40
ATOM     40  O   UNL     1       6.806  -4.806  27.131  0.00  0.00    -0.383 OA
ATOM     41  H   UNL     1       6.926  -3.872  27.366  0.00  0.00    +0.210 HD
ENDBRANCH  31  40
BRANCH  34  42
ATOM     42  C   UNL     1       2.742  -5.862  23.314  0.00  0.00    +0.190 C 
BRANCH  42  43
ATOM     43  O   UNL     1       2.724  -7.079  22.566  0.00  0.00    -0.392 OA
ATOM     44  H   UNL     1       3.637  -7.207  22.248  0.00  0.00    +0.210 HD
ENDBRANCH  42  43
ENDBRANCH  34  42
ENDBRANCH  29  30
ENDBRANCH   5  29
TORSDOF 17
ENDMDL
MODEL 4
REMARK VINA RESULT:      -6.8      2.625      5.208
REMARK  Name = 
REMARK  17 active torsions:
REMARK  status: ('A' for Active; 'I' for Inactive)
REMARK    1  A    between atoms: N_1  and  C_2
REMARK    2  A    between atoms: C_2  and  C_3
REMARK    3  A    between atoms: C_3  and  C_4
REMARK    4  A    between atoms: C_4  and  N_5
REMARK    5  A    between atoms: N_8  and  C_9
REMARK    6  A    between atoms: C_9  and  C_10
REMARK    7  A    between atoms: C_10  and  C_11
REMARK    8  A    between atoms: C_11  and  N_12
REMARK    9  A    between atoms: C_13  and  C_15
REMARK   10  A    between atoms: C_17  and  O_18
REMARK   11  A    between atoms: O_18  and  C_19
REMARK   12  A    between atoms: C_22  and  C_24
REMARK   13  A    between atoms: C_24  and  O_25
REMARK   14  A    between atoms: C_26  and  O_28
REMARK   15  A    between atoms: C_29  and  O_31
REMARK   16  A    between atoms: C_32  and  O_34
REMARK   17  A    between atoms: C_36  and  N_38
REMARK                            x       y       z     vdW  Elec       q    Type
REMARK                         _______ _______ _______ _____ _____    ______ ____
ROOT
ATOM      1  C   UNL     1       8.752  -2.455  23.685  0.00  0.00    +0.047 A 
ATOM      2  C   UNL     1       8.175  -3.234  22.676  0.00  0.00    +0.097 A 
ATOM      3  C   UNL     1       7.119  -4.086  23.002  0.00  0.00    +0.277 A 
ATOM      4  C   UNL     1       6.644  -4.167  24.318  0.00  0.00    +0.130 A 
ATOM      5  C   UNL     1       7.236  -3.398  25.320  0.00  0.00    +0.131 A 
ATOM      6  C   UNL     1       8.275  -2.524  25.002  0.00  0.00    +0.059 A 
ENDROOT
BRANCH   1   9
ATOM      7  N   UNL     1      10.062  -0.526  24.300  0.00  0.00    -0.311 N 
ATOM      8  H   UNL     1       9.402  -0.374  25.049  0.00  0.00    +0.149 HD
ATOM      9  C   UNL     1       9.892  -1.561  23.406  0.00  0.00    +0.244 C 
ATOM     10  O   UNL     1      10.570  -1.745  22.405  0.00  0.00    -0.270 OA
BRANCH   7  11
ATOM     11  C   UNL     1      11.103   0.462  24.113  0.00  0.00    +0.106 C 
BRANCH  11  12
ATOM     12  C   UNL     1      10.529   1.865  23.917  0.00  0.00    +0.034 C 
BRANCH  12  13
ATOM     13  C   UNL     1       9.406   1.886  22.875  0.00  0.00    +0.086 C 
BRANCH  13  17
ATOM     14  N   UNL     1       6.434   0.636  24.871  0.00  0.00    -0.300 NA
ATOM     15  C   UNL     1       7.646   1.251  25.460  0.00  0.00    +0.100 C 
ATOM     16  C   UNL     1       8.101   2.585  24.813  0.00  0.00    +0.100 C 
ATOM     17  N   UNL     1       8.190   2.572  23.338  0.00  0.00    -0.300 NA
ATOM     18  C   UNL     1       6.949   1.980  22.789  0.00  0.00    +0.100 C 
ATOM     19  C   UNL     1       6.597   0.607  23.401  0.00  0.00    +0.100 C 
BRANCH  14  20
ATOM     20  C   UNL     1       5.203   1.331  25.297  0.00  0.00    +0.086 C 
BRANCH  20  21
ATOM     21  C   UNL     1       4.669   0.767  26.622  0.00  0.00    +0.030 C 
BRANCH  21  22
ATOM     22  C   UNL     1       5.057  -0.691  26.850  0.00  0.00    +0.079 C 
BRANCH  22  23
ATOM     23  N   UNL     1       4.241  -1.541  25.985  0.00  0.00    -0.330 NA
ATOM     24  H   UNL     1       3.375  -1.787  26.462  0.00  0.00    +0.118 HD
ATOM     25  H   UNL     1       3.977  -1.031  25.145  0.00  0.00    +0.118 HD
ENDBRANCH  22  23
ENDBRANCH  21  22
ENDBRANCH  20  21
ENDBRANCH  14  20
ENDBRANCH  13  17
ENDBRANCH  12  13
ENDBRANCH  11  12
ENDBRANCH   7  11
ENDBRANCH   1   9
BRANCH   3  26
ATOM     26  N   UNL     1       6.531  -4.929  21.958  0.00  0.00    +0.080 N 
ATOM     27  O   UNL     1       5.409  -4.615  21.534  0.00  0.00    +0.041 OA
ATOM     28  O   UNL     1       7.193  -5.892  21.549  0.00  0.00    -0.576 OA
ENDBRANCH   3  26
BRANCH   5  29
ATOM     29  O   UNL     1       6.716  -3.567  26.573  0.00  0.00    -0.461 OA
BRANCH  29  30
ATOM     30  C   UNL     1       5.933  -4.750  26.802  0.00  0.00    +0.339 C 
ATOM     31  C   UNL     1       6.659  -5.593  27.876  0.00  0.00    +0.214 C 
ATOM     32  C   UNL     1       5.789  -6.798  28.266  0.00  0.00    +0.180 C 
ATOM     33  C   UNL     1       4.369  -6.358  28.641  0.00  0.00    +0.177 C 
ATOM     34  C   UNL     1       3.776  -5.521  27.504  0.00  0.00    +0.179 C 
ATOM     35  O   UNL     1       4.612  -4.391  27.230  0.00  0.00    -0.331 OA
BRANCH  33  36
ATOM     36  O   UNL     1       3.586  -7.518  28.938  0.00  0.00    -0.386 OA
ATOM     37  H   UNL     1       4.128  -8.317  28.807  0.00  0.00    +0.210 HD
ENDBRANCH  33  36
BRANCH  32  38
ATOM     38  O   UNL     1       6.377  -7.513  29.358  0.00  0.00    -0.386 OA
ATOM     39  H   UNL     1       7.254  -7.821  29.054  0.00  0.00    +0.210 HD
ENDBRANCH  32  38
BRANCH  31  40
ATOM     40  O   UNL     1       7.944  -6.017  27.388  0.00  0.00    -0.383 OA
ATOM     41  H   UNL     1       8.597  -5.316  27.550  0.00  0.00    +0.210 HD
ENDBRANCH  31  40
BRANCH  34  42
ATOM     42  C   UNL     1       2.383  -4.994  27.866  0.00  0.00    +0.190 C 
BRANCH  42  43
ATOM     43  O   UNL     1       2.267  -3.633  27.450  0.00  0.00    -0.392 OA
ATOM     44  H   UNL     1       2.946  -3.510  26.759  0.00  0.00    +0.210 HD
ENDBRANCH  42  43
ENDBRANCH  34  42
ENDBRANCH  29  30
ENDBRANCH   5  29
TORSDOF 17
ENDMDL
MODEL 5
REMARK VINA RESULT:      -6.7      4.535      9.412
REMARK  Name = 
REMARK  17 active torsions:
REMARK  status: ('A' for Active; 'I' for Inactive)
REMARK    1  A    between atoms: N_1  and  C_2
REMARK    2  A    between atoms: C_2  and  C_3
REMARK    3  A    between atoms: C_3  and  C_4
REMARK    4  A    between atoms: C_4  and  N_5
REMARK    5  A    between atoms: N_8  and  C_9
REMARK    6  A    between atoms: C_9  and  C_10
REMARK    7  A    between atoms: C_10  and  C_11
REMARK    8  A    between atoms: C_11  and  N_12
REMARK    9  A    between atoms: C_13  and  C_15
REMARK   10  A    between atoms: C_17  and  O_18
REMARK   11  A    between atoms: O_18  and  C_19
REMARK   12  A    between atoms: C_22  and  C_24
REMARK   13  A    between atoms: C_24  and  O_25
REMARK   14  A    between atoms: C_26  and  O_28
REMARK   15  A    between atoms: C_29  and  O_31
REMARK   16  A    between atoms: C_32  and  O_34
REMARK   17  A    between atoms: C_36  and  N_38
REMARK                            x       y       z     vdW  Elec       q    Type
REMARK                         _______ _______ _______ _____ _____    ______ ____
ROOT
ATOM      1  C   UNL     1       7.061  -4.726  25.746  0.00  0.00    +0.047 A 
ATOM      2  C   UNL     1       6.129  -4.903  24.718  0.00  0.00    +0.097 A 
ATOM      3  C   UNL     1       6.459  -4.490  23.427  0.00  0.00    +0.277 A 
ATOM      4  C   UNL     1       7.703  -3.901  23.162  0.00  0.00    +0.130 A 
ATOM      5  C   UNL     1       8.621  -3.714  24.196  0.00  0.00    +0.131 A 
ATOM      6  C   UNL     1       8.311  -4.147  25.484  0.00  0.00    +0.059 A 
ENDROOT
BRANCH   1   9
ATOM      7  N   UNL     1       5.665  -4.484  27.698  0.00  0.00    -0.311 N 
ATOM      8  H   UNL     1       5.167  -3.764  27.195  0.00  0.00    +0.149 HD
ATOM      9  C   UNL     1       6.754  -5.115  27.136  0.00  0.00    +0.244 C 
ATOM     10  O   UNL     1       7.484  -5.907  27.715  0.00  0.00    -0.270 OA
BRANCH   7  11
ATOM     11  C   UNL     1       5.288  -4.725  29.074  0.00  0.00    +0.106 C 
BRANCH  11  12
ATOM     12  C   UNL     1       3.771  -4.712  29.260  0.00  0.00    +0.034 C 
BRANCH  12  13
ATOM     13  C   UNL     1       3.072  -3.835  28.216  0.00  0.00    +0.086 C 
BRANCH  13  17
ATOM     14  N   UNL     1       2.298  -5.345  24.824  0.00  0.00    -0.300 NA
ATOM     15  C   UNL     1       2.792  -6.108  25.993  0.00  0.00    +0.100 C 
ATOM     16  C   UNL     1       2.037  -5.856  27.324  0.00  0.00    +0.100 C 
ATOM     17  N   UNL     1       1.841  -4.435  27.677  0.00  0.00    -0.300 NA
ATOM     18  C   UNL     1       1.318  -3.715  26.495  0.00  0.00    +0.100 C 
ATOM     19  C   UNL     1       2.163  -3.925  25.220  0.00  0.00    +0.100 C 
BRANCH  14  20
ATOM     20  C   UNL     1       1.043  -5.910  24.288  0.00  0.00    +0.086 C 
BRANCH  20  21
ATOM     21  C   UNL     1       1.043  -5.920  22.752  0.00  0.00    +0.030 C 
BRANCH  21  22
ATOM     22  C   UNL     1       1.329  -7.297  22.163  0.00  0.00    +0.079 C 
BRANCH  22  23
ATOM     23  N   UNL     1       2.027  -8.105  23.160  0.00  0.00    -0.330 NA
ATOM     24  H   UNL     1       3.001  -8.227  22.885  0.00  0.00    +0.118 HD
ATOM     25  H   UNL     1       2.035  -7.623  24.056  0.00  0.00    +0.118 HD
ENDBRANCH  22  23
ENDBRANCH  21  22
ENDBRANCH  20  21
ENDBRANCH  14  20
ENDBRANCH  13  17
ENDBRANCH  12  13
ENDBRANCH  11  12
ENDBRANCH   7  11
ENDBRANCH   1   9
BRANCH   3  26
ATOM     26  N   UNL     1       5.476  -4.642  22.353  0.00  0.00    +0.080 N 
ATOM     27  O   UNL     1       4.573  -5.476  22.519  0.00  0.00    +0.041 OA
ATOM     28  O   UNL     1       5.593  -3.922  21.353  0.00  0.00    -0.576 OA
ENDBRANCH   3  26
BRANCH   5  29
ATOM     29  O   UNL     1       9.793  -3.110  23.837  0.00  0.00    -0.461 OA
BRANCH  29  30
ATOM     30  C   UNL     1       9.823  -1.673  23.863  0.00  0.00    +0.339 C 
ATOM     31  C   UNL     1       9.588  -1.172  22.419  0.00  0.00    +0.214 C 
ATOM     32  C   UNL     1       9.463   0.360  22.415  0.00  0.00    +0.180 C 
ATOM     33  C   UNL     1       8.427   0.834  23.440  0.00  0.00    +0.177 C 
ATOM     34  C   UNL     1       8.766   0.255  24.816  0.00  0.00    +0.179 C 
ATOM     35  O   UNL     1       8.816  -1.176  24.755  0.00  0.00    -0.331 OA
BRANCH  33  36
ATOM     36  O   UNL     1       8.392   2.264  23.438  0.00  0.00    -0.386 OA
ATOM     37  H   UNL     1       8.399   2.589  24.357  0.00  0.00    +0.210 HD
ENDBRANCH  33  36
BRANCH  32  38
ATOM     38  O   UNL     1       9.105   0.834  21.113  0.00  0.00    -0.386 OA
ATOM     39  H   UNL     1       8.259   0.401  20.878  0.00  0.00    +0.210 HD
ENDBRANCH  32  38
BRANCH  31  40
ATOM     40  O   UNL     1      10.658  -1.608  21.563  0.00  0.00    -0.383 OA
ATOM     41  H   UNL     1      10.686  -2.579  21.551  0.00  0.00    +0.210 HD
ENDBRANCH  31  40
BRANCH  34  42
ATOM     42  C   UNL     1       7.714   0.641  25.861  0.00  0.00    +0.190 C 
BRANCH  42  43
ATOM     43  O   UNL     1       7.927   1.991  26.274  0.00  0.00    -0.392 OA
ATOM     44  H   UNL     1       8.564   2.365  25.636  0.00  0.00    +0.210 HD
ENDBRANCH  42  43
ENDBRANCH  34  42
ENDBRANCH  29  30
ENDBRANCH   5  29
TORSDOF 17
ENDMDL
MODEL 6
REMARK VINA RESULT:      -6.6      2.535      4.942
REMARK  Name = 
REMARK  17 active torsions:
REMARK  status: ('A' for Active; 'I' for Inactive)
REMARK    1  A    between atoms: N_1  and  C_2
REMARK    2  A    between atoms: C_2  and  C_3
REMARK    3  A    between atoms: C_3  and  C_4
REMARK    4  A    between atoms: C_4  and  N_5
REMARK    5  A    between atoms: N_8  and  C_9
REMARK    6  A    between atoms: C_9  and  C_10
REMARK    7  A    between atoms: C_10  and  C_11
REMARK    8  A    between atoms: C_11  and  N_12
REMARK    9  A    between atoms: C_13  and  C_15
REMARK   10  A    between atoms: C_17  and  O_18
REMARK   11  A    between atoms: O_18  and  C_19
REMARK   12  A    between atoms: C_22  and  C_24
REMARK   13  A    between atoms: C_24  and  O_25
REMARK   14  A    between atoms: C_26  and  O_28
REMARK   15  A    between atoms: C_29  and  O_31
REMARK   16  A    between atoms: C_32  and  O_34
REMARK   17  A    between atoms: C_36  and  N_38
REMARK                            x       y       z     vdW  Elec       q    Type
REMARK                         _______ _______ _______ _____ _____    ______ ____
ROOT
ATOM      1  C   UNL     1       7.994  -2.599  23.232  0.00  0.00    +0.047 A 
ATOM      2  C   UNL     1       7.404  -3.510  22.349  0.00  0.00    +0.097 A 
ATOM      3  C   UNL     1       6.488  -4.437  22.848  0.00  0.00    +0.277 A 
ATOM      4  C   UNL     1       6.165  -4.461  24.211  0.00  0.00    +0.130 A 
ATOM      5  C   UNL     1       6.770  -3.559  25.087  0.00  0.00    +0.131 A 
ATOM      6  C   UNL     1       7.668  -2.611  24.595  0.00  0.00    +0.059 A 
ENDROOT
BRANCH   1   9
ATOM      7  N   UNL     1       9.640  -0.918  23.762  0.00  0.00    -0.311 N 
ATOM      8  H   UNL     1       9.385  -1.040  24.732  0.00  0.00    +0.149 HD
ATOM      9  C   UNL     1       8.994  -1.618  22.767  0.00  0.00    +0.244 C 
ATOM     10  O   UNL     1       9.155  -1.445  21.567  0.00  0.00    -0.270 OA
BRANCH   7  11
ATOM     11  C   UNL     1      10.600   0.118  23.447  0.00  0.00    +0.106 C 
BRANCH  11  12
ATOM     12  C   UNL     1      10.542   1.273  24.448  0.00  0.00    +0.034 C 
BRANCH  12  13
ATOM     13  C   UNL     1       9.502   2.325  24.050  0.00  0.00    +0.086 C 
BRANCH  13  17
ATOM     14  N   UNL     1       6.126   3.811  23.166  0.00  0.00    -0.300 NA
ATOM     15  C   UNL     1       7.329   3.879  22.304  0.00  0.00    +0.100 C 
ATOM     16  C   UNL     1       8.072   2.536  22.085  0.00  0.00    +0.100 C 
ATOM     17  N   UNL     1       8.356   1.766  23.314  0.00  0.00    -0.300 NA
ATOM     18  C   UNL     1       7.125   1.694  24.131  0.00  0.00    +0.100 C 
ATOM     19  C   UNL     1       6.480   3.071  24.398  0.00  0.00    +0.100 C 
BRANCH  14  20
ATOM     20  C   UNL     1       4.974   3.221  22.456  0.00  0.00    +0.086 C 
BRANCH  20  21
ATOM     21  C   UNL     1       3.643   3.643  23.098  0.00  0.00    +0.030 C 
BRANCH  21  22
ATOM     22  C   UNL     1       3.481   5.157  23.198  0.00  0.00    +0.079 C 
BRANCH  22  23
ATOM     23  N   UNL     1       4.032   5.774  21.994  0.00  0.00    -0.330 NA
ATOM     24  H   UNL     1       3.495   5.480  21.179  0.00  0.00    +0.118 HD
ATOM     25  H   UNL     1       3.945   6.787  22.050  0.00  0.00    +0.118 HD
ENDBRANCH  22  23
ENDBRANCH  21  22
ENDBRANCH  20  21
ENDBRANCH  14  20
ENDBRANCH  13  17
ENDBRANCH  12  13
ENDBRANCH  11  12
ENDBRANCH   7  11
ENDBRANCH   1   9
BRANCH   3  26
ATOM     26  N   UNL     1       5.891  -5.415  21.935  0.00  0.00    +0.080 N 
ATOM     27  O   UNL     1       6.622  -5.900  21.059  0.00  0.00    +0.041 OA
ATOM     28  O   UNL     1       4.700  -5.711  22.101  0.00  0.00    -0.576 OA
ENDBRANCH   3  26
BRANCH   5  29
ATOM     29  O   UNL     1       6.405  -3.681  26.398  0.00  0.00    -0.461 OA
BRANCH  29  30
ATOM     30  C   UNL     1       5.715  -4.883  26.776  0.00  0.00    +0.339 C 
ATOM     31  C   UNL     1       6.570  -5.599  27.848  0.00  0.00    +0.214 C 
ATOM     32  C   UNL     1       5.806  -6.815  28.394  0.00  0.00    +0.180 C 
ATOM     33  C   UNL     1       4.396  -6.424  28.849  0.00  0.00    +0.177 C 
ATOM     34  C   UNL     1       3.668  -5.713  27.705  0.00  0.00    +0.179 C 
ATOM     35  O   UNL     1       4.411  -4.564  27.281  0.00  0.00    -0.331 OA
BRANCH  33  36
ATOM     36  O   UNL     1       3.709  -7.598  29.293  0.00  0.00    -0.386 OA
ATOM     37  H   UNL     1       2.760  -7.515  29.088  0.00  0.00    +0.210 HD
ENDBRANCH  33  36
BRANCH  32  38
ATOM     38  O   UNL     1       6.518  -7.409  29.486  0.00  0.00    -0.386 OA
ATOM     39  H   UNL     1       6.817  -8.289  29.182  0.00  0.00    +0.210 HD
ENDBRANCH  32  38
BRANCH  31  40
ATOM     40  O   UNL     1       7.838  -5.989  27.290  0.00  0.00    -0.383 OA
ATOM     41  H   UNL     1       8.531  -5.395  27.622  0.00  0.00    +0.210 HD
ENDBRANCH  31  40
BRANCH  34  42
ATOM     42  C   UNL     1       2.277  -5.236  28.138  0.00  0.00    +0.190 C 
BRANCH  42  43
ATOM     43  O   UNL     1       1.355  -6.324  28.057  0.00  0.00    -0.392 OA
ATOM     44  H   UNL     1       0.808  -6.267  28.863  0.00  0.00    +0.210 HD
ENDBRANCH  42  43
ENDBRANCH  34  42
ENDBRANCH  29  30
ENDBRANCH   5  29
TORSDOF 17
ENDMDL
MODEL 7
REMARK VINA RESULT:      -6.4      2.330      5.055
REMARK  Name = 
REMARK  17 active torsions:
REMARK  status: ('A' for Active; 'I' for Inactive)
REMARK    1  A    between atoms: N_1  and  C_2
REMARK    2  A    between atoms: C_2  and  C_3
REMARK    3  A    between atoms: C_3  and  C_4
REMARK    4  A    between atoms: C_4  and  N_5
REMARK    5  A    between atoms: N_8  and  C_9
REMARK    6  A    between atoms: C_9  and  C_10
REMARK    7  A    between atoms: C_10  and  C_11
REMARK    8  A    between atoms: C_11  and  N_12
REMARK    9  A    between atoms: C_13  and  C_15
REMARK   10  A    between atoms: C_17  and  O_18
REMARK   11  A    between atoms: O_18  and  C_19
REMARK   12  A    between atoms: C_22  and  C_24
REMARK   13  A    between atoms: C_24  and  O_25
REMARK   14  A    between atoms: C_26  and  O_28
REMARK   15  A    between atoms: C_29  and  O_31
REMARK   16  A    between atoms: C_32  and  O_34
REMARK   17  A    between atoms: C_36  and  N_38
REMARK                            x       y       z     vdW  Elec       q    Type
REMARK                         _______ _______ _______ _____ _____    ______ ____
ROOT
ATOM      1  C   UNL     1       8.284  -1.526  25.635  0.00  0.00    +0.047 A 
ATOM      2  C   UNL     1       7.177  -0.710  25.893  0.00  0.00    +0.097 A 
ATOM      3  C   UNL     1       6.082  -1.252  26.568  0.00  0.00    +0.277 A 
ATOM      4  C   UNL     1       6.086  -2.592  26.976  0.00  0.00    +0.130 A 
ATOM      5  C   UNL     1       7.187  -3.402  26.701  0.00  0.00    +0.131 A 
ATOM      6  C   UNL     1       8.298  -2.865  26.050  0.00  0.00    +0.059 A 
ENDROOT
BRANCH   1   9
ATOM      7  N   UNL     1       9.917   0.218  25.301  0.00  0.00    -0.311 N 
ATOM      8  H   UNL     1       9.430   0.745  26.012  0.00  0.00    +0.149 HD
ATOM      9  C   UNL     1       9.457  -1.017  24.897  0.00  0.00    +0.244 C 
ATOM     10  O   UNL     1       9.910  -1.666  23.966  0.00  0.00    -0.270 OA
BRANCH   7  11
ATOM     11  C   UNL     1      11.021   0.864  24.624  0.00  0.00    +0.106 C 
BRANCH  11  12
ATOM     12  C   UNL     1      10.540   1.837  23.548  0.00  0.00    +0.034 C 
BRANCH  12  13
ATOM     13  C   UNL     1       9.511   2.833  24.094  0.00  0.00    +0.086 C 
BRANCH  13  17
ATOM     14  N   UNL     1       6.231   3.770  22.437  0.00  0.00    -0.300 NA
ATOM     15  C   UNL     1       7.181   2.761  21.914  0.00  0.00    +0.100 C 
ATOM     16  C   UNL     1       7.676   1.712  22.943  0.00  0.00    +0.100 C 
ATOM     17  N   UNL     1       8.159   2.265  24.225  0.00  0.00    -0.300 NA
ATOM     18  C   UNL     1       7.170   3.244  24.729  0.00  0.00    +0.100 C 
ATOM     19  C   UNL     1       6.786   4.322  23.693  0.00  0.00    +0.100 C 
BRANCH  14  20
ATOM     20  C   UNL     1       4.875   3.211  22.608  0.00  0.00    +0.086 C 
BRANCH  20  21
ATOM     21  C   UNL     1       3.948   4.200  23.332  0.00  0.00    +0.030 C 
BRANCH  21  22
ATOM     22  C   UNL     1       3.158   3.557  24.468  0.00  0.00    +0.079 C 
BRANCH  22  23
ATOM     23  N   UNL     1       3.747   2.256  24.780  0.00  0.00    -0.330 NA
ATOM     24  H   UNL     1       4.342   2.337  25.603  0.00  0.00    +0.118 HD
ATOM     25  H   UNL     1       3.014   1.589  25.014  0.00  0.00    +0.118 HD
ENDBRANCH  22  23
ENDBRANCH  21  22
ENDBRANCH  20  21
ENDBRANCH  14  20
ENDBRANCH  13  17
ENDBRANCH  12  13
ENDBRANCH  11  12
ENDBRANCH   7  11
ENDBRANCH   1   9
BRANCH   3  26
ATOM     26  N   UNL     1       4.907  -0.413  26.813  0.00  0.00    +0.080 N 
ATOM     27  O   UNL     1       3.883  -0.658  26.158  0.00  0.00    +0.041 OA
ATOM     28  O   UNL     1       4.998   0.477  27.669  0.00  0.00    -0.576 OA
ENDBRANCH   3  26
BRANCH   5  29
ATOM     29  O   UNL     1       7.081  -4.699  27.120  0.00  0.00    -0.461 OA
BRANCH  29  30
ATOM     30  C   UNL     1       6.539  -5.646  26.185  0.00  0.00    +0.339 C 
ATOM     31  C   UNL     1       5.279  -6.272  26.828  0.00  0.00    +0.214 C 
ATOM     32  C   UNL     1       4.575  -7.184  25.812  0.00  0.00    +0.180 C 
ATOM     33  C   UNL     1       4.327  -6.451  24.489  0.00  0.00    +0.177 C 
ATOM     34  C   UNL     1       5.646  -5.868  23.972  0.00  0.00    +0.179 C 
ATOM     35  O   UNL     1       6.219  -4.991  24.950  0.00  0.00    -0.331 OA
BRANCH  33  36
ATOM     36  O   UNL     1       3.726  -7.358  23.560  0.00  0.00    -0.386 OA
ATOM     37  H   UNL     1       2.954  -7.783  23.977  0.00  0.00    +0.210 HD
ENDBRANCH  33  36
BRANCH  32  38
ATOM     38  O   UNL     1       3.332  -7.661  26.338  0.00  0.00    -0.386 OA
ATOM     39  H   UNL     1       3.476  -7.831  27.291  0.00  0.00    +0.210 HD
ENDBRANCH  32  38
BRANCH  31  40
ATOM     40  O   UNL     1       5.639  -6.999  28.017  0.00  0.00    -0.383 OA
ATOM     41  H   UNL     1       4.856  -7.458  28.363  0.00  0.00    +0.210 HD
ENDBRANCH  31  40
BRANCH  34  42
ATOM     42  C   UNL     1       5.435  -5.060  22.687  0.00  0.00    +0.190 C 
BRANCH  42  43
ATOM     43  O   UNL     1       4.075  -4.631  22.613  0.00  0.00    -0.392 OA
ATOM     44  H   UNL     1       4.103  -3.727  22.246  0.00  0.00    +0.210 HD
ENDBRANCH  42  43
ENDBRANCH  34  42
ENDBRANCH  29  30
ENDBRANCH   5  29
TORSDOF 17
ENDMDL
MODEL 8
REMARK VINA RESULT:      -6.4      1.993      4.636
REMARK  Name = 
REMARK  17 active torsions:
REMARK  status: ('A' for Active; 'I' for Inactive)
REMARK    1  A    between atoms: N_1  and  C_2
REMARK    2  A    between atoms: C_2  and  C_3
REMARK    3  A    between atoms: C_3  and  C_4
REMARK    4  A    between atoms: C_4  and  N_5
REMARK    5  A    between atoms: N_8  and  C_9
REMARK    6  A    between atoms: C_9  and  C_10
REMARK    7  A    between atoms: C_10  and  C_11
REMARK    8  A    between atoms: C_11  and  N_12
REMARK    9  A    between atoms: C_13  and  C_15
REMARK   10  A    between atoms: C_17  and  O_18
REMARK   11  A    between atoms: O_18  and  C_19
REMARK   12  A    between atoms: C_22  and  C_24
REMARK   13  A    between atoms: C_24  and  O_25
REMARK   14  A    between atoms: C_26  and  O_28
REMARK   15  A    between atoms: C_29  and  O_31
REMARK   16  A    between atoms: C_32  and  O_34
REMARK   17  A    between atoms: C_36  and  N_38
REMARK                            x       y       z     vdW  Elec       q    Type
REMARK                         _______ _______ _______ _____ _____    ______ ____
ROOT
ATOM      1  C   UNL     1       8.951   0.340  24.430  0.00  0.00    +0.047 A 
ATOM      2  C   UNL     1       7.693   0.870  24.735  0.00  0.00    +0.097 A 
ATOM      3  C   UNL     1       6.608   0.002  24.866  0.00  0.00    +0.277 A 
ATOM      4  C   UNL     1       6.771  -1.379  24.690  0.00  0.00    +0.130 A 
ATOM      5  C   UNL     1       8.026  -1.897  24.370  0.00  0.00    +0.131 A 
ATOM      6  C   UNL     1       9.123  -1.041  24.262  0.00  0.00    +0.059 A 
ENDROOT
BRANCH   1   9
ATOM      7  N   UNL     1       9.869   2.439  23.675  0.00  0.00    -0.311 N 
ATOM      8  H   UNL     1       8.940   2.676  23.354  0.00  0.00    +0.149 HD
ATOM      9  C   UNL     1      10.127   1.212  24.247  0.00  0.00    +0.244 C 
ATOM     10  O   UNL     1      11.236   0.798  24.552  0.00  0.00    -0.270 OA
BRANCH   7  11
ATOM     11  C   UNL     1      10.938   3.369  23.383  0.00  0.00    +0.106 C 
BRANCH  11  12
ATOM     12  C   UNL     1      10.565   4.803  23.759  0.00  0.00    +0.034 C 
BRANCH  12  13
ATOM     13  C   UNL     1       9.184   4.882  24.418  0.00  0.00    +0.086 C 
BRANCH  13  17
ATOM     14  N   UNL     1       5.537   4.726  23.387  0.00  0.00    -0.300 NA
ATOM     15  C   UNL     1       6.019   5.175  24.714  0.00  0.00    +0.100 C 
ATOM     16  C   UNL     1       7.163   6.222  24.691  0.00  0.00    +0.100 C 
ATOM     17  N   UNL     1       8.302   5.891  23.809  0.00  0.00    -0.300 NA
ATOM     18  C   UNL     1       7.780   5.479  22.487  0.00  0.00    +0.100 C 
ATOM     19  C   UNL     1       6.713   4.366  22.564  0.00  0.00    +0.100 C 
BRANCH  14  20
ATOM     20  C   UNL     1       4.677   5.740  22.743  0.00  0.00    +0.086 C 
BRANCH  20  21
ATOM     21  C   UNL     1       3.209   5.291  22.711  0.00  0.00    +0.030 C 
BRANCH  21  22
ATOM     22  C   UNL     1       2.988   4.022  21.894  0.00  0.00    +0.079 C 
BRANCH  22  23
ATOM     23  N   UNL     1       3.067   2.865  22.783  0.00  0.00    -0.330 NA
ATOM     24  H   UNL     1       3.992   2.821  23.210  0.00  0.00    +0.118 HD
ATOM     25  H   UNL     1       2.399   2.963  23.544  0.00  0.00    +0.118 HD
ENDBRANCH  22  23
ENDBRANCH  21  22
ENDBRANCH  20  21
ENDBRANCH  14  20
ENDBRANCH  13  17
ENDBRANCH  12  13
ENDBRANCH  11  12
ENDBRANCH   7  11
ENDBRANCH   1   9
BRANCH   3  26
ATOM     26  N   UNL     1       5.281   0.553  25.154  0.00  0.00    +0.080 N 
ATOM     27  O   UNL     1       4.591  -0.032  26.002  0.00  0.00    +0.041 OA
ATOM     28  O   UNL     1       4.934   1.575  24.548  0.00  0.00    -0.576 OA
ENDBRANCH   3  26
BRANCH   5  29
ATOM     29  O   UNL     1       8.074  -3.251  24.195  0.00  0.00    -0.461 OA
BRANCH  29  30
ATOM     30  C   UNL     1       6.818  -3.942  24.089  0.00  0.00    +0.339 C 
ATOM     31  C   UNL     1       6.812  -4.701  22.741  0.00  0.00    +0.214 C 
ATOM     32  C   UNL     1       5.553  -5.575  22.643  0.00  0.00    +0.180 C 
ATOM     33  C   UNL     1       5.396  -6.462  23.884  0.00  0.00    +0.177 C 
ATOM     34  C   UNL     1       5.436  -5.591  25.143  0.00  0.00    +0.179 C 
ATOM     35  O   UNL     1       6.657  -4.844  25.193  0.00  0.00    -0.331 OA
BRANCH  33  36
ATOM     36  O   UNL     1       4.182  -7.210  23.770  0.00  0.00    -0.386 OA
ATOM     37  H   UNL     1       3.597  -6.781  23.121  0.00  0.00    +0.210 HD
ENDBRANCH  33  36
BRANCH  32  38
ATOM     38  O   UNL     1       5.597  -6.393  21.469  0.00  0.00    -0.386 OA
ATOM     39  H   UNL     1       4.677  -6.472  21.146  0.00  0.00    +0.210 HD
ENDBRANCH  32  38
BRANCH  31  40
ATOM     40  O   UNL     1       6.884  -3.769  21.648  0.00  0.00    -0.383 OA
ATOM     41  H   UNL     1       6.486  -4.169  20.857  0.00  0.00    +0.210 HD
ENDBRANCH  31  40
BRANCH  34  42
ATOM     42  C   UNL     1       5.358  -6.443  26.415  0.00  0.00    +0.190 C 
BRANCH  42  43
ATOM     43  O   UNL     1       6.529  -6.226  27.204  0.00  0.00    -0.392 OA
ATOM     44  H   UNL     1       6.318  -5.473  27.788  0.00  0.00    +0.210 HD
ENDBRANCH  42  43
ENDBRANCH  34  42
ENDBRANCH  29  30
ENDBRANCH   5  29
TORSDOF 17
ENDMDL
MODEL 9
REMARK VINA RESULT:      -6.3      3.286      6.999
REMARK  Name = 
REMARK  17 active torsions:
REMARK  status: ('A' for Active; 'I' for Inactive)
REMARK    1  A    between atoms: N_1  and  C_2
REMARK    2  A    between atoms: C_2  and  C_3
REMARK    3  A    between atoms: C_3  and  C_4
REMARK    4  A    between atoms: C_4  and  N_5
REMARK    5  A    between atoms: N_8  and  C_9
REMARK    6  A    between atoms: C_9  and  C_10
REMARK    7  A    between atoms: C_10  and  C_11
REMARK    8  A    between atoms: C_11  and  N_12
REMARK    9  A    between atoms: C_13  and  C_15
REMARK   10  A    between atoms: C_17  and  O_18
REMARK   11  A    between atoms: O_18  and  C_19
REMARK   12  A    between atoms: C_22  and  C_24
REMARK   13  A    between atoms: C_24  and  O_25
REMARK   14  A    between atoms: C_26  and  O_28
REMARK   15  A    between atoms: C_29  and  O_31
REMARK   16  A    between atoms: C_32  and  O_34
REMARK   17  A    between atoms: C_36  and  N_38
REMARK                            x       y       z     vdW  Elec       q    Type
REMARK                         _______ _______ _______ _____ _____    ______ ____
ROOT
ATOM      1  C   UNL     1       8.306  -0.123  25.394  0.00  0.00    +0.047 A 
ATOM      2  C   UNL     1       8.570   0.743  24.328  0.00  0.00    +0.097 A 
ATOM      3  C   UNL     1       9.217   0.244  23.196  0.00  0.00    +0.277 A 
ATOM      4  C   UNL     1       9.601  -1.102  23.128  0.00  0.00    +0.130 A 
ATOM      5  C   UNL     1       9.347  -1.955  24.203  0.00  0.00    +0.131 A 
ATOM      6  C   UNL     1       8.678  -1.473  25.328  0.00  0.00    +0.059 A 
ENDROOT
BRANCH   1   9
ATOM      7  N   UNL     1       6.567   1.182  26.439  0.00  0.00    -0.311 N 
ATOM      8  H   UNL     1       6.294   1.475  25.511  0.00  0.00    +0.149 HD
ATOM      9  C   UNL     1       7.654   0.357  26.628  0.00  0.00    +0.244 C 
ATOM     10  O   UNL     1       8.125   0.052  27.715  0.00  0.00    -0.270 OA
BRANCH   7  11
ATOM     11  C   UNL     1       5.871   1.774  27.561  0.00  0.00    +0.106 C 
BRANCH  11  12
ATOM     12  C   UNL     1       4.355   1.626  27.434  0.00  0.00    +0.034 C 
BRANCH  12  13
ATOM     13  C   UNL     1       3.934   0.162  27.263  0.00  0.00    +0.086 C 
BRANCH  13  17
ATOM     14  N   UNL     1       3.037  -3.266  28.613  0.00  0.00    -0.300 NA
ATOM     15  C   UNL     1       3.767  -3.024  27.348  0.00  0.00    +0.100 C 
ATOM     16  C   UNL     1       4.963  -2.042  27.443  0.00  0.00    +0.100 C 
ATOM     17  N   UNL     1       4.678  -0.765  28.130  0.00  0.00    -0.300 NA
ATOM     18  C   UNL     1       3.978  -1.052  29.402  0.00  0.00    +0.100 C 
ATOM     19  C   UNL     1       2.738  -1.956  29.234  0.00  0.00    +0.100 C 
BRANCH  14  20
ATOM     20  C   UNL     1       3.783  -4.168  29.514  0.00  0.00    +0.086 C 
BRANCH  20  21
ATOM     21  C   UNL     1       3.906  -5.579  28.918  0.00  0.00    +0.030 C 
BRANCH  21  22
ATOM     22  C   UNL     1       5.050  -6.386  29.524  0.00  0.00    +0.079 C 
BRANCH  22  23
ATOM     23  N   UNL     1       5.391  -7.480  28.617  0.00  0.00    -0.330 NA
ATOM     24  H   UNL     1       6.131  -7.184  27.983  0.00  0.00    +0.118 HD
ATOM     25  H   UNL     1       5.758  -8.269  29.145  0.00  0.00    +0.118 HD
ENDBRANCH  22  23
ENDBRANCH  21  22
ENDBRANCH  20  21
ENDBRANCH  14  20
ENDBRANCH  13  17
ENDBRANCH  12  13
ENDBRANCH  11  12
ENDBRANCH   7  11
ENDBRANCH   1   9
BRANCH   3  26
ATOM     26  N   UNL     1       9.526   1.152  22.090  0.00  0.00    +0.080 N 
ATOM     27  O   UNL     1       8.903   0.994  21.030  0.00  0.00    +0.041 OA
ATOM     28  O   UNL     1      10.378   2.030  22.281  0.00  0.00    -0.576 OA
ENDBRANCH   3  26
BRANCH   5  29
ATOM     29  O   UNL     1       9.782  -3.241  24.046  0.00  0.00    -0.461 OA
BRANCH  29  30
ATOM     30  C   UNL     1       8.824  -4.288  24.269  0.00  0.00    +0.339 C 
ATOM     31  C   UNL     1       8.933  -4.717  25.751  0.00  0.00    +0.214 C 
ATOM     32  C   UNL     1       7.827  -5.732  26.081  0.00  0.00    +0.180 C 
ATOM     33  C   UNL     1       6.450  -5.206  25.661  0.00  0.00    +0.177 C 
ATOM     34  C   UNL     1       6.485  -4.803  24.184  0.00  0.00    +0.179 C 
ATOM     35  O   UNL     1       7.503  -3.820  23.961  0.00  0.00    -0.331 OA
BRANCH  33  36
ATOM     36  O   UNL     1       5.467  -6.209  25.935  0.00  0.00    -0.386 OA
ATOM     37  H   UNL     1       5.871  -7.091  25.847  0.00  0.00    +0.210 HD
ENDBRANCH  33  36
BRANCH  32  38
ATOM     38  O   UNL     1       7.822  -6.035  27.480  0.00  0.00    -0.386 OA
ATOM     39  H   UNL     1       8.100  -5.221  27.946  0.00  0.00    +0.210 HD
ENDBRANCH  32  38
BRANCH  31  40
ATOM     40  O   UNL     1      10.237  -5.266  26.013  0.00  0.00    -0.383 OA
ATOM     41  H   UNL     1      10.411  -5.240  26.968  0.00  0.00    +0.210 HD
ENDBRANCH  31  40
BRANCH  34  42
ATOM     42  C   UNL     1       5.149  -4.200  23.737  0.00  0.00    +0.190 C 
BRANCH  42  43
ATOM     43  O   UNL     1       5.031  -4.306  22.317  0.00  0.00    -0.392 OA
ATOM     44  H   UNL     1       4.088  -4.150  22.119  0.00  0.00    +0.210 HD
ENDBRANCH  42  43
ENDBRANCH  34  42
ENDBRANCH  29  30
ENDBRANCH   5  29
TORSDOF 17
ENDMDL
