MODEL 1
REMARK VINA RESULT:      -6.5      0.000      0.000
REMARK  Name = 
REMARK  11 active torsions:
REMARK  status: ('A' for Active; 'I' for Inactive)
REMARK    1  A    between atoms: C_1  and  C_2
REMARK    2  A    between atoms: C_5  and  O_7
REMARK    3  A    between atoms: C_8  and  O_10
REMARK    4  A    between atoms: C_11  and  O_13
REMARK    5  A    between atoms: C_14  and  N_16
REMARK    6  A    between atoms: N_16  and  C_17
REMARK    7  A    between atoms: C_20  and  C_21
REMARK    8  A    between atoms: C_21  and  O_22
REMARK    9  A    between atoms: C_23  and  O_25
REMARK   10  A    between atoms: C_26  and  O_28
REMARK   11  A    between atoms: C_29  and  O_31
REMARK                            x       y       z     vdW  Elec       q    Type
REMARK                         _______ _______ _______ _____ _____    ______ ____
ROOT
ATOM      1  N   UNL     1       7.286  -1.597  23.814  0.00  0.00    -0.300 NA
ATOM      2  H   UNL     1       6.451  -1.240  24.292  0.00  0.00    +0.123 HD
ENDROOT
BRANCH   1   5
ATOM      3  C   UNL     1       6.978  -4.105  22.085  0.00  0.00    +0.039 C 
ATOM      4  C   UNL     1       7.928  -3.994  23.275  0.00  0.00    +0.138 C 
ATOM      5  C   UNL     1       7.421  -2.984  24.334  0.00  0.00    +0.114 C 
ATOM      6  C   UNL     1       8.118  -3.108  25.711  0.00  0.00    +0.167 C 
ATOM      7  C   UNL     1       8.453  -4.555  26.096  0.00  0.00    +0.200 C 
ATOM      8  C   UNL     1       9.077  -5.265  24.885  0.00  0.00    +0.279 C 
ATOM      9  O   UNL     1       8.129  -5.302  23.826  0.00  0.00    -0.344 OA
BRANCH   6  10
ATOM     10  O   UNL     1       7.279  -2.529  26.732  0.00  0.00    -0.387 OA
ATOM     11  H   UNL     1       7.322  -1.561  26.595  0.00  0.00    +0.210 HD
ENDBRANCH   6  10
BRANCH   7  12
ATOM     12  O   UNL     1       9.319  -4.500  27.248  0.00  0.00    -0.384 OA
ATOM     13  H   UNL     1       9.827  -5.331  27.277  0.00  0.00    +0.210 HD
ENDBRANCH   7  12
BRANCH   8  14
ATOM     14  O   UNL     1       9.430  -6.594  25.227  0.00  0.00    -0.365 OA
ATOM     15  H   UNL     1      10.402  -6.609  25.211  0.00  0.00    +0.213 HD
ENDBRANCH   8  14
ENDBRANCH   1   5
BRANCH   1  16
ATOM     16  C   UNL     1       8.348  -0.600  24.088  0.00  0.00    +0.109 C 
ATOM     17  C   UNL     1       9.771  -0.638  23.441  0.00  0.00    +0.166 C 
ATOM     18  C   UNL     1       9.884  -0.177  21.974  0.00  0.00    +0.177 C 
ATOM     19  C   UNL     1       8.997   1.032  21.616  0.00  0.00    +0.173 C 
ATOM     20  C   UNL     1       7.955   1.447  22.624  0.00  0.00    -0.016 C 
ATOM     21  C   UNL     1       7.696   0.717  23.724  0.00  0.00    -0.002 C 
BRANCH  17  22
ATOM     22  O   UNL     1      10.469  -1.880  23.618  0.00  0.00    -0.387 OA
ATOM     23  H   UNL     1      11.384  -1.614  23.838  0.00  0.00    +0.210 HD
ENDBRANCH  17  22
BRANCH  18  24
ATOM     24  O   UNL     1       9.671  -1.284  21.087  0.00  0.00    -0.386 OA
ATOM     25  H   UNL     1      10.473  -1.845  21.121  0.00  0.00    +0.210 HD
ENDBRANCH  18  24
BRANCH  19  26
ATOM     26  O   UNL     1       9.855   2.155  21.366  0.00  0.00    -0.385 OA
ATOM     27  H   UNL     1       9.293   2.905  21.099  0.00  0.00    +0.210 HD
ENDBRANCH  19  26
BRANCH  20  28
ATOM     28  C   UNL     1       7.184   2.687  22.232  0.00  0.00    +0.189 C 
BRANCH  28  29
ATOM     29  O   UNL     1       7.984   3.856  22.319  0.00  0.00    -0.391 OA
ATOM     30  H   UNL     1       7.373   4.597  22.474  0.00  0.00    +0.210 HD
ENDBRANCH  28  29
ENDBRANCH  20  28
ENDBRANCH   1  16
TORSDOF 10
ENDMDL
MODEL 2
REMARK VINA RESULT:      -6.5      2.284      3.080
REMARK  Name = 
REMARK  11 active torsions:
REMARK  status: ('A' for Active; 'I' for Inactive)
REMARK    1  A    between atoms: C_1  and  C_2
REMARK    2  A    between atoms: C_5  and  O_7
REMARK    3  A    between atoms: C_8  and  O_10
REMARK    4  A    between atoms: C_11  and  O_13
REMARK    5  A    between atoms: C_14  and  N_16
REMARK    6  A    between atoms: N_16  and  C_17
REMARK    7  A    between atoms: C_20  and  C_21
REMARK    8  A    between atoms: C_21  and  O_22
REMARK    9  A    between atoms: C_23  and  O_25
REMARK   10  A    between atoms: C_26  and  O_28
REMARK   11  A    between atoms: C_29  and  O_31
REMARK                            x       y       z     vdW  Elec       q    Type
REMARK                         _______ _______ _______ _____ _____    ______ ____
ROOT
ATOM      1  N   UNL     1       6.345  -1.301  22.950  0.00  0.00    -0.300 NA
ATOM      2  H   UNL     1       5.458  -0.897  23.272  0.00  0.00    +0.123 HD
ENDROOT
BRANCH   1   5
ATOM      3  C   UNL     1       4.783  -2.354  25.364  0.00  0.00    +0.039 C 
ATOM      4  C   UNL     1       4.899  -3.087  24.029  0.00  0.00    +0.138 C 
ATOM      5  C   UNL     1       6.214  -2.744  23.287  0.00  0.00    +0.114 C 
ATOM      6  C   UNL     1       6.568  -3.724  22.141  0.00  0.00    +0.167 C 
ATOM      7  C   UNL     1       6.190  -5.180  22.446  0.00  0.00    +0.200 C 
ATOM      8  C   UNL     1       4.773  -5.216  23.040  0.00  0.00    +0.279 C 
ATOM      9  O   UNL     1       4.761  -4.495  24.265  0.00  0.00    -0.344 OA
BRANCH   6  10
ATOM     10  O   UNL     1       7.982  -3.651  21.862  0.00  0.00    -0.387 OA
ATOM     11  H   UNL     1       8.151  -4.323  21.170  0.00  0.00    +0.210 HD
ENDBRANCH   6  10
BRANCH   7  12
ATOM     12  O   UNL     1       6.325  -5.922  21.217  0.00  0.00    -0.384 OA
ATOM     13  H   UNL     1       5.746  -5.505  20.554  0.00  0.00    +0.210 HD
ENDBRANCH   7  12
BRANCH   8  14
ATOM     14  O   UNL     1       4.385  -6.555  23.296  0.00  0.00    -0.365 OA
ATOM     15  H   UNL     1       3.743  -6.770  22.598  0.00  0.00    +0.213 HD
ENDBRANCH   8  14
ENDBRANCH   1   5
BRANCH   1  16
ATOM     16  C   UNL     1       7.401  -0.486  23.595  0.00  0.00    +0.109 C 
ATOM     17  C   UNL     1       8.932  -0.700  23.365  0.00  0.00    +0.166 C 
ATOM     18  C   UNL     1       9.518  -0.187  22.034  0.00  0.00    +0.177 C 
ATOM     19  C   UNL     1       8.931   1.155  21.555  0.00  0.00    +0.173 C 
ATOM     20  C   UNL     1       7.705   1.668  22.268  0.00  0.00    -0.016 C 
ATOM     21  C   UNL     1       7.053   0.929  23.185  0.00  0.00    -0.002 C 
BRANCH  17  22
ATOM     22  O   UNL     1       9.388  -2.038  23.616  0.00  0.00    -0.387 OA
ATOM     23  H   UNL     1       8.707  -2.419  24.208  0.00  0.00    +0.210 HD
ENDBRANCH  17  22
BRANCH  18  24
ATOM     24  O   UNL     1       9.429  -1.206  21.027  0.00  0.00    -0.386 OA
ATOM     25  H   UNL     1       9.197  -0.764  20.184  0.00  0.00    +0.210 HD
ENDBRANCH  18  24
BRANCH  19  26
ATOM     26  O   UNL     1       9.960   2.151  21.653  0.00  0.00    -0.385 OA
ATOM     27  H   UNL     1      10.524   2.074  20.863  0.00  0.00    +0.210 HD
ENDBRANCH  19  26
BRANCH  20  28
ATOM     28  C   UNL     1       7.243   3.026  21.791  0.00  0.00    +0.189 C 
BRANCH  28  29
ATOM     29  O   UNL     1       8.056   4.070  22.302  0.00  0.00    -0.391 OA
ATOM     30  H   UNL     1       8.921   3.983  21.866  0.00  0.00    +0.210 HD
ENDBRANCH  28  29
ENDBRANCH  20  28
ENDBRANCH   1  16
TORSDOF 10
ENDMDL
MODEL 3
REMARK VINA RESULT:      -6.4      1.488      2.369
REMARK  Name = 
REMARK  11 active torsions:
REMARK  status: ('A' for Active; 'I' for Inactive)
REMARK    1  A    between atoms: C_1  and  C_2
REMARK    2  A    between atoms: C_5  and  O_7
REMARK    3  A    between atoms: C_8  and  O_10
REMARK    4  A    between atoms: C_11  and  O_13
REMARK    5  A    between atoms: C_14  and  N_16
REMARK    6  A    between atoms: N_16  and  C_17
REMARK    7  A    between atoms: C_20  and  C_21
REMARK    8  A    between atoms: C_21  and  O_22
REMARK    9  A    between atoms: C_23  and  O_25
REMARK   10  A    between atoms: C_26  and  O_28
REMARK   11  A    between atoms: C_29  and  O_31
REMARK                            x       y       z     vdW  Elec       q    Type
REMARK                         _______ _______ _______ _____ _____    ______ ____
ROOT
ATOM      1  N   UNL     1       7.837  -1.306  24.136  0.00  0.00    -0.300 NA
ATOM      2  H   UNL     1       6.838  -1.177  24.330  0.00  0.00    +0.123 HD
ENDROOT
BRANCH   1   5
ATOM      3  C   UNL     1       6.671  -1.611  26.951  0.00  0.00    +0.039 C 
ATOM      4  C   UNL     1       7.119  -2.779  26.075  0.00  0.00    +0.138 C 
ATOM      5  C   UNL     1       8.243  -2.373  25.090  0.00  0.00    +0.114 C 
ATOM      6  C   UNL     1       8.995  -3.570  24.460  0.00  0.00    +0.167 C 
ATOM      7  C   UNL     1       9.179  -4.750  25.424  0.00  0.00    +0.200 C 
ATOM      8  C   UNL     1       7.853  -5.011  26.155  0.00  0.00    +0.279 C 
ATOM      9  O   UNL     1       7.510  -3.866  26.924  0.00  0.00    -0.344 OA
BRANCH   6  10
ATOM     10  O   UNL     1      10.290  -3.136  23.992  0.00  0.00    -0.387 OA
ATOM     11  H   UNL     1      10.263  -3.222  23.017  0.00  0.00    +0.210 HD
ENDBRANCH   6  10
BRANCH   7  12
ATOM     12  O   UNL     1       9.644  -5.870  24.644  0.00  0.00    -0.384 OA
ATOM     13  H   UNL     1       8.884  -6.220  24.145  0.00  0.00    +0.210 HD
ENDBRANCH   7  12
BRANCH   8  14
ATOM     14  O   UNL     1       7.986  -6.122  27.025  0.00  0.00    -0.365 OA
ATOM     15  H   UNL     1       8.826  -5.978  27.492  0.00  0.00    +0.213 HD
ENDBRANCH   8  14
ENDBRANCH   1   5
BRANCH   1  16
ATOM     16  C   UNL     1       8.432   0.047  24.245  0.00  0.00    +0.109 C 
ATOM     17  C   UNL     1       9.622   0.552  23.365  0.00  0.00    +0.166 C 
ATOM     18  C   UNL     1       9.296   0.944  21.909  0.00  0.00    +0.177 C 
ATOM     19  C   UNL     1       7.950   1.673  21.731  0.00  0.00    +0.173 C 
ATOM     20  C   UNL     1       7.009   1.684  22.909  0.00  0.00    -0.016 C 
ATOM     21  C   UNL     1       7.253   0.969  24.024  0.00  0.00    -0.002 C 
BRANCH  17  22
ATOM     22  O   UNL     1      10.782  -0.293  23.396  0.00  0.00    -0.387 OA
ATOM     23  H   UNL     1      10.448  -1.152  23.727  0.00  0.00    +0.210 HD
ENDBRANCH  17  22
BRANCH  18  24
ATOM     24  O   UNL     1       9.409  -0.200  21.050  0.00  0.00    -0.386 OA
ATOM     25  H   UNL     1       9.820   0.101  20.214  0.00  0.00    +0.210 HD
ENDBRANCH  18  24
BRANCH  19  26
ATOM     26  O   UNL     1       8.225   3.032  21.361  0.00  0.00    -0.385 OA
ATOM     27  H   UNL     1       8.411   3.047  20.405  0.00  0.00    +0.210 HD
ENDBRANCH  19  26
BRANCH  20  28
ATOM     28  C   UNL     1       5.749   2.487  22.679  0.00  0.00    +0.189 C 
BRANCH  28  29
ATOM     29  O   UNL     1       4.710   2.107  23.568  0.00  0.00    -0.391 OA
ATOM     30  H   UNL     1       4.119   1.521  23.065  0.00  0.00    +0.210 HD
ENDBRANCH  28  29
ENDBRANCH  20  28
ENDBRANCH   1  16
TORSDOF 10
ENDMDL
MODEL 4
REMARK VINA RESULT:      -6.4      1.867      6.462
REMARK  Name = 
REMARK  11 active torsions:
REMARK  status: ('A' for Active; 'I' for Inactive)
REMARK    1  A    between atoms: C_1  and  C_2
REMARK    2  A    between atoms: C_5  and  O_7
REMARK    3  A    between atoms: C_8  and  O_10
REMARK    4  A    between atoms: C_11  and  O_13
REMARK    5  A    between atoms: C_14  and  N_16
REMARK    6  A    between atoms: N_16  and  C_17
REMARK    7  A    between atoms: C_20  and  C_21
REMARK    8  A    between atoms: C_21  and  O_22
REMARK    9  A    between atoms: C_23  and  O_25
REMARK   10  A    between atoms: C_26  and  O_28
REMARK   11  A    between atoms: C_29  and  O_31
REMARK                            x       y       z     vdW  Elec       q    Type
REMARK                         _______ _______ _______ _____ _____    ______ ____
ROOT
ATOM      1  N   UNL     1       7.062  -2.146  22.731  0.00  0.00    -0.300 NA
ATOM      2  H   UNL     1       7.767  -2.883  22.617  0.00  0.00    +0.123 HD
ENDROOT
BRANCH   1   5
ATOM      3  C   UNL     1      10.099  -2.140  23.119  0.00  0.00    +0.039 C 
ATOM      4  C   UNL     1       9.324  -1.047  22.386  0.00  0.00    +0.138 C 
ATOM      5  C   UNL     1       7.872  -0.911  22.907  0.00  0.00    +0.114 C 
ATOM      6  C   UNL     1       7.171   0.404  22.489  0.00  0.00    +0.167 C 
ATOM      7  C   UNL     1       8.114   1.614  22.456  0.00  0.00    +0.200 C 
ATOM      8  C   UNL     1       9.417   1.213  21.748  0.00  0.00    +0.279 C 
ATOM      9  O   UNL     1      10.054   0.182  22.490  0.00  0.00    -0.344 OA
BRANCH   6  10
ATOM     10  O   UNL     1       6.080   0.679  23.394  0.00  0.00    -0.387 OA
ATOM     11  H   UNL     1       6.469   1.190  24.133  0.00  0.00    +0.210 HD
ENDBRANCH   6  10
BRANCH   7  12
ATOM     12  O   UNL     1       7.405   2.689  21.807  0.00  0.00    -0.384 OA
ATOM     13  H   UNL     1       7.728   2.745  20.889  0.00  0.00    +0.210 HD
ENDBRANCH   7  12
BRANCH   8  14
ATOM     14  O   UNL     1      10.292   2.326  21.671  0.00  0.00    -0.365 OA
ATOM     15  H   UNL     1      10.922   2.204  22.400  0.00  0.00    +0.213 HD
ENDBRANCH   8  14
ENDBRANCH   1   5
BRANCH   1  16
ATOM     16  C   UNL     1       6.183  -2.615  23.829  0.00  0.00    +0.109 C 
ATOM     17  C   UNL     1       5.353  -3.939  23.778  0.00  0.00    +0.166 C 
ATOM     18  C   UNL     1       6.125  -5.257  23.994  0.00  0.00    +0.177 C 
ATOM     19  C   UNL     1       7.232  -5.178  25.065  0.00  0.00    +0.173 C 
ATOM     20  C   UNL     1       7.607  -3.809  25.572  0.00  0.00    -0.016 C 
ATOM     21  C   UNL     1       7.115  -2.685  25.020  0.00  0.00    -0.002 C 
BRANCH  17  22
ATOM     22  O   UNL     1       4.497  -4.058  22.632  0.00  0.00    -0.387 OA
ATOM     23  H   UNL     1       3.592  -4.059  23.005  0.00  0.00    +0.210 HD
ENDBRANCH  17  22
BRANCH  18  24
ATOM     24  O   UNL     1       6.619  -5.755  22.742  0.00  0.00    -0.386 OA
ATOM     25  H   UNL     1       6.387  -5.097  22.054  0.00  0.00    +0.210 HD
ENDBRANCH  18  24
BRANCH  19  26
ATOM     26  O   UNL     1       6.825  -5.979  26.185  0.00  0.00    -0.385 OA
ATOM     27  H   UNL     1       5.907  -6.262  26.029  0.00  0.00    +0.210 HD
ENDBRANCH  19  26
BRANCH  20  28
ATOM     28  C   UNL     1       8.641  -3.827  26.675  0.00  0.00    +0.189 C 
BRANCH  28  29
ATOM     29  O   UNL     1       9.495  -4.957  26.581  0.00  0.00    -0.391 OA
ATOM     30  H   UNL     1       8.964  -5.670  26.187  0.00  0.00    +0.210 HD
ENDBRANCH  28  29
ENDBRANCH  20  28
ENDBRANCH   1  16
TORSDOF 10
ENDMDL
MODEL 5
REMARK VINA RESULT:      -6.4      1.501      1.728
REMARK  Name = 
REMARK  11 active torsions:
REMARK  status: ('A' for Active; 'I' for Inactive)
REMARK    1  A    between atoms: C_1  and  C_2
REMARK    2  A    between atoms: C_5  and  O_7
REMARK    3  A    between atoms: C_8  and  O_10
REMARK    4  A    between atoms: C_11  and  O_13
REMARK    5  A    between atoms: C_14  and  N_16
REMARK    6  A    between atoms: N_16  and  C_17
REMARK    7  A    between atoms: C_20  and  C_21
REMARK    8  A    between atoms: C_21  and  O_22
REMARK    9  A    between atoms: C_23  and  O_25
REMARK   10  A    between atoms: C_26  and  O_28
REMARK   11  A    between atoms: C_29  and  O_31
REMARK                            x       y       z     vdW  Elec       q    Type
REMARK                         _______ _______ _______ _____ _____    ______ ____
ROOT
ATOM      1  N   UNL     1       6.796  -1.728  23.040  0.00  0.00    -0.300 NA
ATOM      2  H   UNL     1       5.950  -1.179  22.847  0.00  0.00    +0.123 HD
ENDROOT
BRANCH   1   5
ATOM      3  C   UNL     1       7.203  -4.637  22.177  0.00  0.00    +0.039 C 
ATOM      4  C   UNL     1       7.150  -4.171  23.630  0.00  0.00    +0.138 C 
ATOM      5  C   UNL     1       6.286  -2.898  23.804  0.00  0.00    +0.114 C 
ATOM      6  C   UNL     1       5.880  -2.604  25.269  0.00  0.00    +0.167 C 
ATOM      7  C   UNL     1       5.594  -3.870  26.088  0.00  0.00    +0.200 C 
ATOM      8  C   UNL     1       6.701  -4.901  25.819  0.00  0.00    +0.279 C 
ATOM      9  O   UNL     1       6.684  -5.257  24.443  0.00  0.00    -0.344 OA
BRANCH   6  10
ATOM     10  O   UNL     1       4.713  -1.755  25.287  0.00  0.00    -0.387 OA
ATOM     11  H   UNL     1       4.765  -1.248  26.122  0.00  0.00    +0.210 HD
ENDBRANCH   6  10
BRANCH   7  12
ATOM     12  O   UNL     1       5.493  -3.470  27.470  0.00  0.00    -0.384 OA
ATOM     13  H   UNL     1       6.398  -3.355  27.812  0.00  0.00    +0.210 HD
ENDBRANCH   7  12
BRANCH   8  14
ATOM     14  O   UNL     1       6.479  -6.067  26.595  0.00  0.00    -0.365 OA
ATOM     15  H   UNL     1       6.854  -6.794  26.070  0.00  0.00    +0.213 HD
ENDBRANCH   8  14
ENDBRANCH   1   5
BRANCH   1  16
ATOM     16  C   UNL     1       7.736  -0.780  23.683  0.00  0.00    +0.109 C 
ATOM     17  C   UNL     1       9.291  -0.862  23.544  0.00  0.00    +0.166 C 
ATOM     18  C   UNL     1       9.900  -0.376  22.213  0.00  0.00    +0.177 C 
ATOM     19  C   UNL     1       9.221   0.874  21.620  0.00  0.00    +0.173 C 
ATOM     20  C   UNL     1       7.916   1.310  22.237  0.00  0.00    -0.016 C 
ATOM     21  C   UNL     1       7.284   0.569  23.166  0.00  0.00    -0.002 C 
BRANCH  17  22
ATOM     22  O   UNL     1       9.851  -2.134  23.902  0.00  0.00    -0.387 OA
ATOM     23  H   UNL     1      10.448  -2.354  23.158  0.00  0.00    +0.210 HD
ENDBRANCH  17  22
BRANCH  18  24
ATOM     24  O   UNL     1       9.960  -1.456  21.270  0.00  0.00    -0.386 OA
ATOM     25  H   UNL     1      10.341  -1.101  20.441  0.00  0.00    +0.210 HD
ENDBRANCH  18  24
BRANCH  19  26
ATOM     26  O   UNL     1      10.148   1.967  21.705  0.00  0.00    -0.385 OA
ATOM     27  H   UNL     1      11.009   1.605  21.980  0.00  0.00    +0.210 HD
ENDBRANCH  19  26
BRANCH  20  28
ATOM     28  C   UNL     1       7.359   2.588  21.652  0.00  0.00    +0.189 C 
BRANCH  28  29
ATOM     29  O   UNL     1       8.058   3.732  22.118  0.00  0.00    -0.391 OA
ATOM     30  H   UNL     1       8.429   4.167  21.331  0.00  0.00    +0.210 HD
ENDBRANCH  28  29
ENDBRANCH  20  28
ENDBRANCH   1  16
TORSDOF 10
ENDMDL
MODEL 6
REMARK VINA RESULT:      -6.2      1.789      6.277
REMARK  Name = 
REMARK  11 active torsions:
REMARK  status: ('A' for Active; 'I' for Inactive)
REMARK    1  A    between atoms: C_1  and  C_2
REMARK    2  A    between atoms: C_5  and  O_7
REMARK    3  A    between atoms: C_8  and  O_10
REMARK    4  A    between atoms: C_11  and  O_13
REMARK    5  A    between atoms: C_14  and  N_16
REMARK    6  A    between atoms: N_16  and  C_17
REMARK    7  A    between atoms: C_20  and  C_21
REMARK    8  A    between atoms: C_21  and  O_22
REMARK    9  A    between atoms: C_23  and  O_25
REMARK   10  A    between atoms: C_26  and  O_28
REMARK   11  A    between atoms: C_29  and  O_31
REMARK                            x       y       z     vdW  Elec       q    Type
REMARK                         _______ _______ _______ _____ _____    ______ ____
ROOT
ATOM      1  N   UNL     1       9.437  -2.229  24.362  0.00  0.00    -0.300 NA
ATOM      2  H   UNL     1       9.174  -2.235  25.354  0.00  0.00    +0.123 HD
ENDROOT
BRANCH   1   5
ATOM      3  C   UNL     1       7.252  -0.668  25.832  0.00  0.00    +0.039 C 
ATOM      4  C   UNL     1       8.330  -0.025  24.962  0.00  0.00    +0.138 C 
ATOM      5  C   UNL     1       8.823  -0.977  23.844  0.00  0.00    +0.114 C 
ATOM      6  C   UNL     1       9.614  -0.272  22.716  0.00  0.00    +0.167 C 
ATOM      7  C   UNL     1       9.081   1.128  22.382  0.00  0.00    +0.200 C 
ATOM      8  C   UNL     1       8.821   1.890  23.690  0.00  0.00    +0.279 C 
ATOM      9  O   UNL     1       7.822   1.209  24.437  0.00  0.00    -0.344 OA
BRANCH   6  10
ATOM     10  O   UNL     1       9.585  -1.085  21.524  0.00  0.00    -0.387 OA
ATOM     11  H   UNL     1       8.703  -0.942  21.124  0.00  0.00    +0.210 HD
ENDBRANCH   6  10
BRANCH   7  12
ATOM     12  O   UNL     1      10.052   1.760  21.523  0.00  0.00    -0.384 OA
ATOM     13  H   UNL     1       9.762   1.632  20.602  0.00  0.00    +0.210 HD
ENDBRANCH   7  12
BRANCH   8  14
ATOM     14  O   UNL     1       8.364   3.202  23.408  0.00  0.00    -0.365 OA
ATOM     15  H   UNL     1       8.754   3.427  22.547  0.00  0.00    +0.213 HD
ENDBRANCH   8  14
ENDBRANCH   1   5
BRANCH   1  16
ATOM     16  C   UNL     1       8.994  -3.541  23.834  0.00  0.00    +0.109 C 
ATOM     17  C   UNL     1       9.033  -4.871  24.655  0.00  0.00    +0.166 C 
ATOM     18  C   UNL     1       7.936  -5.066  25.722  0.00  0.00    +0.177 C 
ATOM     19  C   UNL     1       6.543  -4.554  25.305  0.00  0.00    +0.173 C 
ATOM     20  C   UNL     1       6.462  -3.709  24.059  0.00  0.00    -0.016 C 
ATOM     21  C   UNL     1       7.563  -3.286  23.411  0.00  0.00    -0.002 C 
BRANCH  17  22
ATOM     22  O   UNL     1      10.318  -5.186  25.212  0.00  0.00    -0.387 OA
ATOM     23  H   UNL     1      10.929  -4.553  24.785  0.00  0.00    +0.210 HD
ENDBRANCH  17  22
BRANCH  18  24
ATOM     24  O   UNL     1       8.361  -4.514  26.977  0.00  0.00    -0.386 OA
ATOM     25  H   UNL     1       9.338  -4.566  27.004  0.00  0.00    +0.210 HD
ENDBRANCH  18  24
BRANCH  19  26
ATOM     26  O   UNL     1       5.684  -5.691  25.136  0.00  0.00    -0.385 OA
ATOM     27  H   UNL     1       6.249  -6.478  25.037  0.00  0.00    +0.210 HD
ENDBRANCH  19  26
BRANCH  20  28
ATOM     28  C   UNL     1       5.053  -3.316  23.677  0.00  0.00    +0.189 C 
BRANCH  28  29
ATOM     29  O   UNL     1       4.511  -4.186  22.695  0.00  0.00    -0.391 OA
ATOM     30  H   UNL     1       3.547  -4.061  22.720  0.00  0.00    +0.210 HD
ENDBRANCH  28  29
ENDBRANCH  20  28
ENDBRANCH   1  16
TORSDOF 10
ENDMDL
MODEL 7
REMARK VINA RESULT:      -6.2      2.202      3.273
REMARK  Name = 
REMARK  11 active torsions:
REMARK  status: ('A' for Active; 'I' for Inactive)
REMARK    1  A    between atoms: C_1  and  C_2
REMARK    2  A    between atoms: C_5  and  O_7
REMARK    3  A    between atoms: C_8  and  O_10
REMARK    4  A    between atoms: C_11  and  O_13
REMARK    5  A    between atoms: C_14  and  N_16
REMARK    6  A    between atoms: N_16  and  C_17
REMARK    7  A    between atoms: C_20  and  C_21
REMARK    8  A    between atoms: C_21  and  O_22
REMARK    9  A    between atoms: C_23  and  O_25
REMARK   10  A    between atoms: C_26  and  O_28
REMARK   11  A    between atoms: C_29  and  O_31
REMARK                            x       y       z     vdW  Elec       q    Type
REMARK                         _______ _______ _______ _____ _____    ______ ____
ROOT
ATOM      1  N   UNL     1       6.883  -2.449  24.534  0.00  0.00    -0.300 NA
ATOM      2  H   UNL     1       6.193  -2.171  25.240  0.00  0.00    +0.123 HD
ENDROOT
BRANCH   1   5
ATOM      3  C   UNL     1       6.297  -4.274  26.921  0.00  0.00    +0.039 C 
ATOM      4  C   UNL     1       5.763  -4.507  25.510  0.00  0.00    +0.138 C 
ATOM      5  C   UNL     1       6.701  -3.921  24.426  0.00  0.00    +0.114 C 
ATOM      6  C   UNL     1       6.423  -4.448  22.997  0.00  0.00    +0.167 C 
ATOM      7  C   UNL     1       6.002  -5.924  22.963  0.00  0.00    +0.200 C 
ATOM      8  C   UNL     1       4.955  -6.171  24.059  0.00  0.00    +0.279 C 
ATOM      9  O   UNL     1       5.537  -5.911  25.329  0.00  0.00    -0.344 OA
BRANCH   6  10
ATOM     10  O   UNL     1       7.600  -4.273  22.180  0.00  0.00    -0.387 OA
ATOM     11  H   UNL     1       8.177  -3.656  22.672  0.00  0.00    +0.210 HD
ENDBRANCH   6  10
BRANCH   7  12
ATOM     12  O   UNL     1       5.527  -6.201  21.630  0.00  0.00    -0.384 OA
ATOM     13  H   UNL     1       4.658  -5.773  21.530  0.00  0.00    +0.210 HD
ENDBRANCH   7  12
BRANCH   8  14
ATOM     14  O   UNL     1       4.521  -7.520  24.024  0.00  0.00    -0.365 OA
ATOM     15  H   UNL     1       3.903  -7.607  24.769  0.00  0.00    +0.213 HD
ENDBRANCH   8  14
ENDBRANCH   1   5
BRANCH   1  16
ATOM     16  C   UNL     1       8.173  -1.898  25.013  0.00  0.00    +0.109 C 
ATOM     17  C   UNL     1       9.534  -2.084  24.266  0.00  0.00    +0.166 C 
ATOM     18  C   UNL     1       9.767  -1.216  23.013  0.00  0.00    +0.177 C 
ATOM     19  C   UNL     1       9.237   0.227  23.129  0.00  0.00    +0.173 C 
ATOM     20  C   UNL     1       8.344   0.542  24.302  0.00  0.00    -0.016 C 
ATOM     21  C   UNL     1       7.898  -0.414  25.137  0.00  0.00    -0.002 C 
BRANCH  17  22
ATOM     22  O   UNL     1       9.873  -3.450  23.985  0.00  0.00    -0.387 OA
ATOM     23  H   UNL     1       9.034  -3.939  24.109  0.00  0.00    +0.210 HD
ENDBRANCH  17  22
BRANCH  18  24
ATOM     24  O   UNL     1       9.266  -1.884  21.846  0.00  0.00    -0.386 OA
ATOM     25  H   UNL     1       9.745  -2.734  21.767  0.00  0.00    +0.210 HD
ENDBRANCH  18  24
BRANCH  19  26
ATOM     26  O   UNL     1      10.365   1.114  23.170  0.00  0.00    -0.385 OA
ATOM     27  H   UNL     1      10.649   1.274  22.252  0.00  0.00    +0.210 HD
ENDBRANCH  19  26
BRANCH  20  28
ATOM     28  C   UNL     1       7.934   1.995  24.386  0.00  0.00    +0.189 C 
BRANCH  28  29
ATOM     29  O   UNL     1       8.795   2.739  25.234  0.00  0.00    -0.391 OA
ATOM     30  H   UNL     1       9.649   2.274  25.234  0.00  0.00    +0.210 HD
ENDBRANCH  28  29
ENDBRANCH  20  28
ENDBRANCH   1  16
TORSDOF 10
ENDMDL
MODEL 8
REMARK VINA RESULT:      -6.1      1.831      6.450
REMARK  Name = 
REMARK  11 active torsions:
REMARK  status: ('A' for Active; 'I' for Inactive)
REMARK    1  A    between atoms: C_1  and  C_2
REMARK    2  A    between atoms: C_5  and  O_7
REMARK    3  A    between atoms: C_8  and  O_10
REMARK    4  A    between atoms: C_11  and  O_13
REMARK    5  A    between atoms: C_14  and  N_16
REMARK    6  A    between atoms: N_16  and  C_17
REMARK    7  A    between atoms: C_20  and  C_21
REMARK    8  A    between atoms: C_21  and  O_22
REMARK    9  A    between atoms: C_23  and  O_25
REMARK   10  A    between atoms: C_26  and  O_28
REMARK   11  A    between atoms: C_29  and  O_31
REMARK                            x       y       z     vdW  Elec       q    Type
REMARK                         _______ _______ _______ _____ _____    ______ ____
ROOT
ATOM      1  N   UNL     1       7.114  -1.353  24.857  0.00  0.00    -0.300 NA
ATOM      2  H   UNL     1       6.921  -2.131  24.217  0.00  0.00    +0.123 HD
ENDROOT
BRANCH   1   5
ATOM      3  C   UNL     1       8.448  -2.273  22.260  0.00  0.00    +0.039 C 
ATOM      4  C   UNL     1       8.265  -0.811  22.661  0.00  0.00    +0.138 C 
ATOM      5  C   UNL     1       8.232  -0.627  24.198  0.00  0.00    +0.114 C 
ATOM      6  C   UNL     1       8.436   0.835  24.665  0.00  0.00    +0.167 C 
ATOM      7  C   UNL     1       9.430   1.619  23.797  0.00  0.00    +0.200 C 
ATOM      8  C   UNL     1       9.122   1.351  22.316  0.00  0.00    +0.279 C 
ATOM      9  O   UNL     1       9.300  -0.032  22.044  0.00  0.00    -0.344 OA
BRANCH   6  10
ATOM     10  O   UNL     1       8.892   0.847  26.034  0.00  0.00    -0.387 OA
ATOM     11  H   UNL     1       8.091   0.722  26.583  0.00  0.00    +0.210 HD
ENDBRANCH   6  10
BRANCH   7  12
ATOM     12  O   UNL     1       9.322   3.007  24.173  0.00  0.00    -0.384 OA
ATOM     13  H   UNL     1       9.378   3.057  25.144  0.00  0.00    +0.210 HD
ENDBRANCH   7  12
BRANCH   8  14
ATOM     14  O   UNL     1      10.004   2.095  21.492  0.00  0.00    -0.365 OA
ATOM     15  H   UNL     1      10.437   2.727  22.090  0.00  0.00    +0.213 HD
ENDBRANCH   8  14
ENDBRANCH   1   5
BRANCH   1  16
ATOM     16  C   UNL     1       7.322  -1.982  26.183  0.00  0.00    +0.109 C 
ATOM     17  C   UNL     1       6.265  -2.886  26.896  0.00  0.00    +0.166 C 
ATOM     18  C   UNL     1       6.109  -4.327  26.371  0.00  0.00    +0.177 C 
ATOM     19  C   UNL     1       7.434  -5.005  25.967  0.00  0.00    +0.173 C 
ATOM     20  C   UNL     1       8.658  -4.129  25.876  0.00  0.00    -0.016 C 
ATOM     21  C   UNL     1       8.588  -2.790  25.994  0.00  0.00    -0.002 C 
BRANCH  17  22
ATOM     22  O   UNL     1       4.972  -2.279  27.048  0.00  0.00    -0.387 OA
ATOM     23  H   UNL     1       5.159  -1.412  27.462  0.00  0.00    +0.210 HD
ENDBRANCH  17  22
BRANCH  18  24
ATOM     24  O   UNL     1       5.137  -4.369  25.316  0.00  0.00    -0.386 OA
ATOM     25  H   UNL     1       5.354  -5.139  24.749  0.00  0.00    +0.210 HD
ENDBRANCH  18  24
BRANCH  19  26
ATOM     26  O   UNL     1       7.700  -6.057  26.906  0.00  0.00    -0.385 OA
ATOM     27  H   UNL     1       8.067  -6.811  26.411  0.00  0.00    +0.210 HD
ENDBRANCH  19  26
BRANCH  20  28
ATOM     28  C   UNL     1       9.928  -4.884  25.554  0.00  0.00    +0.189 C 
BRANCH  28  29
ATOM     29  O   UNL     1       9.707  -5.902  24.590  0.00  0.00    -0.391 OA
ATOM     30  H   UNL     1       9.289  -6.642  25.063  0.00  0.00    +0.210 HD
ENDBRANCH  28  29
ENDBRANCH  20  28
ENDBRANCH   1  16
TORSDOF 10
ENDMDL
MODEL 9
REMARK VINA RESULT:      -6.1      2.981      6.934
REMARK  Name = 
REMARK  11 active torsions:
REMARK  status: ('A' for Active; 'I' for Inactive)
REMARK    1  A    between atoms: C_1  and  C_2
REMARK    2  A    between atoms: C_5  and  O_7
REMARK    3  A    between atoms: C_8  and  O_10
REMARK    4  A    between atoms: C_11  and  O_13
REMARK    5  A    between atoms: C_14  and  N_16
REMARK    6  A    between atoms: N_16  and  C_17
REMARK    7  A    between atoms: C_20  and  C_21
REMARK    8  A    between atoms: C_21  and  O_22
REMARK    9  A    between atoms: C_23  and  O_25
REMARK   10  A    between atoms: C_26  and  O_28
REMARK   11  A    between atoms: C_29  and  O_31
REMARK                            x       y       z     vdW  Elec       q    Type
REMARK                         _______ _______ _______ _____ _____    ______ ____
ROOT
ATOM      1  N   UNL     1       6.336  -4.005  23.668  0.00  0.00    -0.300 NA
ATOM      2  H   UNL     1       6.849  -4.873  23.859  0.00  0.00    +0.123 HD
ENDROOT
BRANCH   1   5
ATOM      3  C   UNL     1       9.089  -4.527  24.903  0.00  0.00    +0.039 C 
ATOM      4  C   UNL     1       8.802  -3.438  23.872  0.00  0.00    +0.138 C 
ATOM      5  C   UNL     1       7.338  -2.939  23.940  0.00  0.00    +0.114 C 
ATOM      6  C   UNL     1       7.091  -1.598  23.207  0.00  0.00    +0.167 C 
ATOM      7  C   UNL     1       8.265  -0.617  23.320  0.00  0.00    +0.200 C 
ATOM      8  C   UNL     1       9.577  -1.373  23.058  0.00  0.00    +0.279 C 
ATOM      9  O   UNL     1       9.746  -2.374  24.053  0.00  0.00    -0.344 OA
BRANCH   6  10
ATOM     10  O   UNL     1       5.900  -0.973  23.730  0.00  0.00    -0.387 OA
ATOM     11  H   UNL     1       6.034  -0.010  23.619  0.00  0.00    +0.210 HD
ENDBRANCH   6  10
BRANCH   7  12
ATOM     12  O   UNL     1       8.016   0.456  22.389  0.00  0.00    -0.384 OA
ATOM     13  H   UNL     1       8.629   0.347  21.640  0.00  0.00    +0.210 HD
ENDBRANCH   7  12
BRANCH   8  14
ATOM     14  O   UNL     1      10.676  -0.479  23.120  0.00  0.00    -0.365 OA
ATOM     15  H   UNL     1      11.176  -0.636  22.302  0.00  0.00    +0.213 HD
ENDBRANCH   8  14
ENDBRANCH   1   5
BRANCH   1  16
ATOM     16  C   UNL     1       5.107  -4.090  24.492  0.00  0.00    +0.109 C 
ATOM     17  C   UNL     1       3.957  -5.119  24.240  0.00  0.00    +0.166 C 
ATOM     18  C   UNL     1       4.211  -6.574  24.684  0.00  0.00    +0.177 C 
ATOM     19  C   UNL     1       4.978  -6.709  26.015  0.00  0.00    +0.173 C 
ATOM     20  C   UNL     1       5.608  -5.462  26.580  0.00  0.00    -0.016 C 
ATOM     21  C   UNL     1       5.637  -4.304  25.894  0.00  0.00    -0.002 C 
BRANCH  17  22
ATOM     22  O   UNL     1       3.427  -5.101  22.906  0.00  0.00    -0.387 OA
ATOM     23  H   UNL     1       3.183  -6.032  22.730  0.00  0.00    +0.210 HD
ENDBRANCH  17  22
BRANCH  18  24
ATOM     24  O   UNL     1       4.834  -7.315  23.625  0.00  0.00    -0.386 OA
ATOM     25  H   UNL     1       4.827  -6.746  22.827  0.00  0.00    +0.210 HD
ENDBRANCH  18  24
BRANCH  19  26
ATOM     26  O   UNL     1       4.075  -7.243  26.996  0.00  0.00    -0.385 OA
ATOM     27  H   UNL     1       3.810  -6.513  27.583  0.00  0.00    +0.210 HD
ENDBRANCH  19  26
BRANCH  20  28
ATOM     28  C   UNL     1       6.269  -5.665  27.924  0.00  0.00    +0.189 C 
BRANCH  28  29
ATOM     29  O   UNL     1       7.631  -6.040  27.791  0.00  0.00    -0.391 OA
ATOM     30  H   UNL     1       8.151  -5.222  27.878  0.00  0.00    +0.210 HD
ENDBRANCH  28  29
ENDBRANCH  20  28
ENDBRANCH   1  16
TORSDOF 10
ENDMDL
