MODEL 1
REMARK VINA RESULT:      -6.8      0.000      0.000
REMARK  Name = 
REMARK  18 active torsions:
REMARK  status: ('A' for Active; 'I' for Inactive)
REMARK    1  A    between atoms: C_1  and  C_2
REMARK    2  A    between atoms: C_3  and  C_4
REMARK    3  A    between atoms: C_4  and  C_5
REMARK    4  A    between atoms: C_5  and  C_6
REMARK    5  A    between atoms: C_6  and  O_7
REMARK    6  A    between atoms: C_12  and  C_13
REMARK    7  A    between atoms: C_13  and  C_14
REMARK    8  A    between atoms: C_14  and  C_15
REMARK    9  A    between atoms: C_15  and  O_16
REMARK   10  A    between atoms: C_18  and  C_19
REMARK   11  A    between atoms: C_36  and  C_37
REMARK   12  A    between atoms: C_36  and  C_38
REMARK   13  A    between atoms: C_38  and  C_39
REMARK   14  A    between atoms: C_39  and  O_40
REMARK   15  A    between atoms: C_44  and  C_45
REMARK   16  A    between atoms: C_44  and  C_46
REMARK   17  A    between atoms: C_46  and  C_47
REMARK   18  A    between atoms: C_47  and  O_48
REMARK                            x       y       z     vdW  Elec       q    Type
REMARK                         _______ _______ _______ _____ _____    ______ ____
ROOT
ATOM      1  C   UNL     1       4.505  -0.468  30.164  0.00  0.00    +0.000 C 
ATOM      2  C   UNL     1       4.738  -0.764  28.532  0.00  0.00    +0.000 A 
ATOM      3  C   UNL     1       5.466  -0.197  27.068  0.00  0.00    +0.000 A 
ATOM      4  N   UNL     1       5.069  -1.342  26.235  0.00  0.00    +0.000 N 
ATOM      5 FE   UNL     1       6.486  -1.617  23.511  0.00  0.00    +0.000 Fe
ATOM      6  N   UNL     1       5.493  -3.490  23.672  0.00  0.00    +0.000 N 
ATOM      7  C   UNL     1       6.364  -4.255  23.153  0.00  0.00    +0.000 A 
ATOM      8  C   UNL     1       7.751  -3.677  23.152  0.00  0.00    +0.000 C 
ATOM      9  C   UNL     1       8.213  -2.666  24.083  0.00  0.00    +0.000 C 
ATOM     10  C   UNL     1       7.344  -1.697  25.237  0.00  0.00    +0.000 C 
ATOM     11  C   UNL     1       5.717  -0.334  24.449  0.00  0.00    +0.000 C 
ATOM     12  C   UNL     1       8.677  -1.023  25.473  0.00  0.00    +0.000 C 
ATOM     13  O   UNL     1       8.893  -0.080  26.236  0.00  0.00    +0.000 OA
ATOM     14  C   UNL     1       9.247  -1.165  24.141  0.00  0.00    +0.000 C 
ATOM     15  C   UNL     1       9.975  -0.001  23.676  0.00  0.00    +0.000 C 
ATOM     16  C   UNL     1       9.144   0.866  23.077  0.00  0.00    +0.000 C 
ATOM     17  C   UNL     1       9.820   2.425  22.970  0.00  0.00    +0.000 C 
ATOM     18  C   UNL     1      11.135   3.097  21.891  0.00  0.00    +0.000 C 
ATOM     19  C   UNL     1       8.280   2.690  23.235  0.00  0.00    +0.000 C 
ATOM     20  O   UNL     1       7.867   2.844  22.055  0.00  0.00    +0.000 OA
ATOM     21  C   UNL     1       7.424   1.542  24.239  0.00  0.00    +0.000 C 
ATOM     22  C   UNL     1       5.850  -5.450  22.869  0.00  0.00    +0.000 A 
ATOM     23  C   UNL     1       6.445  -6.128  21.673  0.00  0.00    +0.000 C 
ATOM     24  C   UNL     1       4.825  -5.656  23.872  0.00  0.00    +0.000 A 
ATOM     25  C   UNL     1       4.656  -4.293  24.498  0.00  0.00    +0.000 A 
ATOM     26  C   UNL     1       4.110  -3.766  26.068  0.00  0.00    +0.000 C 
ATOM     27  N   UNL     1       7.570   0.526  23.362  0.00  0.00    +1.000 N 
ATOM     28  N   UNL     1       8.384  -1.822  23.352  0.00  0.00    +1.000 N 
ATOM     29  C   UNL     1       4.324  -2.453  26.832  0.00  0.00    +0.000 A 
ATOM     30  C   UNL     1       6.492   1.145  26.220  0.00  0.00    +0.000 C 
ATOM     31  C   UNL     1       4.045  -2.183  28.294  0.00  0.00    +0.000 A 
ENDROOT
BRANCH  10  32
ATOM     32  C   UNL     1       6.953  -2.750  26.165  0.00  0.00    +0.000 C 
BRANCH  32  33
ATOM     33  C   UNL     1       7.734  -3.817  26.741  0.00  0.00    +0.000 C 
ATOM     34  O   UNL     1       8.916  -3.720  27.085  0.00  0.00    +0.000 OA
BRANCH  33  35
ATOM     35  O   UNL     1       7.089  -4.952  26.700  0.00  0.00    +0.000 OA
ATOM     36  H   UNL     1       7.672  -5.732  26.739  0.00  0.00    +0.000 HD
ENDBRANCH  33  35
ENDBRANCH  32  33
ENDBRANCH  10  32
BRANCH  17  37
ATOM     37  C   UNL     1      10.340   3.311  24.131  0.00  0.00    +0.000 C 
BRANCH  37  38
ATOM     38  C   UNL     1       9.518   4.661  24.164  0.00  0.00    +0.000 C 
ATOM     39  O   UNL     1       8.942   4.995  25.187  0.00  0.00    +0.000 OA
BRANCH  38  40
ATOM     40  O   UNL     1       9.290   5.449  23.084  0.00  0.00    +0.000 OA
ATOM     41  H   UNL     1       9.108   5.160  22.185  0.00  0.00    +0.000 HD
ENDBRANCH  38  40
ENDBRANCH  37  38
ENDBRANCH  17  37
BRANCH  24  42
ATOM     42  C   UNL     1       4.307  -7.117  24.095  0.00  0.00    +0.000 C 
BRANCH  42  43
ATOM     43  C   UNL     1       3.194  -7.354  25.130  0.00  0.00    +0.000 C 
BRANCH  43  44
ATOM     44  C   UNL     1       3.674  -7.173  26.569  0.00  0.00    +0.000 C 
ATOM     45  O   UNL     1       2.860  -6.998  27.463  0.00  0.00    +0.000 OA
BRANCH  44  46
ATOM     46  O   UNL     1       4.986  -7.231  26.895  0.00  0.00    +0.000 OA
ATOM     47  H   UNL     1       5.694  -7.090  26.253  0.00  0.00    +0.000 HD
ENDBRANCH  44  46
ENDBRANCH  43  44
ENDBRANCH  42  43
ENDBRANCH  24  42
BRANCH  31  48
ATOM     48  C   UNL     1       3.242  -3.380  29.400  0.00  0.00    +0.000 C 
BRANCH  48  49
ATOM     49  C   UNL     1       3.784  -4.630  30.365  0.00  0.00    +0.000 C 
BRANCH  49  50
ATOM     50  C   UNL     1       4.810  -5.644  29.867  0.00  0.00    +0.000 C 
ATOM     51  O   UNL     1       5.850  -5.254  29.344  0.00  0.00    +0.000 OA
BRANCH  50  52
ATOM     52  O   UNL     1       4.596  -6.964  29.952  0.00  0.00    +0.000 OA
ATOM     53  H   UNL     1       4.777  -7.540  29.205  0.00  0.00    +0.000 HD
ENDBRANCH  50  52
ENDBRANCH  49  50
ENDBRANCH  48  49
ENDBRANCH  31  48
TORSDOF 14
ENDMDL
MODEL 2
REMARK VINA RESULT:      -6.3      2.071      9.012
REMARK  Name = 
REMARK  18 active torsions:
REMARK  status: ('A' for Active; 'I' for Inactive)
REMARK    1  A    between atoms: C_1  and  C_2
REMARK    2  A    between atoms: C_3  and  C_4
REMARK    3  A    between atoms: C_4  and  C_5
REMARK    4  A    between atoms: C_5  and  C_6
REMARK    5  A    between atoms: C_6  and  O_7
REMARK    6  A    between atoms: C_12  and  C_13
REMARK    7  A    between atoms: C_13  and  C_14
REMARK    8  A    between atoms: C_14  and  C_15
REMARK    9  A    between atoms: C_15  and  O_16
REMARK   10  A    between atoms: C_18  and  C_19
REMARK   11  A    between atoms: C_36  and  C_37
REMARK   12  A    between atoms: C_36  and  C_38
REMARK   13  A    between atoms: C_38  and  C_39
REMARK   14  A    between atoms: C_39  and  O_40
REMARK   15  A    between atoms: C_44  and  C_45
REMARK   16  A    between atoms: C_44  and  C_46
REMARK   17  A    between atoms: C_46  and  C_47
REMARK   18  A    between atoms: C_47  and  O_48
REMARK                            x       y       z     vdW  Elec       q    Type
REMARK                         _______ _______ _______ _____ _____    ______ ____
ROOT
ATOM      1  C   UNL     1      10.532  -1.874  22.889  0.00  0.00    +0.000 C 
ATOM      2  C   UNL     1       8.949  -1.595  23.359  0.00  0.00    +0.000 A 
ATOM      3  C   UNL     1       7.493  -2.308  23.966  0.00  0.00    +0.000 A 
ATOM      4  N   UNL     1       6.734  -1.054  24.081  0.00  0.00    +0.000 N 
ATOM      5 FE   UNL     1       4.140  -1.164  25.743  0.00  0.00    +0.000 Fe
ATOM      6  N   UNL     1       4.391   0.930  25.473  0.00  0.00    +0.000 N 
ATOM      7  C   UNL     1       3.996   1.355  26.603  0.00  0.00    +0.000 A 
ATOM      8  C   UNL     1       4.037   0.314  27.687  0.00  0.00    +0.000 C 
ATOM      9  C   UNL     1       4.908  -0.844  27.671  0.00  0.00    +0.000 C 
ATOM     10  C   UNL     1       5.919  -1.493  26.413  0.00  0.00    +0.000 C 
ATOM     11  C   UNL     1       4.917  -2.130  24.485  0.00  0.00    +0.000 C 
ATOM     12  C   UNL     1       6.185  -2.615  27.391  0.00  0.00    +0.000 C 
ATOM     13  O   UNL     1       6.879  -3.613  27.186  0.00  0.00    +0.000 OA
ATOM     14  C   UNL     1       4.909  -2.618  28.092  0.00  0.00    +0.000 C 
ATOM     15  C   UNL     1       4.398  -3.941  28.396  0.00  0.00    +0.000 C 
ATOM     16  C   UNL     1       3.676  -4.414  27.368  0.00  0.00    +0.000 C 
ATOM     17  C   UNL     1       3.484  -6.103  27.450  0.00  0.00    +0.000 C 
ATOM     18  C   UNL     1       2.441  -7.147  28.531  0.00  0.00    +0.000 C 
ATOM     19  C   UNL     1       3.625  -5.806  25.900  0.00  0.00    +0.000 C 
ATOM     20  O   UNL     1       2.413  -5.736  25.568  0.00  0.00    +0.000 OA
ATOM     21  C   UNL     1       4.663  -4.483  25.423  0.00  0.00    +0.000 C 
ATOM     22  C   UNL     1       3.779   2.668  26.578  0.00  0.00    +0.000 A 
ATOM     23  C   UNL     1       2.684   3.148  27.480  0.00  0.00    +0.000 C 
ATOM     24  C   UNL     1       4.727   3.177  25.607  0.00  0.00    +0.000 A 
ATOM     25  C   UNL     1       5.225   1.936  24.907  0.00  0.00    +0.000 A 
ATOM     26  C   UNL     1       6.707   1.559  24.069  0.00  0.00    +0.000 C 
ATOM     27  N   UNL     1       3.885  -3.543  26.000  0.00  0.00    +1.000 N 
ATOM     28  N   UNL     1       4.123  -1.652  27.596  0.00  0.00    +1.000 N 
ATOM     29  C   UNL     1       7.371   0.218  23.730  0.00  0.00    +0.000 A 
ATOM     30  C   UNL     1       6.605  -3.882  24.518  0.00  0.00    +0.000 C 
ATOM     31  C   UNL     1       8.785  -0.011  23.242  0.00  0.00    +0.000 A 
ENDROOT
BRANCH  10  32
ATOM     32  C   UNL     1       6.904  -0.421  26.342  0.00  0.00    +0.000 C 
BRANCH  32  33
ATOM     33  C   UNL     1       8.142  -0.248  27.060  0.00  0.00    +0.000 C 
ATOM     34  O   UNL     1       9.185  -0.867  26.828  0.00  0.00    +0.000 OA
BRANCH  33  35
ATOM     35  O   UNL     1       7.981   0.523  28.103  0.00  0.00    +0.000 OA
ATOM     36  H   UNL     1       8.419   0.186  28.906  0.00  0.00    +0.000 HD
ENDBRANCH  33  35
ENDBRANCH  32  33
ENDBRANCH  10  32
BRANCH  17  37
ATOM     37  C   UNL     1       4.599  -7.179  27.513  0.00  0.00    +0.000 C 
BRANCH  37  38
ATOM     38  C   UNL     1       5.657  -6.769  28.613  0.00  0.00    +0.000 C 
ATOM     39  O   UNL     1       5.372  -6.873  29.796  0.00  0.00    +0.000 OA
BRANCH  38  40
ATOM     40  O   UNL     1       6.850  -6.180  28.351  0.00  0.00    +0.000 OA
ATOM     41  H   UNL     1       7.110  -5.279  28.565  0.00  0.00    +0.000 HD
ENDBRANCH  38  40
ENDBRANCH  37  38
ENDBRANCH  17  37
BRANCH  24  42
ATOM     42  C   UNL     1       5.036   4.712  25.626  0.00  0.00    +0.000 C 
BRANCH  42  43
ATOM     43  C   UNL     1       6.174   5.223  26.526  0.00  0.00    +0.000 C 
BRANCH  43  44
ATOM     44  C   UNL     1       7.370   4.273  26.566  0.00  0.00    +0.000 C 
ATOM     45  O   UNL     1       8.225   4.335  25.696  0.00  0.00    +0.000 OA
BRANCH  44  46
ATOM     46  O   UNL     1       7.532   3.375  27.565  0.00  0.00    +0.000 OA
ATOM     47  H   UNL     1       7.282   2.445  27.481  0.00  0.00    +0.000 HD
ENDBRANCH  44  46
ENDBRANCH  43  44
ENDBRANCH  42  43
ENDBRANCH  24  42
BRANCH  31  48
ATOM     48  C   UNL     1       9.932   1.334  22.822  0.00  0.00    +0.000 C 
BRANCH  48  49
ATOM     49  C   UNL     1      10.925   2.345  23.704  0.00  0.00    +0.000 C 
BRANCH  49  50
ATOM     50  C   UNL     1      11.046   3.832  23.386  0.00  0.00    +0.000 C 
ATOM     51  O   UNL     1      12.155   4.334  23.223  0.00  0.00    +0.000 OA
BRANCH  50  52
ATOM     52  O   UNL     1       9.970   4.627  23.310  0.00  0.00    +0.000 OA
ATOM     53  H   UNL     1       9.917   5.319  22.645  0.00  0.00    +0.000 HD
ENDBRANCH  50  52
ENDBRANCH  49  50
ENDBRANCH  48  49
ENDBRANCH  31  48
TORSDOF 14
ENDMDL
MODEL 3
REMARK VINA RESULT:      -6.2      2.931      9.234
REMARK  Name = 
REMARK  18 active torsions:
REMARK  status: ('A' for Active; 'I' for Inactive)
REMARK    1  A    between atoms: C_1  and  C_2
REMARK    2  A    between atoms: C_3  and  C_4
REMARK    3  A    between atoms: C_4  and  C_5
REMARK    4  A    between atoms: C_5  and  C_6
REMARK    5  A    between atoms: C_6  and  O_7
REMARK    6  A    between atoms: C_12  and  C_13
REMARK    7  A    between atoms: C_13  and  C_14
REMARK    8  A    between atoms: C_14  and  C_15
REMARK    9  A    between atoms: C_15  and  O_16
REMARK   10  A    between atoms: C_18  and  C_19
REMARK   11  A    between atoms: C_36  and  C_37
REMARK   12  A    between atoms: C_36  and  C_38
REMARK   13  A    between atoms: C_38  and  C_39
REMARK   14  A    between atoms: C_39  and  O_40
REMARK   15  A    between atoms: C_44  and  C_45
REMARK   16  A    between atoms: C_44  and  C_46
REMARK   17  A    between atoms: C_46  and  C_47
REMARK   18  A    between atoms: C_47  and  O_48
REMARK                            x       y       z     vdW  Elec       q    Type
REMARK                         _______ _______ _______ _____ _____    ______ ____
ROOT
ATOM      1  C   UNL     1      12.004   2.176  23.763  0.00  0.00    +0.000 C 
ATOM      2  C   UNL     1      10.362   1.867  23.647  0.00  0.00    +0.000 A 
ATOM      3  C   UNL     1       9.136   0.646  23.631  0.00  0.00    +0.000 A 
ATOM      4  N   UNL     1       7.991   1.565  23.558  0.00  0.00    +0.000 N 
ATOM      5 FE   UNL     1       5.218   0.359  24.156  0.00  0.00    +0.000 Fe
ATOM      6  N   UNL     1       4.791   2.442  24.153  0.00  0.00    +0.000 N 
ATOM      7  C   UNL     1       3.937   2.501  25.092  0.00  0.00    +0.000 A 
ATOM      8  C   UNL     1       3.997   1.333  26.036  0.00  0.00    +0.000 C 
ATOM      9  C   UNL     1       5.176   0.517  26.249  0.00  0.00    +0.000 C 
ATOM     10  C   UNL     1       6.691   0.459  25.398  0.00  0.00    +0.000 C 
ATOM     11  C   UNL     1       6.637  -0.066  23.195  0.00  0.00    +0.000 C 
ATOM     12  C   UNL     1       7.011  -0.698  26.318  0.00  0.00    +0.000 C 
ATOM     13  O   UNL     1       8.037  -1.380  26.304  0.00  0.00    +0.000 OA
ATOM     14  C   UNL     1       5.665  -1.221  26.508  0.00  0.00    +0.000 C 
ATOM     15  C   UNL     1       5.582  -2.668  26.505  0.00  0.00    +0.000 C 
ATOM     16  C   UNL     1       5.435  -3.129  25.253  0.00  0.00    +0.000 C 
ATOM     17  C   UNL     1       5.831  -4.780  25.133  0.00  0.00    +0.000 C 
ATOM     18  C   UNL     1       4.936  -6.278  25.681  0.00  0.00    +0.000 C 
ATOM     19  C   UNL     1       6.340  -4.161  23.766  0.00  0.00    +0.000 C 
ATOM     20  O   UNL     1       5.350  -4.397  23.024  0.00  0.00    +0.000 OA
ATOM     21  C   UNL     1       6.943  -2.520  23.798  0.00  0.00    +0.000 C 
ATOM     22  C   UNL     1       3.294   3.667  25.089  0.00  0.00    +0.000 A 
ATOM     23  C   UNL     1       1.876   3.610  25.568  0.00  0.00    +0.000 C 
ATOM     24  C   UNL     1       4.258   4.615  24.568  0.00  0.00    +0.000 A 
ATOM     25  C   UNL     1       5.352   3.742  24.005  0.00  0.00    +0.000 A 
ATOM     26  C   UNL     1       7.056   3.999  23.734  0.00  0.00    +0.000 C 
ATOM     27  N   UNL     1       5.745  -1.988  24.123  0.00  0.00    +1.000 N 
ATOM     28  N   UNL     1       4.790  -0.460  25.834  0.00  0.00    +1.000 N 
ATOM     29  C   UNL     1       8.218   3.013  23.558  0.00  0.00    +0.000 A 
ATOM     30  C   UNL     1       8.730  -1.199  23.705  0.00  0.00    +0.000 C 
ATOM     31  C   UNL     1       9.699   3.320  23.599  0.00  0.00    +0.000 A 
ENDROOT
BRANCH  10  32
ATOM     32  C   UNL     1       7.207   1.770  25.768  0.00  0.00    +0.000 C 
BRANCH  32  33
ATOM     33  C   UNL     1       7.203   2.444  27.043  0.00  0.00    +0.000 C 
ATOM     34  O   UNL     1       6.920   3.634  27.211  0.00  0.00    +0.000 OA
BRANCH  33  35
ATOM     35  O   UNL     1       7.701   1.684  27.982  0.00  0.00    +0.000 OA
ATOM     36  H   UNL     1       7.469   0.743  27.884  0.00  0.00    +0.000 HD
ENDBRANCH  33  35
ENDBRANCH  32  33
ENDBRANCH  10  32
BRANCH  17  37
ATOM     37  C   UNL     1       7.172  -5.461  25.514  0.00  0.00    +0.000 C 
BRANCH  37  38
ATOM     38  C   UNL     1       7.687  -4.864  26.884  0.00  0.00    +0.000 C 
ATOM     39  O   UNL     1       7.126  -5.165  27.925  0.00  0.00    +0.000 OA
BRANCH  38  40
ATOM     40  O   UNL     1       8.657  -3.923  26.996  0.00  0.00    +0.000 OA
ATOM     41  H   UNL     1       8.584  -3.065  27.424  0.00  0.00    +0.000 HD
ENDBRANCH  38  40
ENDBRANCH  37  38
ENDBRANCH  17  37
BRANCH  24  42
ATOM     42  C   UNL     1       3.987   6.138  24.813  0.00  0.00    +0.000 C 
BRANCH  42  43
ATOM     43  C   UNL     1       3.228   6.934  23.737  0.00  0.00    +0.000 C 
BRANCH  43  44
ATOM     44  C   UNL     1       3.612   6.523  22.316  0.00  0.00    +0.000 C 
ATOM     45  O   UNL     1       2.760   6.077  21.563  0.00  0.00    +0.000 OA
BRANCH  44  46
ATOM     46  O   UNL     1       4.872   6.669  21.848  0.00  0.00    +0.000 OA
ATOM     47  H   UNL     1       5.378   5.941  21.464  0.00  0.00    +0.000 HD
ENDBRANCH  44  46
ENDBRANCH  43  44
ENDBRANCH  42  43
ENDBRANCH  24  42
BRANCH  31  48
ATOM     48  C   UNL     1      10.372   5.003  23.725  0.00  0.00    +0.000 C 
BRANCH  48  49
ATOM     49  C   UNL     1      11.901   5.641  23.926  0.00  0.00    +0.000 C 
BRANCH  49  50
ATOM     50  C   UNL     1      13.015   5.393  22.913  0.00  0.00    +0.000 C 
ATOM     51  O   UNL     1      12.798   5.551  21.715  0.00  0.00    +0.000 OA
BRANCH  50  52
ATOM     52  O   UNL     1      14.230   4.972  23.290  0.00  0.00    +0.000 OA
ATOM     53  H   UNL     1      14.360   4.549  24.143  0.00  0.00    +0.000 HD
ENDBRANCH  50  52
ENDBRANCH  49  50
ENDBRANCH  48  49
ENDBRANCH  31  48
TORSDOF 14
ENDMDL
MODEL 4
REMARK VINA RESULT:      -6.2      2.907      9.117
REMARK  Name = 
REMARK  18 active torsions:
REMARK  status: ('A' for Active; 'I' for Inactive)
REMARK    1  A    between atoms: C_1  and  C_2
REMARK    2  A    between atoms: C_3  and  C_4
REMARK    3  A    between atoms: C_4  and  C_5
REMARK    4  A    between atoms: C_5  and  C_6
REMARK    5  A    between atoms: C_6  and  O_7
REMARK    6  A    between atoms: C_12  and  C_13
REMARK    7  A    between atoms: C_13  and  C_14
REMARK    8  A    between atoms: C_14  and  C_15
REMARK    9  A    between atoms: C_15  and  O_16
REMARK   10  A    between atoms: C_18  and  C_19
REMARK   11  A    between atoms: C_36  and  C_37
REMARK   12  A    between atoms: C_36  and  C_38
REMARK   13  A    between atoms: C_38  and  C_39
REMARK   14  A    between atoms: C_39  and  O_40
REMARK   15  A    between atoms: C_44  and  C_45
REMARK   16  A    between atoms: C_44  and  C_46
REMARK   17  A    between atoms: C_46  and  C_47
REMARK   18  A    between atoms: C_47  and  O_48
REMARK                            x       y       z     vdW  Elec       q    Type
REMARK                         _______ _______ _______ _____ _____    ______ ____
ROOT
ATOM      1  C   UNL     1      11.698   3.413  23.423  0.00  0.00    +0.000 C 
ATOM      2  C   UNL     1      10.097   2.920  23.392  0.00  0.00    +0.000 A 
ATOM      3  C   UNL     1       9.021   1.565  23.356  0.00  0.00    +0.000 A 
ATOM      4  N   UNL     1       7.777   2.344  23.435  0.00  0.00    +0.000 N 
ATOM      5 FE   UNL     1       5.212   0.774  24.114  0.00  0.00    +0.000 Fe
ATOM      6  N   UNL     1       4.552   2.785  24.312  0.00  0.00    +0.000 N 
ATOM      7  C   UNL     1       3.770   2.671  25.307  0.00  0.00    +0.000 A 
ATOM      8  C   UNL     1       4.034   1.451  26.145  0.00  0.00    +0.000 C 
ATOM      9  C   UNL     1       5.311   0.769  26.211  0.00  0.00    +0.000 C 
ATOM     10  C   UNL     1       6.754   0.956  25.259  0.00  0.00    +0.000 C 
ATOM     11  C   UNL     1       6.594   0.594  23.029  0.00  0.00    +0.000 C 
ATOM     12  C   UNL     1       7.272  -0.219  26.057  0.00  0.00    +0.000 C 
ATOM     13  O   UNL     1       8.366  -0.771  25.918  0.00  0.00    +0.000 OA
ATOM     14  C   UNL     1       6.013  -0.912  26.292  0.00  0.00    +0.000 C 
ATOM     15  C   UNL     1       6.095  -2.355  26.175  0.00  0.00    +0.000 C 
ATOM     16  C   UNL     1       5.908  -2.736  24.902  0.00  0.00    +0.000 C 
ATOM     17  C   UNL     1       6.480  -4.314  24.619  0.00  0.00    +0.000 C 
ATOM     18  C   UNL     1       5.805  -5.945  25.099  0.00  0.00    +0.000 C 
ATOM     19  C   UNL     1       6.810  -3.538  23.277  0.00  0.00    +0.000 C 
ATOM     20  O   UNL     1       5.800  -3.835  22.586  0.00  0.00    +0.000 OA
ATOM     21  C   UNL     1       7.222  -1.844  23.405  0.00  0.00    +0.000 C 
ATOM     22  C   UNL     1       3.000   3.748  25.444  0.00  0.00    +0.000 A 
ATOM     23  C   UNL     1       1.638   3.487  26.009  0.00  0.00    +0.000 C 
ATOM     24  C   UNL     1       3.807   4.841  24.940  0.00  0.00    +0.000 A 
ATOM     25  C   UNL     1       4.948   4.150  24.235  0.00  0.00    +0.000 A 
ATOM     26  C   UNL     1       6.586   4.628  23.874  0.00  0.00    +0.000 C 
ATOM     27  N   UNL     1       6.000  -1.485  23.852  0.00  0.00    +1.000 N 
ATOM     28  N   UNL     1       5.008  -0.213  25.744  0.00  0.00    +1.000 N 
ATOM     29  C   UNL     1       7.837   3.804  23.540  0.00  0.00    +0.000 A 
ATOM     30  C   UNL     1       8.835  -0.315  23.303  0.00  0.00    +0.000 C 
ATOM     31  C   UNL     1       9.272   4.283  23.508  0.00  0.00    +0.000 A 
ENDROOT
BRANCH  10  32
ATOM     32  C   UNL     1       7.144   2.289  25.702  0.00  0.00    +0.000 C 
BRANCH  32  33
ATOM     33  C   UNL     1       7.365   2.797  27.033  0.00  0.00    +0.000 C 
ATOM     34  O   UNL     1       7.176   2.158  28.073  0.00  0.00    +0.000 OA
BRANCH  33  35
ATOM     35  O   UNL     1       7.628   4.077  27.013  0.00  0.00    +0.000 OA
ATOM     36  H   UNL     1       8.455   4.296  26.546  0.00  0.00    +0.000 HD
ENDBRANCH  33  35
ENDBRANCH  32  33
ENDBRANCH  10  32
BRANCH  17  37
ATOM     37  C   UNL     1       7.914  -4.856  24.852  0.00  0.00    +0.000 C 
BRANCH  37  38
ATOM     38  C   UNL     1       8.270  -4.741  26.388  0.00  0.00    +0.000 C 
ATOM     39  O   UNL     1       9.023  -3.860  26.771  0.00  0.00    +0.000 OA
BRANCH  38  40
ATOM     40  O   UNL     1       7.893  -5.637  27.333  0.00  0.00    +0.000 OA
ATOM     41  H   UNL     1       7.002  -5.952  27.510  0.00  0.00    +0.000 HD
ENDBRANCH  38  40
ENDBRANCH  37  38
ENDBRANCH  17  37
BRANCH  24  42
ATOM     42  C   UNL     1       3.384   6.298  25.329  0.00  0.00    +0.000 C 
BRANCH  42  43
ATOM     43  C   UNL     1       3.743   6.821  26.730  0.00  0.00    +0.000 C 
BRANCH  43  44
ATOM     44  C   UNL     1       5.100   6.319  27.220  0.00  0.00    +0.000 C 
ATOM     45  O   UNL     1       5.152   5.487  28.113  0.00  0.00    +0.000 OA
BRANCH  44  46
ATOM     46  O   UNL     1       6.259   6.746  26.669  0.00  0.00    +0.000 OA
ATOM     47  H   UNL     1       6.298   7.440  25.999  0.00  0.00    +0.000 HD
ENDBRANCH  44  46
ENDBRANCH  43  44
ENDBRANCH  42  43
ENDBRANCH  24  42
BRANCH  31  48
ATOM     48  C   UNL     1       9.756   6.020  23.729  0.00  0.00    +0.000 C 
BRANCH  48  49
ATOM     49  C   UNL     1      10.487   6.885  24.953  0.00  0.00    +0.000 C 
BRANCH  49  50
ATOM     50  C   UNL     1      11.984   6.776  25.232  0.00  0.00    +0.000 C 
ATOM     51  O   UNL     1      12.427   7.108  26.328  0.00  0.00    +0.000 OA
BRANCH  50  52
ATOM     52  O   UNL     1      12.847   6.355  24.298  0.00  0.00    +0.000 OA
ATOM     53  H   UNL     1      13.709   6.769  24.204  0.00  0.00    +0.000 HD
ENDBRANCH  50  52
ENDBRANCH  49  50
ENDBRANCH  48  49
ENDBRANCH  31  48
TORSDOF 14
ENDMDL
MODEL 5
REMARK VINA RESULT:      -5.6      2.033      3.243
REMARK  Name = 
REMARK  18 active torsions:
REMARK  status: ('A' for Active; 'I' for Inactive)
REMARK    1  A    between atoms: C_1  and  C_2
REMARK    2  A    between atoms: C_3  and  C_4
REMARK    3  A    between atoms: C_4  and  C_5
REMARK    4  A    between atoms: C_5  and  C_6
REMARK    5  A    between atoms: C_6  and  O_7
REMARK    6  A    between atoms: C_12  and  C_13
REMARK    7  A    between atoms: C_13  and  C_14
REMARK    8  A    between atoms: C_14  and  C_15
REMARK    9  A    between atoms: C_15  and  O_16
REMARK   10  A    between atoms: C_18  and  C_19
REMARK   11  A    between atoms: C_36  and  C_37
REMARK   12  A    between atoms: C_36  and  C_38
REMARK   13  A    between atoms: C_38  and  C_39
REMARK   14  A    between atoms: C_39  and  O_40
REMARK   15  A    between atoms: C_44  and  C_45
REMARK   16  A    between atoms: C_44  and  C_46
REMARK   17  A    between atoms: C_46  and  C_47
REMARK   18  A    between atoms: C_47  and  O_48
REMARK                            x       y       z     vdW  Elec       q    Type
REMARK                         _______ _______ _______ _____ _____    ______ ____
ROOT
ATOM      1  C   UNL     1       3.623   0.575  30.484  0.00  0.00    +0.000 C 
ATOM      2  C   UNL     1       4.000   0.495  28.854  0.00  0.00    +0.000 A 
ATOM      3  C   UNL     1       4.437   1.397  27.443  0.00  0.00    +0.000 A 
ATOM      4  N   UNL     1       4.604   0.238  26.555  0.00  0.00    +0.000 N 
ATOM      5 FE   UNL     1       6.060   0.751  23.886  0.00  0.00    +0.000 Fe
ATOM      6  N   UNL     1       5.989  -1.373  23.937  0.00  0.00    +0.000 N 
ATOM      7  C   UNL     1       7.120  -1.651  23.430  0.00  0.00    +0.000 A 
ATOM      8  C   UNL     1       8.111  -0.523  23.509  0.00  0.00    +0.000 C 
ATOM      9  C   UNL     1       8.058   0.539  24.494  0.00  0.00    +0.000 C 
ATOM     10  C   UNL     1       6.826   0.969  25.643  0.00  0.00    +0.000 C 
ATOM     11  C   UNL     1       4.783   1.517  24.835  0.00  0.00    +0.000 C 
ATOM     12  C   UNL     1       7.720   2.146  25.960  0.00  0.00    +0.000 C 
ATOM     13  O   UNL     1       7.481   3.049  26.765  0.00  0.00    +0.000 OA
ATOM     14  C   UNL     1       8.325   2.337  24.649  0.00  0.00    +0.000 C 
ATOM     15  C   UNL     1       8.476   3.725  24.258  0.00  0.00    +0.000 C 
ATOM     16  C   UNL     1       7.362   4.168  23.655  0.00  0.00    +0.000 C 
ATOM     17  C   UNL     1       7.284   5.868  23.633  0.00  0.00    +0.000 C 
ATOM     18  C   UNL     1       8.193   7.103  22.635  0.00  0.00    +0.000 C 
ATOM     19  C   UNL     1       5.779   5.416  23.840  0.00  0.00    +0.000 C 
ATOM     20  O   UNL     1       5.368   5.433  22.650  0.00  0.00    +0.000 OA
ATOM     21  C   UNL     1       5.494   3.960  24.765  0.00  0.00    +0.000 C 
ATOM     22  C   UNL     1       7.192  -2.934  23.082  0.00  0.00    +0.000 A 
ATOM     23  C   UNL     1       8.052  -3.220  21.889  0.00  0.00    +0.000 C 
ATOM     24  C   UNL     1       6.340  -3.619  24.032  0.00  0.00    +0.000 A 
ATOM     25  C   UNL     1       5.574  -2.503  24.698  0.00  0.00    +0.000 A 
ATOM     26  C   UNL     1       4.816  -2.349  26.261  0.00  0.00    +0.000 C 
ATOM     27  N   UNL     1       6.092   3.157  23.860  0.00  0.00    +1.000 N 
ATOM     28  N   UNL     1       7.858   1.408  23.801  0.00  0.00    +1.000 N 
ATOM     29  C   UNL     1       4.411  -1.116  27.079  0.00  0.00    +0.000 A 
ATOM     30  C   UNL     1       4.787   3.094  26.689  0.00  0.00    +0.000 C 
ATOM     31  C   UNL     1       4.008  -1.071  28.537  0.00  0.00    +0.000 A 
ENDROOT
BRANCH  10  32
ATOM     32  C   UNL     1       6.917  -0.195  26.516  0.00  0.00    +0.000 C 
BRANCH  32  33
ATOM     33  C   UNL     1       8.071  -0.812  27.123  0.00  0.00    +0.000 C 
ATOM     34  O   UNL     1       8.438  -1.973  26.921  0.00  0.00    +0.000 OA
BRANCH  33  35
ATOM     35  O   UNL     1       8.587  -0.046  28.047  0.00  0.00    +0.000 OA
ATOM     36  H   UNL     1       8.710   0.878  27.761  0.00  0.00    +0.000 HD
ENDBRANCH  33  35
ENDBRANCH  32  33
ENDBRANCH  10  32
BRANCH  17  37
ATOM     37  C   UNL     1       7.334   6.833  24.846  0.00  0.00    +0.000 C 
BRANCH  37  38
ATOM     38  C   UNL     1       8.475   6.365  25.835  0.00  0.00    +0.000 C 
ATOM     39  O   UNL     1       9.644   6.578  25.555  0.00  0.00    +0.000 OA
BRANCH  38  40
ATOM     40  O   UNL     1       8.268   5.620  26.948  0.00  0.00    +0.000 OA
ATOM     41  H   UNL     1       7.493   5.089  27.154  0.00  0.00    +0.000 HD
ENDBRANCH  38  40
ENDBRANCH  37  38
ENDBRANCH  17  37
BRANCH  24  42
ATOM     42  C   UNL     1       6.513  -5.169  24.181  0.00  0.00    +0.000 C 
BRANCH  42  43
ATOM     43  C   UNL     1       7.082  -5.724  25.498  0.00  0.00    +0.000 C 
BRANCH  43  44
ATOM     44  C   UNL     1       8.529  -5.298  25.745  0.00  0.00    +0.000 C 
ATOM     45  O   UNL     1       9.334  -5.323  24.826  0.00  0.00    +0.000 OA
BRANCH  44  46
ATOM     46  O   UNL     1       8.945  -4.858  26.954  0.00  0.00    +0.000 OA
ATOM     47  H   UNL     1       9.200  -3.941  27.121  0.00  0.00    +0.000 HD
ENDBRANCH  44  46
ENDBRANCH  43  44
ENDBRANCH  42  43
ENDBRANCH  24  42
BRANCH  31  48
ATOM     48  C   UNL     1       3.789  -2.553  29.564  0.00  0.00    +0.000 C 
BRANCH  48  49
ATOM     49  C   UNL     1       4.305  -4.137  29.459  0.00  0.00    +0.000 C 
BRANCH  49  50
ATOM     50  C   UNL     1       3.610  -5.151  28.556  0.00  0.00    +0.000 C 
ATOM     51  O   UNL     1       4.147  -5.509  27.512  0.00  0.00    +0.000 OA
BRANCH  50  52
ATOM     52  O   UNL     1       2.400  -5.646  28.852  0.00  0.00    +0.000 OA
ATOM     53  H   UNL     1       2.279  -6.586  29.007  0.00  0.00    +0.000 HD
ENDBRANCH  50  52
ENDBRANCH  49  50
ENDBRANCH  48  49
ENDBRANCH  31  48
TORSDOF 14
ENDMDL
MODEL 6
REMARK VINA RESULT:      -5.6      2.295      5.071
REMARK  Name = 
REMARK  18 active torsions:
REMARK  status: ('A' for Active; 'I' for Inactive)
REMARK    1  A    between atoms: C_1  and  C_2
REMARK    2  A    between atoms: C_3  and  C_4
REMARK    3  A    between atoms: C_4  and  C_5
REMARK    4  A    between atoms: C_5  and  C_6
REMARK    5  A    between atoms: C_6  and  O_7
REMARK    6  A    between atoms: C_12  and  C_13
REMARK    7  A    between atoms: C_13  and  C_14
REMARK    8  A    between atoms: C_14  and  C_15
REMARK    9  A    between atoms: C_15  and  O_16
REMARK   10  A    between atoms: C_18  and  C_19
REMARK   11  A    between atoms: C_36  and  C_37
REMARK   12  A    between atoms: C_36  and  C_38
REMARK   13  A    between atoms: C_38  and  C_39
REMARK   14  A    between atoms: C_39  and  O_40
REMARK   15  A    between atoms: C_44  and  C_45
REMARK   16  A    between atoms: C_44  and  C_46
REMARK   17  A    between atoms: C_46  and  C_47
REMARK   18  A    between atoms: C_47  and  O_48
REMARK                            x       y       z     vdW  Elec       q    Type
REMARK                         _______ _______ _______ _____ _____    ______ ____
ROOT
ATOM      1  C   UNL     1       6.635  -6.753  22.250  0.00  0.00    +0.000 C 
ATOM      2  C   UNL     1       6.822  -5.617  23.467  0.00  0.00    +0.000 A 
ATOM      3  C   UNL     1       7.612  -4.154  23.946  0.00  0.00    +0.000 A 
ATOM      4  N   UNL     1       6.935  -4.021  25.244  0.00  0.00    +0.000 N 
ATOM      5 FE   UNL     1       7.177  -1.286  26.647  0.00  0.00    +0.000 Fe
ATOM      6  N   UNL     1       5.676  -2.238  27.814  0.00  0.00    +0.000 N 
ATOM      7  C   UNL     1       4.915  -1.251  28.057  0.00  0.00    +0.000 A 
ATOM      8  C   UNL     1       5.081  -0.110  27.093  0.00  0.00    +0.000 C 
ATOM      9  C   UNL     1       5.589  -0.252  25.742  0.00  0.00    +0.000 C 
ATOM     10  C   UNL     1       6.333  -1.603  24.940  0.00  0.00    +0.000 C 
ATOM     11  C   UNL     1       8.251  -2.422  25.825  0.00  0.00    +0.000 C 
ATOM     12  C   UNL     1       6.526  -0.642  23.789  0.00  0.00    +0.000 C 
ATOM     13  O   UNL     1       7.088  -0.887  22.720  0.00  0.00    +0.000 OA
ATOM     14  C   UNL     1       6.669   0.596  24.542  0.00  0.00    +0.000 C 
ATOM     15  C   UNL     1       7.689   1.491  24.030  0.00  0.00    +0.000 C 
ATOM     16  C   UNL     1       8.886   1.192  24.559  0.00  0.00    +0.000 C 
ATOM     17  C   UNL     1      10.165   1.847  23.647  0.00  0.00    +0.000 C 
ATOM     18  C   UNL     1      10.777   3.564  23.487  0.00  0.00    +0.000 C 
ATOM     19  C   UNL     1      10.724   0.452  24.149  0.00  0.00    +0.000 C 
ATOM     20  O   UNL     1      11.345   0.812  25.183  0.00  0.00    +0.000 OA
ATOM     21  C   UNL     1       9.583  -0.862  24.318  0.00  0.00    +0.000 C 
ATOM     22  C   UNL     1       4.049  -1.535  29.027  0.00  0.00    +0.000 A 
ATOM     23  C   UNL     1       3.655  -0.372  29.885  0.00  0.00    +0.000 C 
ATOM     24  C   UNL     1       3.811  -2.958  28.900  0.00  0.00    +0.000 A 
ATOM     25  C   UNL     1       4.900  -3.422  27.964  0.00  0.00    +0.000 A 
ATOM     26  C   UNL     1       5.026  -4.769  26.863  0.00  0.00    +0.000 C 
ATOM     27  N   UNL     1       8.896  -0.260  25.312  0.00  0.00    +1.000 N 
ATOM     28  N   UNL     1       6.545   0.339  25.852  0.00  0.00    +1.000 N 
ATOM     29  C   UNL     1       5.927  -5.006  25.644  0.00  0.00    +0.000 A 
ATOM     30  C   UNL     1       8.837  -2.788  23.491  0.00  0.00    +0.000 C 
ATOM     31  C   UNL     1       5.783  -6.080  24.589  0.00  0.00    +0.000 A 
ENDROOT
BRANCH  10  32
ATOM     32  C   UNL     1       5.181  -2.493  24.883  0.00  0.00    +0.000 C 
BRANCH  32  33
ATOM     33  C   UNL     1       4.489  -3.045  23.745  0.00  0.00    +0.000 C 
ATOM     34  O   UNL     1       4.923  -3.047  22.589  0.00  0.00    +0.000 OA
BRANCH  33  35
ATOM     35  O   UNL     1       3.268  -3.393  24.055  0.00  0.00    +0.000 OA
ATOM     36  H   UNL     1       2.626  -3.234  23.340  0.00  0.00    +0.000 HD
ENDBRANCH  33  35
ENDBRANCH  32  33
ENDBRANCH  10  32
BRANCH  17  37
ATOM     37  C   UNL     1      10.470   1.614  22.144  0.00  0.00    +0.000 C 
BRANCH  37  38
ATOM     38  C   UNL     1       9.187   1.020  21.439  0.00  0.00    +0.000 C 
ATOM     39  O   UNL     1       9.192  -0.135  21.043  0.00  0.00    +0.000 OA
BRANCH  38  40
ATOM     40  O   UNL     1       8.084   1.740  21.117  0.00  0.00    +0.000 OA
ATOM     41  H   UNL     1       7.961   2.298  20.344  0.00  0.00    +0.000 HD
ENDBRANCH  38  40
ENDBRANCH  37  38
ENDBRANCH  17  37
BRANCH  24  42
ATOM     42  C   UNL     1       2.543  -3.551  29.604  0.00  0.00    +0.000 C 
BRANCH  42  43
ATOM     43  C   UNL     1       1.229  -3.629  28.808  0.00  0.00    +0.000 C 
BRANCH  43  44
ATOM     44  C   UNL     1       1.400  -4.296  27.445  0.00  0.00    +0.000 C 
ATOM     45  O   UNL     1       1.438  -3.611  26.434  0.00  0.00    +0.000 OA
BRANCH  44  46
ATOM     46  O   UNL     1       1.546  -5.636  27.320  0.00  0.00    +0.000 OA
ATOM     47  H   UNL     1       0.803  -6.252  27.364  0.00  0.00    +0.000 HD
ENDBRANCH  44  46
ENDBRANCH  43  44
ENDBRANCH  42  43
ENDBRANCH  24  42
BRANCH  31  48
ATOM     48  C   UNL     1       4.550  -7.412  24.674  0.00  0.00    +0.000 C 
BRANCH  48  49
ATOM     49  C   UNL     1       2.915  -7.516  24.359  0.00  0.00    +0.000 C 
BRANCH  49  50
ATOM     50  C   UNL     1       2.139  -6.356  23.742  0.00  0.00    +0.000 C 
ATOM     51  O   UNL     1       2.467  -5.917  22.644  0.00  0.00    +0.000 OA
BRANCH  50  52
ATOM     52  O   UNL     1       1.118  -5.770  24.383  0.00  0.00    +0.000 OA
ATOM     53  H   UNL     1       0.557  -5.133  23.933  0.00  0.00    +0.000 HD
ENDBRANCH  50  52
ENDBRANCH  49  50
ENDBRANCH  48  49
ENDBRANCH  31  48
TORSDOF 14
ENDMDL
MODEL 7
REMARK VINA RESULT:      -5.6      1.954      8.965
REMARK  Name = 
REMARK  18 active torsions:
REMARK  status: ('A' for Active; 'I' for Inactive)
REMARK    1  A    between atoms: C_1  and  C_2
REMARK    2  A    between atoms: C_3  and  C_4
REMARK    3  A    between atoms: C_4  and  C_5
REMARK    4  A    between atoms: C_5  and  C_6
REMARK    5  A    between atoms: C_6  and  O_7
REMARK    6  A    between atoms: C_12  and  C_13
REMARK    7  A    between atoms: C_13  and  C_14
REMARK    8  A    between atoms: C_14  and  C_15
REMARK    9  A    between atoms: C_15  and  O_16
REMARK   10  A    between atoms: C_18  and  C_19
REMARK   11  A    between atoms: C_36  and  C_37
REMARK   12  A    between atoms: C_36  and  C_38
REMARK   13  A    between atoms: C_38  and  C_39
REMARK   14  A    between atoms: C_39  and  O_40
REMARK   15  A    between atoms: C_44  and  C_45
REMARK   16  A    between atoms: C_44  and  C_46
REMARK   17  A    between atoms: C_46  and  C_47
REMARK   18  A    between atoms: C_47  and  O_48
REMARK                            x       y       z     vdW  Elec       q    Type
REMARK                         _______ _______ _______ _____ _____    ______ ____
ROOT
ATOM      1  C   UNL     1       8.030  -5.397  21.964  0.00  0.00    +0.000 C 
ATOM      2  C   UNL     1       6.990  -4.402  22.821  0.00  0.00    +0.000 A 
ATOM      3  C   UNL     1       5.663  -4.340  23.930  0.00  0.00    +0.000 A 
ATOM      4  N   UNL     1       5.624  -2.876  24.055  0.00  0.00    +0.000 N 
ATOM      5 FE   UNL     1       3.964  -1.740  26.392  0.00  0.00    +0.000 Fe
ATOM      6  N   UNL     1       5.010  -0.013  25.725  0.00  0.00    +0.000 N 
ATOM      7  C   UNL     1       5.243   0.556  26.837  0.00  0.00    +0.000 A 
ATOM      8  C   UNL     1       5.176  -0.374  28.016  0.00  0.00    +0.000 C 
ATOM      9  C   UNL     1       5.385  -1.807  27.936  0.00  0.00    +0.000 C 
ATOM     10  C   UNL     1       5.523  -2.864  26.563  0.00  0.00    +0.000 C 
ATOM     11  C   UNL     1       3.767  -2.966  25.137  0.00  0.00    +0.000 C 
ATOM     12  C   UNL     1       5.572  -3.972  27.590  0.00  0.00    +0.000 C 
ATOM     13  O   UNL     1       5.641  -5.181  27.357  0.00  0.00    +0.000 OA
ATOM     14  C   UNL     1       4.740  -3.369  28.621  0.00  0.00    +0.000 C 
ATOM     15  C   UNL     1       3.829  -4.292  29.270  0.00  0.00    +0.000 C 
ATOM     16  C   UNL     1       2.678  -4.377  28.585  0.00  0.00    +0.000 C 
ATOM     17  C   UNL     1       1.798  -5.776  28.991  0.00  0.00    +0.000 C 
ATOM     18  C   UNL     1       0.825  -6.198  30.482  0.00  0.00    +0.000 C 
ATOM     19  C   UNL     1       1.533  -5.591  27.440  0.00  0.00    +0.000 C 
ATOM     20  O   UNL     1       0.444  -4.960  27.466  0.00  0.00    +0.000 OA
ATOM     21  C   UNL     1       2.825  -4.916  26.475  0.00  0.00    +0.000 C 
ATOM     22  C   UNL     1       5.636   1.816  26.663  0.00  0.00    +0.000 A 
ATOM     23  C   UNL     1       5.235   2.761  27.754  0.00  0.00    +0.000 C 
ATOM     24  C   UNL     1       6.328   1.811  25.391  0.00  0.00    +0.000 A 
ATOM     25  C   UNL     1       5.963   0.478  24.788  0.00  0.00    +0.000 A 
ATOM     26  C   UNL     1       6.753  -0.559  23.629  0.00  0.00    +0.000 C 
ATOM     27  N   UNL     1       2.784  -3.716  27.093  0.00  0.00    +1.000 N 
ATOM     28  N   UNL     1       4.348  -2.149  28.224  0.00  0.00    +1.000 N 
ATOM     29  C   UNL     1       6.601  -2.057  23.334  0.00  0.00    +0.000 A 
ATOM     30  C   UNL     1       4.410  -5.307  24.963  0.00  0.00    +0.000 C 
ATOM     31  C   UNL     1       7.516  -2.928  22.502  0.00  0.00    +0.000 A 
ENDROOT
BRANCH  10  32
ATOM     32  C   UNL     1       6.794  -2.383  26.037  0.00  0.00    +0.000 C 
BRANCH  32  33
ATOM     33  C   UNL     1       8.135  -2.570  26.533  0.00  0.00    +0.000 C 
ATOM     34  O   UNL     1       8.621  -3.658  26.858  0.00  0.00    +0.000 OA
BRANCH  33  35
ATOM     35  O   UNL     1       8.721  -1.425  26.759  0.00  0.00    +0.000 OA
ATOM     36  H   UNL     1       9.239  -1.097  26.001  0.00  0.00    +0.000 HD
ENDBRANCH  33  35
ENDBRANCH  32  33
ENDBRANCH  10  32
BRANCH  17  37
ATOM     37  C   UNL     1       2.271  -7.250  28.902  0.00  0.00    +0.000 C 
BRANCH  37  38
ATOM     38  C   UNL     1       3.792  -7.334  29.324  0.00  0.00    +0.000 C 
ATOM     39  O   UNL     1       4.111  -7.130  30.485  0.00  0.00    +0.000 OA
BRANCH  38  40
ATOM     40  O   UNL     1       4.822  -7.502  28.459  0.00  0.00    +0.000 OA
ATOM     41  H   UNL     1       5.147  -8.333  28.099  0.00  0.00    +0.000 HD
ENDBRANCH  38  40
ENDBRANCH  37  38
ENDBRANCH  17  37
BRANCH  24  42
ATOM     42  C   UNL     1       7.272   3.021  25.071  0.00  0.00    +0.000 C 
BRANCH  42  43
ATOM     43  C   UNL     1       6.836   4.030  23.996  0.00  0.00    +0.000 C 
BRANCH  43  44
ATOM     44  C   UNL     1       6.739   3.409  22.603  0.00  0.00    +0.000 C 
ATOM     45  O   UNL     1       5.661   3.006  22.192  0.00  0.00    +0.000 OA
BRANCH  44  46
ATOM     46  O   UNL     1       7.814   3.318  21.787  0.00  0.00    +0.000 OA
ATOM     47  H   UNL     1       8.663   3.734  21.988  0.00  0.00    +0.000 HD
ENDBRANCH  44  46
ENDBRANCH  43  44
ENDBRANCH  42  43
ENDBRANCH  24  42
BRANCH  31  48
ATOM     48  C   UNL     1       8.928  -2.285  21.556  0.00  0.00    +0.000 C 
BRANCH  48  49
ATOM     49  C   UNL     1      10.169  -1.219  21.885  0.00  0.00    +0.000 C 
BRANCH  49  50
ATOM     50  C   UNL     1      10.184  -0.367  23.151  0.00  0.00    +0.000 C 
ATOM     51  O   UNL     1      10.160   0.857  23.064  0.00  0.00    +0.000 OA
BRANCH  50  52
ATOM     52  O   UNL     1      10.257  -0.917  24.371  0.00  0.00    +0.000 OA
ATOM     53  H   UNL     1      10.683  -0.452  25.095  0.00  0.00    +0.000 HD
ENDBRANCH  50  52
ENDBRANCH  49  50
ENDBRANCH  48  49
ENDBRANCH  31  48
TORSDOF 14
ENDMDL
MODEL 8
REMARK VINA RESULT:      -5.4      2.599      5.303
REMARK  Name = 
REMARK  18 active torsions:
REMARK  status: ('A' for Active; 'I' for Inactive)
REMARK    1  A    between atoms: C_1  and  C_2
REMARK    2  A    between atoms: C_3  and  C_4
REMARK    3  A    between atoms: C_4  and  C_5
REMARK    4  A    between atoms: C_5  and  C_6
REMARK    5  A    between atoms: C_6  and  O_7
REMARK    6  A    between atoms: C_12  and  C_13
REMARK    7  A    between atoms: C_13  and  C_14
REMARK    8  A    between atoms: C_14  and  C_15
REMARK    9  A    between atoms: C_15  and  O_16
REMARK   10  A    between atoms: C_18  and  C_19
REMARK   11  A    between atoms: C_36  and  C_37
REMARK   12  A    between atoms: C_36  and  C_38
REMARK   13  A    between atoms: C_38  and  C_39
REMARK   14  A    between atoms: C_39  and  O_40
REMARK   15  A    between atoms: C_44  and  C_45
REMARK   16  A    between atoms: C_44  and  C_46
REMARK   17  A    between atoms: C_46  and  C_47
REMARK   18  A    between atoms: C_47  and  O_48
REMARK                            x       y       z     vdW  Elec       q    Type
REMARK                         _______ _______ _______ _____ _____    ______ ____
ROOT
ATOM      1  C   UNL     1      10.551  -2.461  23.343  0.00  0.00    +0.000 C 
ATOM      2  C   UNL     1       9.500  -1.881  24.512  0.00  0.00    +0.000 A 
ATOM      3  C   UNL     1       8.805  -0.471  25.234  0.00  0.00    +0.000 A 
ATOM      4  N   UNL     1       7.912  -1.184  26.158  0.00  0.00    +0.000 N 
ATOM      5 FE   UNL     1       5.689   0.487  27.487  0.00  0.00    +0.000 Fe
ATOM      6  N   UNL     1       5.099  -1.493  27.990  0.00  0.00    +0.000 N 
ATOM      7  C   UNL     1       3.837  -1.386  27.894  0.00  0.00    +0.000 A 
ATOM      8  C   UNL     1       3.392  -0.225  27.050  0.00  0.00    +0.000 C 
ATOM      9  C   UNL     1       4.199   0.384  26.011  0.00  0.00    +0.000 C 
ATOM     10  C   UNL     1       5.873   0.166  25.594  0.00  0.00    +0.000 C 
ATOM     11  C   UNL     1       7.420   0.645  27.177  0.00  0.00    +0.000 C 
ATOM     12  C   UNL     1       5.628   1.271  24.591  0.00  0.00    +0.000 C 
ATOM     13  O   UNL     1       6.464   1.769  23.834  0.00  0.00    +0.000 OA
ATOM     14  C   UNL     1       4.610   2.018  25.315  0.00  0.00    +0.000 C 
ATOM     15  C   UNL     1       4.751   3.459  25.227  0.00  0.00    +0.000 C 
ATOM     16  C   UNL     1       5.570   3.911  26.189  0.00  0.00    +0.000 C 
ATOM     17  C   UNL     1       6.163   5.468  25.840  0.00  0.00    +0.000 C 
ATOM     18  C   UNL     1       5.353   7.107  25.899  0.00  0.00    +0.000 C 
ATOM     19  C   UNL     1       7.380   4.742  26.550  0.00  0.00    +0.000 C 
ATOM     20  O   UNL     1       7.215   5.127  27.738  0.00  0.00    +0.000 OA
ATOM     21  C   UNL     1       7.562   3.024  26.283  0.00  0.00    +0.000 C 
ATOM     22  C   UNL     1       3.220  -2.426  28.451  0.00  0.00    +0.000 A 
ATOM     23  C   UNL     1       1.887  -2.119  29.062  0.00  0.00    +0.000 C 
ATOM     24  C   UNL     1       4.135  -3.534  28.271  0.00  0.00    +0.000 A 
ATOM     25  C   UNL     1       5.423  -2.872  27.848  0.00  0.00    +0.000 A 
ATOM     26  C   UNL     1       6.789  -3.420  26.912  0.00  0.00    +0.000 C 
ATOM     27  N   UNL     1       6.410   2.710  26.915  0.00  0.00    +1.000 N 
ATOM     28  N   UNL     1       4.343   1.402  26.476  0.00  0.00    +1.000 N 
ATOM     29  C   UNL     1       7.875  -2.649  26.150  0.00  0.00    +0.000 A 
ATOM     30  C   UNL     1       8.719   1.417  25.269  0.00  0.00    +0.000 C 
ATOM     31  C   UNL     1       8.861  -3.202  25.144  0.00  0.00    +0.000 A 
ENDROOT
BRANCH  10  32
ATOM     32  C   UNL     1       5.806  -1.206  25.106  0.00  0.00    +0.000 C 
BRANCH  32  33
ATOM     33  C   UNL     1       5.692  -1.709  23.760  0.00  0.00    +0.000 C 
ATOM     34  O   UNL     1       5.118  -2.755  23.444  0.00  0.00    +0.000 OA
BRANCH  33  35
ATOM     35  O   UNL     1       6.417  -1.008  22.929  0.00  0.00    +0.000 OA
ATOM     36  H   UNL     1       7.300  -1.389  22.768  0.00  0.00    +0.000 HD
ENDBRANCH  33  35
ENDBRANCH  32  33
ENDBRANCH  10  32
BRANCH  17  37
ATOM     37  C   UNL     1       6.951   5.919  24.584  0.00  0.00    +0.000 C 
BRANCH  37  38
ATOM     38  C   UNL     1       6.254   5.330  23.293  0.00  0.00    +0.000 C 
ATOM     39  O   UNL     1       6.850   4.522  22.598  0.00  0.00    +0.000 OA
BRANCH  38  40
ATOM     40  O   UNL     1       5.059   5.745  22.808  0.00  0.00    +0.000 OA
ATOM     41  H   UNL     1       4.425   5.225  22.305  0.00  0.00    +0.000 HD
ENDBRANCH  38  40
ENDBRANCH  37  38
ENDBRANCH  17  37
BRANCH  24  42
ATOM     42  C   UNL     1       3.563  -4.984  28.431  0.00  0.00    +0.000 C 
BRANCH  42  43
ATOM     43  C   UNL     1       3.631  -5.940  27.227  0.00  0.00    +0.000 C 
BRANCH  43  44
ATOM     44  C   UNL     1       4.924  -6.751  27.186  0.00  0.00    +0.000 C 
ATOM     45  O   UNL     1       5.664  -6.665  26.218  0.00  0.00    +0.000 OA
BRANCH  44  46
ATOM     46  O   UNL     1       5.298  -7.547  28.214  0.00  0.00    +0.000 OA
ATOM     47  H   UNL     1       5.678  -8.427  28.087  0.00  0.00    +0.000 HD
ENDBRANCH  44  46
ENDBRANCH  43  44
ENDBRANCH  42  43
ENDBRANCH  24  42
BRANCH  31  48
ATOM     48  C   UNL     1       9.023  -4.971  24.766  0.00  0.00    +0.000 C 
BRANCH  48  49
ATOM     49  C   UNL     1       8.290  -6.009  23.683  0.00  0.00    +0.000 C 
BRANCH  49  50
ATOM     50  C   UNL     1       7.048  -5.603  22.895  0.00  0.00    +0.000 C 
ATOM     51  O   UNL     1       7.154  -5.264  21.720  0.00  0.00    +0.000 OA
BRANCH  50  52
ATOM     52  O   UNL     1       5.833  -5.572  23.459  0.00  0.00    +0.000 OA
ATOM     53  H   UNL     1       5.311  -4.766  23.456  0.00  0.00    +0.000 HD
ENDBRANCH  50  52
ENDBRANCH  49  50
ENDBRANCH  48  49
ENDBRANCH  31  48
TORSDOF 14
ENDMDL
MODEL 9
REMARK VINA RESULT:      -5.1      2.202      9.333
REMARK  Name = 
REMARK  18 active torsions:
REMARK  status: ('A' for Active; 'I' for Inactive)
REMARK    1  A    between atoms: C_1  and  C_2
REMARK    2  A    between atoms: C_3  and  C_4
REMARK    3  A    between atoms: C_4  and  C_5
REMARK    4  A    between atoms: C_5  and  C_6
REMARK    5  A    between atoms: C_6  and  O_7
REMARK    6  A    between atoms: C_12  and  C_13
REMARK    7  A    between atoms: C_13  and  C_14
REMARK    8  A    between atoms: C_14  and  C_15
REMARK    9  A    between atoms: C_15  and  O_16
REMARK   10  A    between atoms: C_18  and  C_19
REMARK   11  A    between atoms: C_36  and  C_37
REMARK   12  A    between atoms: C_36  and  C_38
REMARK   13  A    between atoms: C_38  and  C_39
REMARK   14  A    between atoms: C_39  and  O_40
REMARK   15  A    between atoms: C_44  and  C_45
REMARK   16  A    between atoms: C_44  and  C_46
REMARK   17  A    between atoms: C_46  and  C_47
REMARK   18  A    between atoms: C_47  and  O_48
REMARK                            x       y       z     vdW  Elec       q    Type
REMARK                         _______ _______ _______ _____ _____    ______ ____
ROOT
ATOM      1  C   UNL     1      10.707  -0.761  23.035  0.00  0.00    +0.000 C 
ATOM      2  C   UNL     1       9.142  -0.519  23.582  0.00  0.00    +0.000 A 
ATOM      3  C   UNL     1       7.633  -1.271  23.971  0.00  0.00    +0.000 A 
ATOM      4  N   UNL     1       6.964  -0.054  24.453  0.00  0.00    +0.000 N 
ATOM      5 FE   UNL     1       4.351  -0.457  26.039  0.00  0.00    +0.000 Fe
ATOM      6  N   UNL     1       4.753   1.602  26.386  0.00  0.00    +0.000 N 
ATOM      7  C   UNL     1       4.377   1.707  27.595  0.00  0.00    +0.000 A 
ATOM      8  C   UNL     1       4.332   0.397  28.329  0.00  0.00    +0.000 C 
ATOM      9  C   UNL     1       5.119  -0.766  27.969  0.00  0.00    +0.000 C 
ATOM     10  C   UNL     1       6.095  -1.092  26.566  0.00  0.00    +0.000 C 
ATOM     11  C   UNL     1       5.070  -1.069  24.547  0.00  0.00    +0.000 C 
ATOM     12  C   UNL     1       6.269  -2.466  27.173  0.00  0.00    +0.000 C 
ATOM     13  O   UNL     1       6.894  -3.408  26.680  0.00  0.00    +0.000 OA
ATOM     14  C   UNL     1       4.989  -2.582  27.857  0.00  0.00    +0.000 C 
ATOM     15  C   UNL     1       4.382  -3.896  27.769  0.00  0.00    +0.000 C 
ATOM     16  C   UNL     1       3.640  -3.997  26.655  0.00  0.00    +0.000 C 
ATOM     17  C   UNL     1       3.327  -5.619  26.245  0.00  0.00    +0.000 C 
ATOM     18  C   UNL     1       2.200  -6.855  26.987  0.00  0.00    +0.000 C 
ATOM     19  C   UNL     1       3.506  -4.896  24.846  0.00  0.00    +0.000 C 
ATOM     20  O   UNL     1       2.305  -4.646  24.562  0.00  0.00    +0.000 OA
ATOM     21  C   UNL     1       4.640  -3.568  24.763  0.00  0.00    +0.000 C 
ATOM     22  C   UNL     1       4.255   2.983  27.955  0.00  0.00    +0.000 A 
ATOM     23  C   UNL     1       3.187   3.257  28.969  0.00  0.00    +0.000 C 
ATOM     24  C   UNL     1       5.247   3.683  27.164  0.00  0.00    +0.000 A 
ATOM     25  C   UNL     1       5.663   2.667  26.128  0.00  0.00    +0.000 A 
ATOM     26  C   UNL     1       7.123   2.445  25.202  0.00  0.00    +0.000 C 
ATOM     27  N   UNL     1       3.925  -2.783  25.597  0.00  0.00    +1.000 N 
ATOM     28  N   UNL     1       4.279  -1.459  27.670  0.00  0.00    +1.000 N 
ATOM     29  C   UNL     1       7.694   1.217  24.480  0.00  0.00    +0.000 A 
ATOM     30  C   UNL     1       6.630  -2.870  24.052  0.00  0.00    +0.000 C 
ATOM     31  C   UNL     1       9.093   1.039  23.933  0.00  0.00    +0.000 A 
ENDROOT
BRANCH  10  32
ATOM     32  C   UNL     1       7.154  -0.119  26.799  0.00  0.00    +0.000 C 
BRANCH  32  33
ATOM     33  C   UNL     1       8.411  -0.262  27.491  0.00  0.00    +0.000 C 
ATOM     34  O   UNL     1       9.326  -1.015  27.144  0.00  0.00    +0.000 OA
BRANCH  33  35
ATOM     35  O   UNL     1       8.400   0.377  28.631  0.00  0.00    +0.000 OA
ATOM     36  H   UNL     1       9.210   0.248  29.157  0.00  0.00    +0.000 HD
ENDBRANCH  33  35
ENDBRANCH  32  33
ENDBRANCH  10  32
BRANCH  17  37
ATOM     37  C   UNL     1       4.362  -6.744  25.981  0.00  0.00    +0.000 C 
BRANCH  37  38
ATOM     38  C   UNL     1       4.291  -7.169  24.460  0.00  0.00    +0.000 C 
ATOM     39  O   UNL     1       5.190  -6.849  23.699  0.00  0.00    +0.000 OA
BRANCH  38  40
ATOM     40  O   UNL     1       3.226  -7.776  23.880  0.00  0.00    +0.000 OA
ATOM     41  H   UNL     1       2.572  -8.333  24.312  0.00  0.00    +0.000 HD
ENDBRANCH  38  40
ENDBRANCH  37  38
ENDBRANCH  17  37
BRANCH  24  42
ATOM     42  C   UNL     1       5.664   5.121  27.625  0.00  0.00    +0.000 C 
BRANCH  42  43
ATOM     43  C   UNL     1       5.997   6.171  26.551  0.00  0.00    +0.000 C 
BRANCH  43  44
ATOM     44  C   UNL     1       7.396   5.996  25.964  0.00  0.00    +0.000 C 
ATOM     45  O   UNL     1       8.326   5.688  26.694  0.00  0.00    +0.000 OA
BRANCH  44  46
ATOM     46  O   UNL     1       7.637   6.140  24.640  0.00  0.00    +0.000 OA
ATOM     47  H   UNL     1       7.187   5.616  23.964  0.00  0.00    +0.000 HD
ENDBRANCH  44  46
ENDBRANCH  43  44
ENDBRANCH  42  43
ENDBRANCH  24  42
BRANCH  31  48
ATOM     48  C   UNL     1      10.337   2.363  23.910  0.00  0.00    +0.000 C 
BRANCH  48  49
ATOM     49  C   UNL     1      10.284   4.016  23.689  0.00  0.00    +0.000 C 
BRANCH  49  50
ATOM     50  C   UNL     1      11.542   4.830  23.403  0.00  0.00    +0.000 C 
ATOM     51  O   UNL     1      12.000   5.572  24.267  0.00  0.00    +0.000 OA
BRANCH  50  52
ATOM     52  O   UNL     1      12.154   4.787  22.211  0.00  0.00    +0.000 OA
ATOM     53  H   UNL     1      12.839   5.423  21.988  0.00  0.00    +0.000 HD
ENDBRANCH  50  52
ENDBRANCH  49  50
ENDBRANCH  48  49
ENDBRANCH  31  48
TORSDOF 14
ENDMDL
