MODEL 1
REMARK VINA RESULT:      -7.5      0.000      0.000
REMARK  Name = 
REMARK  4 active torsions:
REMARK  status: ('A' for Active; 'I' for Inactive)
REMARK    1  A    between atoms: O_1  and  C_2
REMARK    2  A    between atoms: C_12  and  O_13
REMARK    3  A    between atoms: C_14  and  O_15
REMARK    4  A    between atoms: C_21  and  O_22
REMARK                            x       y       z     vdW  Elec       q    Type
REMARK                         _______ _______ _______ _____ _____    ______ ____
ROOT
ATOM      1  C   UNL     1       7.691   0.813  22.553  0.00  0.00    +0.163 A 
ATOM      2  C   UNL     1       6.664   0.571  23.465  0.00  0.00    +0.202 A 
ATOM      3  C   UNL     1       6.733  -0.553  24.284  0.00  0.00    +0.185 A 
ATOM      4  O   UNL     1       5.686  -0.788  25.204  0.00  0.00    -0.418 OA
ATOM      5  C   UNL     1       5.666  -1.886  26.066  0.00  0.00    +0.345 A 
ATOM      6  C   UNL     1       6.813  -2.828  25.981  0.00  0.00    +0.074 A 
ATOM      7  C   UNL     1       7.839  -2.583  25.066  0.00  0.00    +0.047 A 
ATOM      8  C   UNL     1       8.912  -3.465  24.985  0.00  0.00    +0.185 A 
ATOM      9  O   UNL     1       9.953  -3.224  24.061  0.00  0.00    -0.418 OA
ATOM     10  C   UNL     1       9.975  -2.127  23.202  0.00  0.00    +0.345 A 
ATOM     11  O   UNL     1      10.887  -1.934  22.408  0.00  0.00    -0.244 OA
ATOM     12  C   UNL     1       8.827  -1.190  23.291  0.00  0.00    +0.074 A 
ATOM     13  C   UNL     1       8.970  -4.582  25.807  0.00  0.00    +0.202 A 
ATOM     14  C   UNL     1       7.944  -4.824  26.719  0.00  0.00    +0.163 A 
ATOM     15  C   UNL     1       6.860  -3.954  26.817  0.00  0.00    +0.065 A 
ATOM     16  O   UNL     1       4.750  -2.071  26.857  0.00  0.00    -0.244 OA
ATOM     17  C   UNL     1       7.803  -1.436  24.206  0.00  0.00    +0.047 A 
ATOM     18  C   UNL     1       8.775  -0.062  22.459  0.00  0.00    +0.065 A 
ENDROOT
BRANCH   1  19
ATOM     19  O   UNL     1       7.626   1.916  21.749  0.00  0.00    -0.503 OA
ATOM     20  H   UNL     1       8.376   2.504  21.934  0.00  0.00    +0.292 HD
ENDBRANCH   1  19
BRANCH   2  21
ATOM     21  O   UNL     1       5.607   1.431  23.551  0.00  0.00    -0.501 OA
ATOM     22  H   UNL     1       4.900   0.991  24.055  0.00  0.00    +0.292 HD
ENDBRANCH   2  21
BRANCH  13  23
ATOM     23  O   UNL     1      10.022  -5.450  25.730  0.00  0.00    -0.501 OA
ATOM     24  H   UNL     1      10.718  -4.972  25.235  0.00  0.00    +0.292 HD
ENDBRANCH  13  23
BRANCH  14  25
ATOM     25  O   UNL     1       8.046  -5.936  27.507  0.00  0.00    -0.503 OA
ATOM     26  H   UNL     1       8.986  -6.176  27.598  0.00  0.00    +0.292 HD
ENDBRANCH  14  25
TORSDOF 4
ENDMDL
MODEL 2
REMARK VINA RESULT:      -7.5      0.075      6.255
REMARK  Name = 
REMARK  4 active torsions:
REMARK  status: ('A' for Active; 'I' for Inactive)
REMARK    1  A    between atoms: O_1  and  C_2
REMARK    2  A    between atoms: C_12  and  O_13
REMARK    3  A    between atoms: C_14  and  O_15
REMARK    4  A    between atoms: C_21  and  O_22
REMARK                            x       y       z     vdW  Elec       q    Type
REMARK                         _______ _______ _______ _____ _____    ______ ____
ROOT
ATOM      1  C   UNL     1       7.917  -4.888  26.692  0.00  0.00    +0.163 A 
ATOM      2  C   UNL     1       8.944  -4.626  25.785  0.00  0.00    +0.202 A 
ATOM      3  C   UNL     1       8.870  -3.490  24.984  0.00  0.00    +0.185 A 
ATOM      4  O   UNL     1       9.917  -3.235  24.069  0.00  0.00    -0.418 OA
ATOM      5  C   UNL     1       9.933  -2.124  23.224  0.00  0.00    +0.345 A 
ATOM      6  C   UNL     1       8.779  -1.192  23.319  0.00  0.00    +0.074 A 
ATOM      7  C   UNL     1       7.752  -1.457  24.227  0.00  0.00    +0.047 A 
ATOM      8  C   UNL     1       6.672  -0.585  24.316  0.00  0.00    +0.185 A 
ATOM      9  O   UNL     1       5.628  -0.848  25.232  0.00  0.00    -0.418 OA
ATOM     10  C   UNL     1       5.613  -1.956  26.077  0.00  0.00    +0.345 A 
ATOM     11  O   UNL     1       4.700  -2.167  26.865  0.00  0.00    -0.244 OA
ATOM     12  C   UNL     1       6.768  -2.884  25.977  0.00  0.00    +0.074 A 
ATOM     13  C   UNL     1       6.608   0.544  23.512  0.00  0.00    +0.202 A 
ATOM     14  C   UNL     1       7.636   0.806  22.606  0.00  0.00    +0.163 A 
ATOM     15  C   UNL     1       8.727  -0.054  22.501  0.00  0.00    +0.065 A 
ATOM     16  O   UNL     1      10.849  -1.921  22.439  0.00  0.00    -0.244 OA
ATOM     17  C   UNL     1       7.793  -2.617  25.070  0.00  0.00    +0.047 A 
ATOM     18  C   UNL     1       6.826  -4.023  26.793  0.00  0.00    +0.065 A 
ENDROOT
BRANCH   1  19
ATOM     19  O   UNL     1       7.988  -6.001  27.481  0.00  0.00    -0.503 OA
ATOM     20  H   UNL     1       7.181  -6.531  27.378  0.00  0.00    +0.292 HD
ENDBRANCH   1  19
BRANCH   2  21
ATOM     21  O   UNL     1      10.009  -5.476  25.691  0.00  0.00    -0.501 OA
ATOM     22  H   UNL     1      10.045  -5.815  24.780  0.00  0.00    +0.292 HD
ENDBRANCH   2  21
BRANCH  13  23
ATOM     23  O   UNL     1       5.549   1.402  23.597  0.00  0.00    -0.501 OA
ATOM     24  H   UNL     1       5.447   1.781  22.700  0.00  0.00    +0.292 HD
ENDBRANCH  13  23
BRANCH  14  25
ATOM     25  O   UNL     1       7.529   1.931  21.837  0.00  0.00    -0.503 OA
ATOM     26  H   UNL     1       7.849   2.697  22.347  0.00  0.00    +0.292 HD
ENDBRANCH  14  25
TORSDOF 4
ENDMDL
MODEL 3
REMARK VINA RESULT:      -7.2      3.459      4.422
REMARK  Name = 
REMARK  4 active torsions:
REMARK  status: ('A' for Active; 'I' for Inactive)
REMARK    1  A    between atoms: O_1  and  C_2
REMARK    2  A    between atoms: C_12  and  O_13
REMARK    3  A    between atoms: C_14  and  O_15
REMARK    4  A    between atoms: C_21  and  O_22
REMARK                            x       y       z     vdW  Elec       q    Type
REMARK                         _______ _______ _______ _____ _____    ______ ____
ROOT
ATOM      1  C   UNL     1       8.736  -2.275  22.793  0.00  0.00    +0.163 A 
ATOM      2  C   UNL     1       8.823  -2.643  24.136  0.00  0.00    +0.202 A 
ATOM      3  C   UNL     1       7.933  -3.587  24.641  0.00  0.00    +0.185 A 
ATOM      4  O   UNL     1       8.032  -3.952  26.004  0.00  0.00    -0.418 OA
ATOM      5  C   UNL     1       7.185  -4.888  26.601  0.00  0.00    +0.345 A 
ATOM      6  C   UNL     1       6.147  -5.504  25.734  0.00  0.00    +0.074 A 
ATOM      7  C   UNL     1       6.062  -5.133  24.391  0.00  0.00    +0.047 A 
ATOM      8  C   UNL     1       5.090  -5.709  23.579  0.00  0.00    +0.185 A 
ATOM      9  O   UNL     1       4.996  -5.338  22.219  0.00  0.00    -0.418 OA
ATOM     10  C   UNL     1       5.842  -4.405  21.621  0.00  0.00    +0.345 A 
ATOM     11  O   UNL     1       5.747  -4.096  20.441  0.00  0.00    -0.244 OA
ATOM     12  C   UNL     1       6.877  -3.792  22.492  0.00  0.00    +0.074 A 
ATOM     13  C   UNL     1       4.207  -6.649  24.094  0.00  0.00    +0.202 A 
ATOM     14  C   UNL     1       4.295  -7.018  25.436  0.00  0.00    +0.163 A 
ATOM     15  C   UNL     1       5.261  -6.453  26.267  0.00  0.00    +0.065 A 
ATOM     16  O   UNL     1       7.287  -5.191  27.782  0.00  0.00    -0.244 OA
ATOM     17  C   UNL     1       6.961  -4.164  23.834  0.00  0.00    +0.047 A 
ATOM     18  C   UNL     1       7.766  -2.844  21.966  0.00  0.00    +0.065 A 
ENDROOT
BRANCH   1  19
ATOM     19  O   UNL     1       9.609  -1.350  22.295  0.00  0.00    -0.503 OA
ATOM     20  H   UNL     1       9.401  -1.167  21.364  0.00  0.00    +0.292 HD
ENDBRANCH   1  19
BRANCH   2  21
ATOM     21  O   UNL     1       9.774  -2.083  24.940  0.00  0.00    -0.501 OA
ATOM     22  H   UNL     1      10.591  -2.604  24.849  0.00  0.00    +0.292 HD
ENDBRANCH   2  21
BRANCH  13  23
ATOM     23  O   UNL     1       3.252  -7.217  23.300  0.00  0.00    -0.501 OA
ATOM     24  H   UNL     1       3.643  -8.055  22.980  0.00  0.00    +0.292 HD
ENDBRANCH  13  23
BRANCH  14  25
ATOM     25  O   UNL     1       3.405  -7.947  25.896  0.00  0.00    -0.503 OA
ATOM     26  H   UNL     1       2.956  -8.361  25.137  0.00  0.00    +0.292 HD
ENDBRANCH  14  25
TORSDOF 4
ENDMDL
MODEL 4
REMARK VINA RESULT:      -7.2      3.411      6.089
REMARK  Name = 
REMARK  4 active torsions:
REMARK  status: ('A' for Active; 'I' for Inactive)
REMARK    1  A    between atoms: O_1  and  C_2
REMARK    2  A    between atoms: C_12  and  O_13
REMARK    3  A    between atoms: C_14  and  O_15
REMARK    4  A    between atoms: C_21  and  O_22
REMARK                            x       y       z     vdW  Elec       q    Type
REMARK                         _______ _______ _______ _____ _____    ______ ____
ROOT
ATOM      1  C   UNL     1       4.312  -6.975  25.469  0.00  0.00    +0.163 A 
ATOM      2  C   UNL     1       4.217  -6.595  24.131  0.00  0.00    +0.202 A 
ATOM      3  C   UNL     1       5.109  -5.654  23.625  0.00  0.00    +0.185 A 
ATOM      4  O   UNL     1       5.002  -5.278  22.266  0.00  0.00    -0.418 OA
ATOM      5  C   UNL     1       5.850  -4.344  21.669  0.00  0.00    +0.345 A 
ATOM      6  C   UNL     1       6.898  -3.739  22.532  0.00  0.00    +0.074 A 
ATOM      7  C   UNL     1       6.991  -4.120  23.873  0.00  0.00    +0.047 A 
ATOM      8  C   UNL     1       7.971  -3.554  24.682  0.00  0.00    +0.185 A 
ATOM      9  O   UNL     1       8.070  -3.933  26.039  0.00  0.00    -0.418 OA
ATOM     10  C   UNL     1       7.225  -4.868  26.636  0.00  0.00    +0.345 A 
ATOM     11  O   UNL     1       7.326  -5.185  27.813  0.00  0.00    -0.244 OA
ATOM     12  C   UNL     1       6.180  -5.468  25.768  0.00  0.00    +0.074 A 
ATOM     13  C   UNL     1       8.856  -2.616  24.167  0.00  0.00    +0.202 A 
ATOM     14  C   UNL     1       8.760  -2.238  22.828  0.00  0.00    +0.163 A 
ATOM     15  C   UNL     1       7.786  -2.793  22.000  0.00  0.00    +0.065 A 
ATOM     16  O   UNL     1       5.742  -4.032  20.490  0.00  0.00    -0.244 OA
ATOM     17  C   UNL     1       6.089  -5.087  24.430  0.00  0.00    +0.047 A 
ATOM     18  C   UNL     1       5.290  -6.415  26.295  0.00  0.00    +0.065 A 
ENDROOT
BRANCH   1  19
ATOM     19  O   UNL     1       3.438  -7.899  25.968  0.00  0.00    -0.503 OA
ATOM     20  H   UNL     1       3.029  -7.562  26.781  0.00  0.00    +0.292 HD
ENDBRANCH   1  19
BRANCH   2  21
ATOM     21  O   UNL     1       3.258  -7.146  23.329  0.00  0.00    -0.501 OA
ATOM     22  H   UNL     1       3.620  -7.962  22.942  0.00  0.00    +0.292 HD
ENDBRANCH   2  21
BRANCH  13  23
ATOM     23  O   UNL     1       9.818  -2.058  24.958  0.00  0.00    -0.501 OA
ATOM     24  H   UNL     1      10.048  -2.747  25.615  0.00  0.00    +0.292 HD
ENDBRANCH  13  23
BRANCH  14  25
ATOM     25  O   UNL     1       9.654  -1.313  22.367  0.00  0.00    -0.503 OA
ATOM     26  H   UNL     1       9.201  -0.715  21.745  0.00  0.00    +0.292 HD
ENDBRANCH  14  25
TORSDOF 4
ENDMDL
MODEL 5
REMARK VINA RESULT:      -7.1      3.744      5.708
REMARK  Name = 
REMARK  4 active torsions:
REMARK  status: ('A' for Active; 'I' for Inactive)
REMARK    1  A    between atoms: O_1  and  C_2
REMARK    2  A    between atoms: C_12  and  O_13
REMARK    3  A    between atoms: C_14  and  O_15
REMARK    4  A    between atoms: C_21  and  O_22
REMARK                            x       y       z     vdW  Elec       q    Type
REMARK                         _______ _______ _______ _____ _____    ______ ____
ROOT
ATOM      1  C   UNL     1       8.748  -4.009  24.315  0.00  0.00    +0.163 A 
ATOM      2  C   UNL     1       8.411  -4.759  25.442  0.00  0.00    +0.202 A 
ATOM      3  C   UNL     1       7.120  -5.264  25.562  0.00  0.00    +0.185 A 
ATOM      4  O   UNL     1       6.791  -6.022  26.709  0.00  0.00    -0.418 OA
ATOM      5  C   UNL     1       5.523  -6.570  26.919  0.00  0.00    +0.345 A 
ATOM      6  C   UNL     1       4.503  -6.322  25.868  0.00  0.00    +0.074 A 
ATOM      7  C   UNL     1       4.842  -5.570  24.741  0.00  0.00    +0.047 A 
ATOM      8  C   UNL     1       3.886  -5.337  23.757  0.00  0.00    +0.185 A 
ATOM      9  O   UNL     1       4.222  -4.576  22.615  0.00  0.00    -0.418 OA
ATOM     10  C   UNL     1       5.488  -4.031  22.404  0.00  0.00    +0.345 A 
ATOM     11  O   UNL     1       5.761  -3.375  21.407  0.00  0.00    -0.244 OA
ATOM     12  C   UNL     1       6.504  -4.282  23.457  0.00  0.00    +0.074 A 
ATOM     13  C   UNL     1       2.601  -5.845  23.887  0.00  0.00    +0.202 A 
ATOM     14  C   UNL     1       2.265  -6.596  25.014  0.00  0.00    +0.163 A 
ATOM     15  C   UNL     1       3.207  -6.841  26.011  0.00  0.00    +0.065 A 
ATOM     16  O   UNL     1       5.259  -7.224  27.919  0.00  0.00    -0.244 OA
ATOM     17  C   UNL     1       6.163  -5.033  24.582  0.00  0.00    +0.047 A 
ATOM     18  C   UNL     1       7.800  -3.766  23.319  0.00  0.00    +0.065 A 
ENDROOT
BRANCH   1  19
ATOM     19  O   UNL     1      10.015  -3.513  24.195  0.00  0.00    -0.503 OA
ATOM     20  H   UNL     1      10.030  -2.578  24.453  0.00  0.00    +0.292 HD
ENDBRANCH   1  19
BRANCH   2  21
ATOM     21  O   UNL     1       9.343  -4.993  26.413  0.00  0.00    -0.501 OA
ATOM     22  H   UNL     1       9.898  -5.738  26.124  0.00  0.00    +0.292 HD
ENDBRANCH   2  21
BRANCH  13  23
ATOM     23  O   UNL     1       1.661  -5.618  22.924  0.00  0.00    -0.501 OA
ATOM     24  H   UNL     1       1.439  -6.500  22.563  0.00  0.00    +0.292 HD
ENDBRANCH  13  23
BRANCH  14  25
ATOM     25  O   UNL     1       0.989  -7.076  25.096  0.00  0.00    -0.503 OA
ATOM     26  H   UNL     1       0.612  -7.135  24.200  0.00  0.00    +0.292 HD
ENDBRANCH  14  25
TORSDOF 4
ENDMDL
MODEL 6
REMARK VINA RESULT:      -7.1      3.723      6.246
REMARK  Name = 
REMARK  4 active torsions:
REMARK  status: ('A' for Active; 'I' for Inactive)
REMARK    1  A    between atoms: O_1  and  C_2
REMARK    2  A    between atoms: C_12  and  O_13
REMARK    3  A    between atoms: C_14  and  O_15
REMARK    4  A    between atoms: C_21  and  O_22
REMARK                            x       y       z     vdW  Elec       q    Type
REMARK                         _______ _______ _______ _____ _____    ______ ____
ROOT
ATOM      1  C   UNL     1       2.272  -6.589  25.089  0.00  0.00    +0.163 A 
ATOM      2  C   UNL     1       2.601  -5.847  23.954  0.00  0.00    +0.202 A 
ATOM      3  C   UNL     1       3.894  -5.349  23.818  0.00  0.00    +0.185 A 
ATOM      4  O   UNL     1       4.215  -4.599  22.663  0.00  0.00    -0.418 OA
ATOM      5  C   UNL     1       5.483  -4.060  22.437  0.00  0.00    +0.345 A 
ATOM      6  C   UNL     1       6.513  -4.306  23.480  0.00  0.00    +0.074 A 
ATOM      7  C   UNL     1       6.181  -5.048  24.616  0.00  0.00    +0.047 A 
ATOM      8  C   UNL     1       7.144  -5.277  25.592  0.00  0.00    +0.185 A 
ATOM      9  O   UNL     1       6.815  -6.026  26.744  0.00  0.00    -0.418 OA
ATOM     10  C   UNL     1       5.550  -6.567  26.970  0.00  0.00    +0.345 A 
ATOM     11  O   UNL     1       5.284  -7.214  27.974  0.00  0.00    -0.244 OA
ATOM     12  C   UNL     1       4.525  -6.318  25.925  0.00  0.00    +0.074 A 
ATOM     13  C   UNL     1       8.431  -4.776  25.446  0.00  0.00    +0.202 A 
ATOM     14  C   UNL     1       8.759  -4.036  24.311  0.00  0.00    +0.163 A 
ATOM     15  C   UNL     1       7.809  -3.794  23.320  0.00  0.00    +0.065 A 
ATOM     16  O   UNL     1       5.741  -3.414  21.430  0.00  0.00    -0.244 OA
ATOM     17  C   UNL     1       4.859  -5.577  24.791  0.00  0.00    +0.047 A 
ATOM     18  C   UNL     1       3.228  -6.828  26.078  0.00  0.00    +0.065 A 
ENDROOT
BRANCH   1  19
ATOM     19  O   UNL     1       1.004  -7.079  25.224  0.00  0.00    -0.503 OA
ATOM     20  H   UNL     1       0.874  -7.828  24.621  0.00  0.00    +0.292 HD
ENDBRANCH   1  19
BRANCH   2  21
ATOM     21  O   UNL     1       1.661  -5.617  22.990  0.00  0.00    -0.501 OA
ATOM     22  H   UNL     1       1.592  -6.416  22.440  0.00  0.00    +0.292 HD
ENDBRANCH   2  21
BRANCH  13  23
ATOM     23  O   UNL     1       9.379  -5.000  26.403  0.00  0.00    -0.501 OA
ATOM     24  H   UNL     1      10.237  -4.835  25.964  0.00  0.00    +0.292 HD
ENDBRANCH  13  23
BRANCH  14  25
ATOM     25  O   UNL     1      10.038  -3.564  24.212  0.00  0.00    -0.503 OA
ATOM     26  H   UNL     1      10.012  -2.618  23.983  0.00  0.00    +0.292 HD
ENDBRANCH  14  25
TORSDOF 4
ENDMDL
MODEL 7
REMARK VINA RESULT:      -7.0      0.990      4.996
REMARK  Name = 
REMARK  4 active torsions:
REMARK  status: ('A' for Active; 'I' for Inactive)
REMARK    1  A    between atoms: O_1  and  C_2
REMARK    2  A    between atoms: C_12  and  O_13
REMARK    3  A    between atoms: C_14  and  O_15
REMARK    4  A    between atoms: C_21  and  O_22
REMARK                            x       y       z     vdW  Elec       q    Type
REMARK                         _______ _______ _______ _____ _____    ______ ____
ROOT
ATOM      1  C   UNL     1       6.801  -4.404  27.378  0.00  0.00    +0.163 A 
ATOM      2  C   UNL     1       6.046  -3.264  27.103  0.00  0.00    +0.202 A 
ATOM      3  C   UNL     1       6.440  -2.420  26.069  0.00  0.00    +0.185 A 
ATOM      4  O   UNL     1       5.667  -1.267  25.800  0.00  0.00    -0.418 OA
ATOM      5  C   UNL     1       5.981  -0.362  24.784  0.00  0.00    +0.345 A 
ATOM      6  C   UNL     1       7.190  -0.658  23.972  0.00  0.00    +0.074 A 
ATOM      7  C   UNL     1       7.945  -1.799  24.250  0.00  0.00    +0.047 A 
ATOM      8  C   UNL     1       9.078  -2.076  23.491  0.00  0.00    +0.185 A 
ATOM      9  O   UNL     1       9.847  -3.228  23.766  0.00  0.00    -0.418 OA
ATOM     10  C   UNL     1       9.532  -4.133  24.779  0.00  0.00    +0.345 A 
ATOM     11  O   UNL     1      10.210  -5.127  25.003  0.00  0.00    -0.244 OA
ATOM     12  C   UNL     1       8.323  -3.833  25.587  0.00  0.00    +0.074 A 
ATOM     13  C   UNL     1       9.461  -1.227  22.461  0.00  0.00    +0.202 A 
ATOM     14  C   UNL     1       8.705  -0.088  22.187  0.00  0.00    +0.163 A 
ATOM     15  C   UNL     1       7.567   0.208  22.935  0.00  0.00    +0.065 A 
ATOM     16  O   UNL     1       5.298   0.629  24.568  0.00  0.00    -0.244 OA
ATOM     17  C   UNL     1       7.571  -2.693  25.308  0.00  0.00    +0.047 A 
ATOM     18  C   UNL     1       7.941  -4.695  26.625  0.00  0.00    +0.065 A 
ENDROOT
BRANCH   1  19
ATOM     19  O   UNL     1       6.416  -5.234  28.392  0.00  0.00    -0.503 OA
ATOM     20  H   UNL     1       6.363  -6.148  28.069  0.00  0.00    +0.292 HD
ENDBRANCH   1  19
BRANCH   2  21
ATOM     21  O   UNL     1       4.933  -2.985  27.843  0.00  0.00    -0.501 OA
ATOM     22  H   UNL     1       4.709  -2.048  27.709  0.00  0.00    +0.292 HD
ENDBRANCH   2  21
BRANCH  13  23
ATOM     23  O   UNL     1      10.572  -1.495  21.714  0.00  0.00    -0.501 OA
ATOM     24  H   UNL     1      11.310  -1.550  22.355  0.00  0.00    +0.292 HD
ENDBRANCH  13  23
BRANCH  14  25
ATOM     25  O   UNL     1       9.122   0.716  21.163  0.00  0.00    -0.503 OA
ATOM     26  H   UNL     1       9.112   0.206  20.333  0.00  0.00    +0.292 HD
ENDBRANCH  14  25
TORSDOF 4
ENDMDL
MODEL 8
REMARK VINA RESULT:      -7.0      3.097      5.593
REMARK  Name = 
REMARK  4 active torsions:
REMARK  status: ('A' for Active; 'I' for Inactive)
REMARK    1  A    between atoms: O_1  and  C_2
REMARK    2  A    between atoms: C_12  and  O_13
REMARK    3  A    between atoms: C_14  and  O_15
REMARK    4  A    between atoms: C_21  and  O_22
REMARK                            x       y       z     vdW  Elec       q    Type
REMARK                         _______ _______ _______ _____ _____    ______ ____
ROOT
ATOM      1  C   UNL     1       4.896  -6.630  24.115  0.00  0.00    +0.163 A 
ATOM      2  C   UNL     1       5.598  -6.209  25.245  0.00  0.00    +0.202 A 
ATOM      3  C   UNL     1       6.535  -5.187  25.121  0.00  0.00    +0.185 A 
ATOM      4  O   UNL     1       7.240  -4.769  26.273  0.00  0.00    -0.418 OA
ATOM      5  C   UNL     1       8.199  -3.754  26.250  0.00  0.00    +0.345 A 
ATOM      6  C   UNL     1       8.461  -3.109  24.937  0.00  0.00    +0.074 A 
ATOM      7  C   UNL     1       7.758  -3.533  23.807  0.00  0.00    +0.047 A 
ATOM      8  C   UNL     1       8.004  -2.930  22.578  0.00  0.00    +0.185 A 
ATOM      9  O   UNL     1       7.297  -3.354  21.431  0.00  0.00    -0.418 OA
ATOM     10  C   UNL     1       6.339  -4.367  21.454  0.00  0.00    +0.345 A 
ATOM     11  O   UNL     1       5.735  -4.720  20.450  0.00  0.00    -0.244 OA
ATOM     12  C   UNL     1       6.080  -5.007  22.769  0.00  0.00    +0.074 A 
ATOM     13  C   UNL     1       8.942  -1.912  22.467  0.00  0.00    +0.202 A 
ATOM     14  C   UNL     1       9.642  -1.491  23.596  0.00  0.00    +0.163 A 
ATOM     15  C   UNL     1       9.411  -2.081  24.837  0.00  0.00    +0.065 A 
ATOM     16  O   UNL     1       8.797  -3.407  27.259  0.00  0.00    -0.244 OA
ATOM     17  C   UNL     1       6.784  -4.583  23.895  0.00  0.00    +0.047 A 
ATOM     18  C   UNL     1       5.132  -6.034  22.874  0.00  0.00    +0.065 A 
ENDROOT
BRANCH   1  19
ATOM     19  O   UNL     1       3.974  -7.631  24.234  0.00  0.00    -0.503 OA
ATOM     20  H   UNL     1       3.134  -7.270  24.560  0.00  0.00    +0.292 HD
ENDBRANCH   1  19
BRANCH   2  21
ATOM     21  O   UNL     1       5.362  -6.795  26.456  0.00  0.00    -0.501 OA
ATOM     22  H   UNL     1       5.288  -7.755  26.316  0.00  0.00    +0.292 HD
ENDBRANCH   2  21
BRANCH  13  23
ATOM     23  O   UNL     1       9.186  -1.319  21.262  0.00  0.00    -0.501 OA
ATOM     24  H   UNL     1       8.348  -1.389  20.762  0.00  0.00    +0.292 HD
ENDBRANCH  13  23
BRANCH  14  25
ATOM     25  O   UNL     1      10.554  -0.485  23.437  0.00  0.00    -0.503 OA
ATOM     26  H   UNL     1      10.175   0.345  23.777  0.00  0.00    +0.292 HD
ENDBRANCH  14  25
TORSDOF 4
ENDMDL
MODEL 9
REMARK VINA RESULT:      -7.0      2.409      5.356
REMARK  Name = 
REMARK  4 active torsions:
REMARK  status: ('A' for Active; 'I' for Inactive)
REMARK    1  A    between atoms: O_1  and  C_2
REMARK    2  A    between atoms: C_12  and  O_13
REMARK    3  A    between atoms: C_14  and  O_15
REMARK    4  A    between atoms: C_21  and  O_22
REMARK                            x       y       z     vdW  Elec       q    Type
REMARK                         _______ _______ _______ _____ _____    ______ ____
ROOT
ATOM      1  C   UNL     1       6.213  -5.568  25.743  0.00  0.00    +0.163 A 
ATOM      2  C   UNL     1       6.741  -4.608  26.607  0.00  0.00    +0.202 A 
ATOM      3  C   UNL     1       7.431  -3.522  26.077  0.00  0.00    +0.185 A 
ATOM      4  O   UNL     1       7.961  -2.556  26.962  0.00  0.00    -0.418 OA
ATOM      5  C   UNL     1       8.667  -1.433  26.526  0.00  0.00    +0.345 A 
ATOM      6  C   UNL     1       8.850  -1.283  25.059  0.00  0.00    +0.074 A 
ATOM      7  C   UNL     1       8.321  -2.246  24.196  0.00  0.00    +0.047 A 
ATOM      8  C   UNL     1       8.493  -2.106  22.823  0.00  0.00    +0.185 A 
ATOM      9  O   UNL     1       7.962  -3.076  21.944  0.00  0.00    -0.418 OA
ATOM     10  C   UNL     1       7.255  -4.197  22.379  0.00  0.00    +0.345 A 
ATOM     11  O   UNL     1       6.802  -5.027  21.603  0.00  0.00    -0.244 OA
ATOM     12  C   UNL     1       7.076  -4.342  23.846  0.00  0.00    +0.074 A 
ATOM     13  C   UNL     1       9.183  -1.018  22.305  0.00  0.00    +0.202 A 
ATOM     14  C   UNL     1       9.709  -0.059  23.169  0.00  0.00    +0.163 A 
ATOM     15  C   UNL     1       9.549  -0.179  24.548  0.00  0.00    +0.065 A 
ATOM     16  O   UNL     1       9.117  -0.608  27.310  0.00  0.00    -0.244 OA
ATOM     17  C   UNL     1       7.604  -3.379  24.705  0.00  0.00    +0.047 A 
ATOM     18  C   UNL     1       6.377  -5.442  24.362  0.00  0.00    +0.065 A 
ENDROOT
BRANCH   1  19
ATOM     19  O   UNL     1       5.535  -6.635  26.261  0.00  0.00    -0.503 OA
ATOM     20  H   UNL     1       4.580  -6.464  26.233  0.00  0.00    +0.292 HD
ENDBRANCH   1  19
BRANCH   2  21
ATOM     21  O   UNL     1       6.577  -4.738  27.957  0.00  0.00    -0.501 OA
ATOM     22  H   UNL     1       6.149  -5.595  28.128  0.00  0.00    +0.292 HD
ENDBRANCH   2  21
BRANCH  13  23
ATOM     23  O   UNL     1       9.353  -0.878  20.958  0.00  0.00    -0.501 OA
ATOM     24  H   UNL     1       8.979  -0.002  20.737  0.00  0.00    +0.292 HD
ENDBRANCH  13  23
BRANCH  14  25
ATOM     25  O   UNL     1      10.380   0.994  22.612  0.00  0.00    -0.503 OA
ATOM     26  H   UNL     1      11.265   0.697  22.335  0.00  0.00    +0.292 HD
ENDBRANCH  14  25
TORSDOF 4
ENDMDL
