MODEL 1
REMARK VINA RESULT:      -7.0      0.000      0.000
REMARK  Name = 
REMARK  9 active torsions:
REMARK  status: ('A' for Active; 'I' for Inactive)
REMARK    1  A    between atoms: C_2  and  C_5
REMARK    2  A    between atoms: C_5  and  O_6
REMARK    3  A    between atoms: O_6  and  C_7
REMARK    4  A    between atoms: C_9  and  C_10
REMARK    5  A    between atoms: N_12  and  C_13
REMARK    6  A    between atoms: C_13  and  C_14
REMARK    7  A    between atoms: C_20  and  O_21
REMARK    8  A    between atoms: O_21  and  C_22
REMARK    9  A    between atoms: C_22  and  C_23
REMARK                            x       y       z     vdW  Elec       q    Type
REMARK                         _______ _______ _______ _____ _____    ______ ____
ROOT
ATOM      1  C   UNL     1       9.840  -0.768  23.392  0.00  0.00    +0.122 A 
ATOM      2  C   UNL     1       8.778  -0.461  22.544  0.00  0.00    +0.049 A 
ATOM      3  C   UNL     1       7.696  -1.332  22.411  0.00  0.00    +0.050 A 
ATOM      4  C   UNL     1       7.666  -2.531  23.133  0.00  0.00    +0.133 A 
ATOM      5  C   UNL     1       8.727  -2.838  24.007  0.00  0.00    +0.082 A 
ATOM      6  C   UNL     1       9.804  -1.940  24.146  0.00  0.00    +0.062 A 
ENDROOT
BRANCH   5   7
ATOM      7  C   UNL     1       8.802  -4.110  24.802  0.00  0.00    +0.248 C 
ATOM      8  N   UNL     1       7.798  -4.323  25.719  0.00  0.00    -0.310 N 
ATOM      9  H   UNL     1       7.178  -3.552  25.923  0.00  0.00    +0.149 HD
ATOM     10  O   UNL     1       9.703  -4.916  24.588  0.00  0.00    -0.270 OA
BRANCH   8  11
ATOM     11  C   UNL     1       7.759  -5.451  26.634  0.00  0.00    +0.123 C 
BRANCH  11  12
ATOM     12  C   UNL     1       6.569  -5.364  27.623  0.00  0.00    +0.071 C 
ATOM     13  N   UNL     1       5.727  -6.579  27.679  0.00  0.00    -0.312 NA
ATOM     14  H   UNL     1       6.322  -7.389  27.841  0.00  0.00    +0.122 HD
ATOM     15  C   UNL     1       4.906  -6.779  26.487  0.00  0.00    +0.081 C 
ATOM     16  C   UNL     1       4.014  -5.573  26.197  0.00  0.00    +0.015 C 
ATOM     17  C   UNL     1       4.825  -4.286  26.112  0.00  0.00    +0.003 C 
ATOM     18  C   UNL     1       5.701  -4.125  27.352  0.00  0.00    +0.020 C 
ENDBRANCH  11  12
ENDBRANCH   8  11
ENDBRANCH   5   7
BRANCH   1  19
ATOM     19  O   UNL     1      10.833   0.168  23.434  0.00  0.00    -0.483 OA
BRANCH  19  20
ATOM     20  C   UNL     1      10.563   1.353  24.192  0.00  0.00    +0.342 C 
BRANCH  20  22
ATOM     21  F   UNL     1      10.586   2.273  21.972  0.00  0.00    -0.167 F 
ATOM     22  C   UNL     1      10.539   2.584  23.287  0.00  0.00    +0.424 C 
ATOM     23  F   UNL     1       9.421   3.319  23.490  0.00  0.00    -0.167 F 
ATOM     24  F   UNL     1      11.600   3.388  23.543  0.00  0.00    -0.167 F 
ENDBRANCH  20  22
ENDBRANCH  19  20
ENDBRANCH   1  19
BRANCH   4  25
ATOM     25  O   UNL     1       6.597  -3.384  23.096  0.00  0.00    -0.482 OA
BRANCH  25  26
ATOM     26  C   UNL     1       6.378  -4.137  21.895  0.00  0.00    +0.342 C 
BRANCH  26  27
ATOM     27  C   UNL     1       6.506  -5.633  22.180  0.00  0.00    +0.424 C 
ATOM     28  F   UNL     1       6.049  -5.928  23.419  0.00  0.00    -0.167 F 
ATOM     29  F   UNL     1       7.794  -6.037  22.111  0.00  0.00    -0.167 F 
ATOM     30  F   UNL     1       5.794  -6.384  21.306  0.00  0.00    -0.167 F 
ENDBRANCH  26  27
ENDBRANCH  25  26
ENDBRANCH   4  25
TORSDOF 9
ENDMDL
MODEL 2
REMARK VINA RESULT:      -6.8      2.450      3.643
REMARK  Name = 
REMARK  9 active torsions:
REMARK  status: ('A' for Active; 'I' for Inactive)
REMARK    1  A    between atoms: C_2  and  C_5
REMARK    2  A    between atoms: C_5  and  O_6
REMARK    3  A    between atoms: O_6  and  C_7
REMARK    4  A    between atoms: C_9  and  C_10
REMARK    5  A    between atoms: N_12  and  C_13
REMARK    6  A    between atoms: C_13  and  C_14
REMARK    7  A    between atoms: C_20  and  O_21
REMARK    8  A    between atoms: O_21  and  C_22
REMARK    9  A    between atoms: C_22  and  C_23
REMARK                            x       y       z     vdW  Elec       q    Type
REMARK                         _______ _______ _______ _____ _____    ______ ____
ROOT
ATOM      1  C   UNL     1       9.025  -1.058  22.764  0.00  0.00    +0.122 A 
ATOM      2  C   UNL     1       9.910  -1.762  23.576  0.00  0.00    +0.049 A 
ATOM      3  C   UNL     1       9.575  -3.021  24.075  0.00  0.00    +0.050 A 
ATOM      4  C   UNL     1       8.336  -3.594  23.762  0.00  0.00    +0.133 A 
ATOM      5  C   UNL     1       7.443  -2.895  22.925  0.00  0.00    +0.082 A 
ATOM      6  C   UNL     1       7.804  -1.632  22.414  0.00  0.00    +0.062 A 
ENDROOT
BRANCH   5   7
ATOM      7  C   UNL     1       6.081  -3.410  22.555  0.00  0.00    +0.248 C 
ATOM      8  N   UNL     1       5.292  -3.859  23.588  0.00  0.00    -0.310 N 
ATOM      9  H   UNL     1       5.724  -3.975  24.494  0.00  0.00    +0.149 HD
ATOM     10  O   UNL     1       5.710  -3.377  21.386  0.00  0.00    -0.270 OA
BRANCH   8  11
ATOM     11  C   UNL     1       3.987  -4.472  23.406  0.00  0.00    +0.123 C 
BRANCH  11  12
ATOM     12  C   UNL     1       4.090  -5.972  23.030  0.00  0.00    +0.071 C 
ATOM     13  N   UNL     1       2.788  -6.646  22.833  0.00  0.00    -0.312 NA
ATOM     14  H   UNL     1       2.229  -6.107  22.175  0.00  0.00    +0.122 HD
ATOM     15  C   UNL     1       2.046  -6.862  24.075  0.00  0.00    +0.081 C 
ATOM     16  C   UNL     1       2.861  -7.650  25.099  0.00  0.00    +0.015 C 
ATOM     17  C   UNL     1       4.213  -6.997  25.358  0.00  0.00    +0.003 C 
ATOM     18  C   UNL     1       4.946  -6.749  24.042  0.00  0.00    +0.020 C 
ENDBRANCH  11  12
ENDBRANCH   8  11
ENDBRANCH   5   7
BRANCH   1  19
ATOM     19  O   UNL     1       9.475   0.160  22.340  0.00  0.00    -0.483 OA
BRANCH  19  20
ATOM     20  C   UNL     1       8.868   1.310  22.940  0.00  0.00    +0.342 C 
BRANCH  20  22
ATOM     21  F   UNL     1       9.368   1.122  25.283  0.00  0.00    -0.167 F 
ATOM     22  C   UNL     1       9.677   1.785  24.146  0.00  0.00    +0.424 C 
ATOM     23  F   UNL     1      11.005   1.632  23.935  0.00  0.00    -0.167 F 
ATOM     24  F   UNL     1       9.458   3.102  24.380  0.00  0.00    -0.167 F 
ENDBRANCH  20  22
ENDBRANCH  19  20
ENDBRANCH   1  19
BRANCH   4  25
ATOM     25  O   UNL     1       7.987  -4.854  24.163  0.00  0.00    -0.482 OA
BRANCH  25  26
ATOM     26  C   UNL     1       8.554  -5.354  25.382  0.00  0.00    +0.342 C 
BRANCH  26  27
ATOM     27  C   UNL     1       7.727  -4.887  26.580  0.00  0.00    +0.424 C 
ATOM     28  F   UNL     1       8.196  -3.711  27.059  0.00  0.00    -0.167 F 
ATOM     29  F   UNL     1       7.772  -5.787  27.587  0.00  0.00    -0.167 F 
ATOM     30  F   UNL     1       6.426  -4.694  26.260  0.00  0.00    -0.167 F 
ENDBRANCH  26  27
ENDBRANCH  25  26
ENDBRANCH   4  25
TORSDOF 9
ENDMDL
MODEL 3
REMARK VINA RESULT:      -6.7      2.279      3.214
REMARK  Name = 
REMARK  9 active torsions:
REMARK  status: ('A' for Active; 'I' for Inactive)
REMARK    1  A    between atoms: C_2  and  C_5
REMARK    2  A    between atoms: C_5  and  O_6
REMARK    3  A    between atoms: O_6  and  C_7
REMARK    4  A    between atoms: C_9  and  C_10
REMARK    5  A    between atoms: N_12  and  C_13
REMARK    6  A    between atoms: C_13  and  C_14
REMARK    7  A    between atoms: C_20  and  O_21
REMARK    8  A    between atoms: O_21  and  C_22
REMARK    9  A    between atoms: C_22  and  C_23
REMARK                            x       y       z     vdW  Elec       q    Type
REMARK                         _______ _______ _______ _____ _____    ______ ____
ROOT
ATOM      1  C   UNL     1       7.983   0.487  23.889  0.00  0.00    +0.122 A 
ATOM      2  C   UNL     1       8.415   0.363  25.208  0.00  0.00    +0.049 A 
ATOM      3  C   UNL     1       8.247  -0.835  25.903  0.00  0.00    +0.050 A 
ATOM      4  C   UNL     1       7.639  -1.931  25.280  0.00  0.00    +0.133 A 
ATOM      5  C   UNL     1       7.218  -1.817  23.940  0.00  0.00    +0.082 A 
ATOM      6  C   UNL     1       7.411  -0.607  23.244  0.00  0.00    +0.062 A 
ENDROOT
BRANCH   5   7
ATOM      7  C   UNL     1       6.530  -2.924  23.192  0.00  0.00    +0.248 C 
ATOM      8  N   UNL     1       5.524  -3.585  23.859  0.00  0.00    -0.310 N 
ATOM      9  H   UNL     1       5.422  -3.409  24.848  0.00  0.00    +0.149 HD
ATOM     10  O   UNL     1       6.847  -3.171  22.032  0.00  0.00    -0.270 OA
BRANCH   8  11
ATOM     11  C   UNL     1       4.815  -4.735  23.325  0.00  0.00    +0.123 C 
BRANCH  11  12
ATOM     12  C   UNL     1       5.302  -6.067  23.951  0.00  0.00    +0.071 C 
ATOM     13  N   UNL     1       4.453  -7.238  23.640  0.00  0.00    -0.312 NA
ATOM     14  H   UNL     1       4.320  -7.296  22.632  0.00  0.00    +0.122 HD
ATOM     15  C   UNL     1       3.161  -7.224  24.324  0.00  0.00    +0.081 C 
ATOM     16  C   UNL     1       3.317  -7.115  25.840  0.00  0.00    +0.015 C 
ATOM     17  C   UNL     1       4.173  -5.916  26.229  0.00  0.00    +0.003 C 
ATOM     18  C   UNL     1       5.497  -5.938  25.470  0.00  0.00    +0.020 C 
ENDBRANCH  11  12
ENDBRANCH   8  11
ENDBRANCH   5   7
BRANCH   1  19
ATOM     19  O   UNL     1       8.209   1.709  23.322  0.00  0.00    -0.483 OA
BRANCH  19  20
ATOM     20  C   UNL     1       9.105   2.582  24.021  0.00  0.00    +0.342 C 
BRANCH  20  22
ATOM     21  F   UNL     1      11.319   1.649  24.099  0.00  0.00    -0.167 F 
ATOM     22  C   UNL     1      10.512   2.503  23.429  0.00  0.00    +0.424 C 
ATOM     23  F   UNL     1      10.478   2.099  22.138  0.00  0.00    -0.167 F 
ATOM     24  F   UNL     1      11.110   3.719  23.453  0.00  0.00    -0.167 F 
ENDBRANCH  20  22
ENDBRANCH  19  20
ENDBRANCH   1  19
BRANCH   4  25
ATOM     25  O   UNL     1       7.517  -3.150  25.890  0.00  0.00    -0.482 OA
BRANCH  25  26
ATOM     26  C   UNL     1       8.712  -3.791  26.356  0.00  0.00    +0.342 C 
BRANCH  26  27
ATOM     27  C   UNL     1       9.434  -4.471  25.193  0.00  0.00    +0.424 C 
ATOM     28  F   UNL     1      10.353  -5.354  25.648  0.00  0.00    -0.167 F 
ATOM     29  F   UNL     1      10.079  -3.568  24.422  0.00  0.00    -0.167 F 
ATOM     30  F   UNL     1       8.584  -5.158  24.394  0.00  0.00    -0.167 F 
ENDBRANCH  26  27
ENDBRANCH  25  26
ENDBRANCH   4  25
TORSDOF 9
ENDMDL
MODEL 4
REMARK VINA RESULT:      -6.5      3.679      8.414
REMARK  Name = 
REMARK  9 active torsions:
REMARK  status: ('A' for Active; 'I' for Inactive)
REMARK    1  A    between atoms: C_2  and  C_5
REMARK    2  A    between atoms: C_5  and  O_6
REMARK    3  A    between atoms: O_6  and  C_7
REMARK    4  A    between atoms: C_9  and  C_10
REMARK    5  A    between atoms: N_12  and  C_13
REMARK    6  A    between atoms: C_13  and  C_14
REMARK    7  A    between atoms: C_20  and  O_21
REMARK    8  A    between atoms: O_21  and  C_22
REMARK    9  A    between atoms: C_22  and  C_23
REMARK                            x       y       z     vdW  Elec       q    Type
REMARK                         _______ _______ _______ _____ _____    ______ ____
ROOT
ATOM      1  C   UNL     1       7.794  -2.404  22.597  0.00  0.00    +0.122 A 
ATOM      2  C   UNL     1       8.886  -2.005  21.831  0.00  0.00    +0.049 A 
ATOM      3  C   UNL     1       9.205  -0.654  21.692  0.00  0.00    +0.050 A 
ATOM      4  C   UNL     1       8.425   0.322  22.324  0.00  0.00    +0.133 A 
ATOM      5  C   UNL     1       7.329  -0.077  23.116  0.00  0.00    +0.082 A 
ATOM      6  C   UNL     1       7.031  -1.446  23.263  0.00  0.00    +0.062 A 
ENDROOT
BRANCH   5   7
ATOM      7  C   UNL     1       6.415   0.892  23.810  0.00  0.00    +0.248 C 
ATOM      8  N   UNL     1       5.854   1.876  23.029  0.00  0.00    -0.310 N 
ATOM      9  H   UNL     1       6.214   1.995  22.093  0.00  0.00    +0.149 HD
ATOM     10  O   UNL     1       6.170   0.756  25.005  0.00  0.00    -0.270 OA
BRANCH   8  11
ATOM     11  C   UNL     1       5.021   2.948  23.548  0.00  0.00    +0.123 C 
BRANCH  11  12
ATOM     12  C   UNL     1       5.093   4.224  22.671  0.00  0.00    +0.071 C 
ATOM     13  N   UNL     1       6.408   4.461  22.038  0.00  0.00    -0.312 NA
ATOM     14  H   UNL     1       6.696   3.619  21.542  0.00  0.00    +0.122 HD
ATOM     15  C   UNL     1       7.446   4.878  22.980  0.00  0.00    +0.081 C 
ATOM     16  C   UNL     1       7.042   6.127  23.760  0.00  0.00    +0.015 C 
ATOM     17  C   UNL     1       5.696   5.943  24.450  0.00  0.00    +0.003 C 
ATOM     18  C   UNL     1       4.644   5.470  23.450  0.00  0.00    +0.020 C 
ENDBRANCH  11  12
ENDBRANCH   8  11
ENDBRANCH   5   7
BRANCH   1  19
ATOM     19  O   UNL     1       7.593  -3.754  22.656  0.00  0.00    -0.483 OA
BRANCH  19  20
ATOM     20  C   UNL     1       6.378  -4.244  22.078  0.00  0.00    +0.342 C 
BRANCH  20  22
ATOM     21  F   UNL     1       5.995  -6.598  22.378  0.00  0.00    -0.167 F 
ATOM     22  C   UNL     1       6.557  -5.674  21.567  0.00  0.00    +0.424 C 
ATOM     23  F   UNL     1       6.010  -5.827  20.339  0.00  0.00    -0.167 F 
ATOM     24  F   UNL     1       7.872  -5.983  21.462  0.00  0.00    -0.167 F 
ENDBRANCH  20  22
ENDBRANCH  19  20
ENDBRANCH   1  19
BRANCH   4  25
ATOM     25  O   UNL     1       8.735   1.653  22.281  0.00  0.00    -0.482 OA
BRANCH  25  26
ATOM     26  C   UNL     1      10.121   2.020  22.255  0.00  0.00    +0.342 C 
BRANCH  26  27
ATOM     27  C   UNL     1      10.616   2.314  23.671  0.00  0.00    +0.424 C 
ATOM     28  F   UNL     1       9.586   2.653  24.480  0.00  0.00    -0.167 F 
ATOM     29  F   UNL     1      11.498   3.338  23.678  0.00  0.00    -0.167 F 
ATOM     30  F   UNL     1      11.227   1.244  24.232  0.00  0.00    -0.167 F 
ENDBRANCH  26  27
ENDBRANCH  25  26
ENDBRANCH   4  25
TORSDOF 9
ENDMDL
MODEL 5
REMARK VINA RESULT:      -6.4      3.507      7.764
REMARK  Name = 
REMARK  9 active torsions:
REMARK  status: ('A' for Active; 'I' for Inactive)
REMARK    1  A    between atoms: C_2  and  C_5
REMARK    2  A    between atoms: C_5  and  O_6
REMARK    3  A    between atoms: O_6  and  C_7
REMARK    4  A    between atoms: C_9  and  C_10
REMARK    5  A    between atoms: N_12  and  C_13
REMARK    6  A    between atoms: C_13  and  C_14
REMARK    7  A    between atoms: C_20  and  O_21
REMARK    8  A    between atoms: O_21  and  C_22
REMARK    9  A    between atoms: C_22  and  C_23
REMARK                            x       y       z     vdW  Elec       q    Type
REMARK                         _______ _______ _______ _____ _____    ______ ____
ROOT
ATOM      1  C   UNL     1       5.079  -3.526  23.137  0.00  0.00    +0.122 A 
ATOM      2  C   UNL     1       4.650  -3.462  24.461  0.00  0.00    +0.049 A 
ATOM      3  C   UNL     1       5.072  -2.429  25.298  0.00  0.00    +0.050 A 
ATOM      4  C   UNL     1       5.937  -1.440  24.813  0.00  0.00    +0.133 A 
ATOM      5  C   UNL     1       6.358  -1.489  23.469  0.00  0.00    +0.082 A 
ATOM      6  C   UNL     1       5.908  -2.528  22.630  0.00  0.00    +0.062 A 
ENDROOT
BRANCH   5   7
ATOM      7  C   UNL     1       7.306  -0.493  22.863  0.00  0.00    +0.248 C 
ATOM      8  N   UNL     1       6.820   0.779  22.669  0.00  0.00    -0.310 N 
ATOM      9  H   UNL     1       5.827   0.925  22.782  0.00  0.00    +0.149 HD
ATOM     10  O   UNL     1       8.460  -0.822  22.606  0.00  0.00    -0.270 OA
BRANCH   8  11
ATOM     11  C   UNL     1       7.565   1.842  22.015  0.00  0.00    +0.123 C 
BRANCH  11  12
ATOM     12  C   UNL     1       7.130   3.248  22.501  0.00  0.00    +0.071 C 
ATOM     13  N   UNL     1       8.215   4.253  22.522  0.00  0.00    -0.312 NA
ATOM     14  H   UNL     1       8.673   4.268  21.612  0.00  0.00    +0.122 HD
ATOM     15  C   UNL     1       9.197   4.033  23.583  0.00  0.00    +0.081 C 
ATOM     16  C   UNL     1       8.545   3.982  24.963  0.00  0.00    +0.015 C 
ATOM     17  C   UNL     1       7.423   2.952  25.013  0.00  0.00    +0.003 C 
ATOM     18  C   UNL     1       6.437   3.182  23.870  0.00  0.00    +0.020 C 
ENDBRANCH  11  12
ENDBRANCH   8  11
ENDBRANCH   5   7
BRANCH   1  19
ATOM     19  O   UNL     1       4.590  -4.585  22.424  0.00  0.00    -0.483 OA
BRANCH  19  20
ATOM     20  C   UNL     1       5.127  -5.873  22.745  0.00  0.00    +0.342 C 
BRANCH  20  22
ATOM     21  F   UNL     1       6.864  -7.351  21.984  0.00  0.00    -0.167 F 
ATOM     22  C   UNL     1       6.515  -6.053  22.130  0.00  0.00    +0.424 C 
ATOM     23  F   UNL     1       6.587  -5.474  20.909  0.00  0.00    -0.167 F 
ATOM     24  F   UNL     1       7.462  -5.471  22.906  0.00  0.00    -0.167 F 
ENDBRANCH  20  22
ENDBRANCH  19  20
ENDBRANCH   1  19
BRANCH   4  25
ATOM     25  O   UNL     1       6.322  -0.366  25.568  0.00  0.00    -0.482 OA
BRANCH  25  26
ATOM     26  C   UNL     1       7.046  -0.621  26.780  0.00  0.00    +0.342 C 
BRANCH  26  27
ATOM     27  C   UNL     1       8.535  -0.794  26.478  0.00  0.00    +0.424 C 
ATOM     28  F   UNL     1       8.778  -2.009  25.937  0.00  0.00    -0.167 F 
ATOM     29  F   UNL     1       9.277  -0.689  27.602  0.00  0.00    -0.167 F 
ATOM     30  F   UNL     1       8.990   0.130  25.600  0.00  0.00    -0.167 F 
ENDBRANCH  26  27
ENDBRANCH  25  26
ENDBRANCH   4  25
TORSDOF 9
ENDMDL
MODEL 6
REMARK VINA RESULT:      -6.4      1.678      2.423
REMARK  Name = 
REMARK  9 active torsions:
REMARK  status: ('A' for Active; 'I' for Inactive)
REMARK    1  A    between atoms: C_2  and  C_5
REMARK    2  A    between atoms: C_5  and  O_6
REMARK    3  A    between atoms: O_6  and  C_7
REMARK    4  A    between atoms: C_9  and  C_10
REMARK    5  A    between atoms: N_12  and  C_13
REMARK    6  A    between atoms: C_13  and  C_14
REMARK    7  A    between atoms: C_20  and  O_21
REMARK    8  A    between atoms: O_21  and  C_22
REMARK    9  A    between atoms: C_22  and  C_23
REMARK                            x       y       z     vdW  Elec       q    Type
REMARK                         _______ _______ _______ _____ _____    ______ ____
ROOT
ATOM      1  C   UNL     1       9.291  -0.649  24.552  0.00  0.00    +0.122 A 
ATOM      2  C   UNL     1       9.834  -1.325  23.462  0.00  0.00    +0.049 A 
ATOM      3  C   UNL     1       9.077  -2.255  22.749  0.00  0.00    +0.050 A 
ATOM      4  C   UNL     1       7.755  -2.521  23.125  0.00  0.00    +0.133 A 
ATOM      5  C   UNL     1       7.194  -1.827  24.216  0.00  0.00    +0.082 A 
ATOM      6  C   UNL     1       7.965  -0.877  24.914  0.00  0.00    +0.062 A 
ENDROOT
BRANCH   5   7
ATOM      7  C   UNL     1       5.797  -2.062  24.715  0.00  0.00    +0.248 C 
ATOM      8  N   UNL     1       5.410  -3.373  24.867  0.00  0.00    -0.310 N 
ATOM      9  H   UNL     1       6.010  -4.087  24.481  0.00  0.00    +0.149 HD
ATOM     10  O   UNL     1       5.080  -1.108  25.004  0.00  0.00    -0.270 OA
BRANCH   8  11
ATOM     11  C   UNL     1       4.070  -3.786  25.252  0.00  0.00    +0.123 C 
BRANCH  11  12
ATOM     12  C   UNL     1       3.871  -5.318  25.131  0.00  0.00    +0.071 C 
ATOM     13  N   UNL     1       2.819  -5.871  26.012  0.00  0.00    -0.312 NA
ATOM     14  H   UNL     1       1.958  -5.344  25.875  0.00  0.00    +0.122 HD
ATOM     15  C   UNL     1       3.188  -5.887  27.427  0.00  0.00    +0.081 C 
ATOM     16  C   UNL     1       4.488  -6.650  27.671  0.00  0.00    +0.015 C 
ATOM     17  C   UNL     1       5.619  -6.117  26.801  0.00  0.00    +0.003 C 
ATOM     18  C   UNL     1       5.191  -6.076  25.336  0.00  0.00    +0.020 C 
ENDBRANCH  11  12
ENDBRANCH   8  11
ENDBRANCH   5   7
BRANCH   1  19
ATOM     19  O   UNL     1      10.136   0.236  25.160  0.00  0.00    -0.483 OA
BRANCH  19  20
ATOM     20  C   UNL     1      11.096   0.884  24.318  0.00  0.00    +0.342 C 
BRANCH  20  22
ATOM     21  F   UNL     1      11.456   3.156  23.622  0.00  0.00    -0.167 F 
ATOM     22  C   UNL     1      10.528   2.180  23.742  0.00  0.00    +0.424 C 
ATOM     23  F   UNL     1       9.993   1.978  22.515  0.00  0.00    -0.167 F 
ATOM     24  F   UNL     1       9.540   2.664  24.534  0.00  0.00    -0.167 F 
ENDBRANCH  20  22
ENDBRANCH  19  20
ENDBRANCH   1  19
BRANCH   4  25
ATOM     25  O   UNL     1       6.946  -3.368  22.418  0.00  0.00    -0.482 OA
BRANCH  25  26
ATOM     26  C   UNL     1       7.397  -4.713  22.211  0.00  0.00    +0.342 C 
BRANCH  26  27
ATOM     27  C   UNL     1       6.255  -5.576  21.675  0.00  0.00    +0.424 C 
ATOM     28  F   UNL     1       5.059  -5.112  22.104  0.00  0.00    -0.167 F 
ATOM     29  F   UNL     1       6.371  -6.856  22.092  0.00  0.00    -0.167 F 
ATOM     30  F   UNL     1       6.214  -5.589  20.322  0.00  0.00    -0.167 F 
ENDBRANCH  26  27
ENDBRANCH  25  26
ENDBRANCH   4  25
TORSDOF 9
ENDMDL
MODEL 7
REMARK VINA RESULT:      -6.3      3.855      7.996
REMARK  Name = 
REMARK  9 active torsions:
REMARK  status: ('A' for Active; 'I' for Inactive)
REMARK    1  A    between atoms: C_2  and  C_5
REMARK    2  A    between atoms: C_5  and  O_6
REMARK    3  A    between atoms: O_6  and  C_7
REMARK    4  A    between atoms: C_9  and  C_10
REMARK    5  A    between atoms: N_12  and  C_13
REMARK    6  A    between atoms: C_13  and  C_14
REMARK    7  A    between atoms: C_20  and  O_21
REMARK    8  A    between atoms: O_21  and  C_22
REMARK    9  A    between atoms: C_22  and  C_23
REMARK                            x       y       z     vdW  Elec       q    Type
REMARK                         _______ _______ _______ _____ _____    ______ ____
ROOT
ATOM      1  C   UNL     1       7.516  -2.955  23.895  0.00  0.00    +0.122 A 
ATOM      2  C   UNL     1       8.517  -2.828  22.935  0.00  0.00    +0.049 A 
ATOM      3  C   UNL     1       8.871  -1.574  22.434  0.00  0.00    +0.050 A 
ATOM      4  C   UNL     1       8.218  -0.424  22.892  0.00  0.00    +0.133 A 
ATOM      5  C   UNL     1       7.217  -0.544  23.877  0.00  0.00    +0.082 A 
ATOM      6  C   UNL     1       6.884  -1.815  24.388  0.00  0.00    +0.062 A 
ENDROOT
BRANCH   5   7
ATOM      7  C   UNL     1       6.439   0.624  24.413  0.00  0.00    +0.248 C 
ATOM      8  N   UNL     1       5.802   1.416  23.486  0.00  0.00    -0.310 N 
ATOM      9  H   UNL     1       6.027   1.273  22.512  0.00  0.00    +0.149 HD
ATOM     10  O   UNL     1       6.364   0.807  25.624  0.00  0.00    -0.270 OA
BRANCH   8  11
ATOM     11  C   UNL     1       5.082   2.634  23.817  0.00  0.00    +0.123 C 
BRANCH  11  12
ATOM     12  C   UNL     1       5.017   3.620  22.622  0.00  0.00    +0.071 C 
ATOM     13  N   UNL     1       6.238   3.655  21.788  0.00  0.00    -0.312 NA
ATOM     14  H   UNL     1       6.479   2.705  21.510  0.00  0.00    +0.122 HD
ATOM     15  C   UNL     1       7.376   4.300  22.441  0.00  0.00    +0.081 C 
ATOM     16  C   UNL     1       7.046   5.721  22.894  0.00  0.00    +0.015 C 
ATOM     17  C   UNL     1       5.801   5.752  23.772  0.00  0.00    +0.003 C 
ATOM     18  C   UNL     1       4.643   5.038  23.080  0.00  0.00    +0.020 C 
ENDBRANCH  11  12
ENDBRANCH   8  11
ENDBRANCH   5   7
BRANCH   1  19
ATOM     19  O   UNL     1       7.269  -4.235  24.304  0.00  0.00    -0.483 OA
BRANCH  19  20
ATOM     20  C   UNL     1       6.987  -4.417  25.696  0.00  0.00    +0.342 C 
BRANCH  20  22
ATOM     21  F   UNL     1       9.039  -3.977  26.867  0.00  0.00    -0.167 F 
ATOM     22  C   UNL     1       8.212  -4.955  26.434  0.00  0.00    +0.424 C 
ATOM     23  F   UNL     1       7.851  -5.688  27.512  0.00  0.00    -0.167 F 
ATOM     24  F   UNL     1       8.941  -5.763  25.625  0.00  0.00    -0.167 F 
ENDBRANCH  20  22
ENDBRANCH  19  20
ENDBRANCH   1  19
BRANCH   4  25
ATOM     25  O   UNL     1       8.575   0.834  22.490  0.00  0.00    -0.482 OA
BRANCH  25  26
ATOM     26  C   UNL     1       9.965   1.184  22.533  0.00  0.00    +0.342 C 
BRANCH  26  27
ATOM     27  C   UNL     1      10.337   1.699  23.923  0.00  0.00    +0.424 C 
ATOM     28  F   UNL     1       9.283   2.316  24.506  0.00  0.00    -0.167 F 
ATOM     29  F   UNL     1      11.350   2.591  23.860  0.00  0.00    -0.167 F 
ATOM     30  F   UNL     1      10.722   0.701  24.753  0.00  0.00    -0.167 F 
ENDBRANCH  26  27
ENDBRANCH  25  26
ENDBRANCH   4  25
TORSDOF 9
ENDMDL
MODEL 8
REMARK VINA RESULT:      -6.3      3.669      8.257
REMARK  Name = 
REMARK  9 active torsions:
REMARK  status: ('A' for Active; 'I' for Inactive)
REMARK    1  A    between atoms: C_2  and  C_5
REMARK    2  A    between atoms: C_5  and  O_6
REMARK    3  A    between atoms: O_6  and  C_7
REMARK    4  A    between atoms: C_9  and  C_10
REMARK    5  A    between atoms: N_12  and  C_13
REMARK    6  A    between atoms: C_13  and  C_14
REMARK    7  A    between atoms: C_20  and  O_21
REMARK    8  A    between atoms: O_21  and  C_22
REMARK    9  A    between atoms: C_22  and  C_23
REMARK                            x       y       z     vdW  Elec       q    Type
REMARK                         _______ _______ _______ _____ _____    ______ ____
ROOT
ATOM      1  C   UNL     1       8.174  -2.703  22.961  0.00  0.00    +0.122 A 
ATOM      2  C   UNL     1       9.347  -2.665  23.711  0.00  0.00    +0.049 A 
ATOM      3  C   UNL     1       9.811  -1.465  24.250  0.00  0.00    +0.050 A 
ATOM      4  C   UNL     1       9.100  -0.278  24.040  0.00  0.00    +0.133 A 
ATOM      5  C   UNL     1       7.902  -0.313  23.298  0.00  0.00    +0.082 A 
ATOM      6  C   UNL     1       7.435  -1.536  22.777  0.00  0.00    +0.062 A 
ENDROOT
BRANCH   5   7
ATOM      7  C   UNL     1       7.082   0.909  22.994  0.00  0.00    +0.248 C 
ATOM      8  N   UNL     1       6.301   1.395  24.017  0.00  0.00    -0.310 N 
ATOM      9  H   UNL     1       6.193   0.820  24.840  0.00  0.00    +0.149 HD
ATOM     10  O   UNL     1       7.162   1.443  21.892  0.00  0.00    -0.270 OA
BRANCH   8  11
ATOM     11  C   UNL     1       5.379   2.510  23.875  0.00  0.00    +0.123 C 
BRANCH  11  12
ATOM     12  C   UNL     1       6.045   3.869  24.212  0.00  0.00    +0.071 C 
ATOM     13  N   UNL     1       5.488   4.546  25.403  0.00  0.00    -0.312 NA
ATOM     14  H   UNL     1       5.487   3.896  26.187  0.00  0.00    +0.122 HD
ATOM     15  C   UNL     1       4.148   5.093  25.194  0.00  0.00    +0.081 C 
ATOM     16  C   UNL     1       4.102   6.058  24.010  0.00  0.00    +0.015 C 
ATOM     17  C   UNL     1       4.651   5.413  22.743  0.00  0.00    +0.003 C 
ATOM     18  C   UNL     1       6.032   4.818  23.004  0.00  0.00    +0.020 C 
ENDBRANCH  11  12
ENDBRANCH   8  11
ENDBRANCH   5   7
BRANCH   1  19
ATOM     19  O   UNL     1       7.828  -3.939  22.494  0.00  0.00    -0.483 OA
BRANCH  19  20
ATOM     20  C   UNL     1       6.516  -4.065  21.933  0.00  0.00    +0.342 C 
BRANCH  20  22
ATOM     21  F   UNL     1       6.064  -5.624  20.160  0.00  0.00    -0.167 F 
ATOM     22  C   UNL     1       6.249  -5.505  21.494  0.00  0.00    +0.424 C 
ATOM     23  F   UNL     1       7.275  -6.319  21.834  0.00  0.00    -0.167 F 
ATOM     24  F   UNL     1       5.136  -5.990  22.096  0.00  0.00    -0.167 F 
ENDBRANCH  20  22
ENDBRANCH  19  20
ENDBRANCH   1  19
BRANCH   4  25
ATOM     25  O   UNL     1       9.470   0.911  24.606  0.00  0.00    -0.482 OA
BRANCH  25  26
ATOM     26  C   UNL     1      10.704   1.503  24.180  0.00  0.00    +0.342 C 
BRANCH  26  27
ATOM     27  C   UNL     1      10.436   2.594  23.143  0.00  0.00    +0.424 C 
ATOM     28  F   UNL     1      10.327   2.063  21.903  0.00  0.00    -0.167 F 
ATOM     29  F   UNL     1      11.438   3.500  23.114  0.00  0.00    -0.167 F 
ATOM     30  F   UNL     1       9.285   3.263  23.390  0.00  0.00    -0.167 F 
ENDBRANCH  26  27
ENDBRANCH  25  26
ENDBRANCH   4  25
TORSDOF 9
ENDMDL
MODEL 9
REMARK VINA RESULT:      -6.3      3.176      7.514
REMARK  Name = 
REMARK  9 active torsions:
REMARK  status: ('A' for Active; 'I' for Inactive)
REMARK    1  A    between atoms: C_2  and  C_5
REMARK    2  A    between atoms: C_5  and  O_6
REMARK    3  A    between atoms: O_6  and  C_7
REMARK    4  A    between atoms: C_9  and  C_10
REMARK    5  A    between atoms: N_12  and  C_13
REMARK    6  A    between atoms: C_13  and  C_14
REMARK    7  A    between atoms: C_20  and  O_21
REMARK    8  A    between atoms: O_21  and  C_22
REMARK    9  A    between atoms: C_22  and  C_23
REMARK                            x       y       z     vdW  Elec       q    Type
REMARK                         _______ _______ _______ _____ _____    ______ ____
ROOT
ATOM      1  C   UNL     1       7.702  -3.751  24.515  0.00  0.00    +0.122 A 
ATOM      2  C   UNL     1       9.059  -3.651  24.219  0.00  0.00    +0.049 A 
ATOM      3  C   UNL     1       9.691  -2.408  24.177  0.00  0.00    +0.050 A 
ATOM      4  C   UNL     1       8.962  -1.240  24.432  0.00  0.00    +0.133 A 
ATOM      5  C   UNL     1       7.593  -1.336  24.750  0.00  0.00    +0.082 A 
ATOM      6  C   UNL     1       6.973  -2.600  24.808  0.00  0.00    +0.062 A 
ENDROOT
BRANCH   5   7
ATOM      7  C   UNL     1       6.718  -0.142  25.011  0.00  0.00    +0.248 C 
ATOM      8  N   UNL     1       7.249   0.846  25.807  0.00  0.00    -0.310 N 
ATOM      9  H   UNL     1       8.106   0.643  26.300  0.00  0.00    +0.149 HD
ATOM     10  O   UNL     1       5.610  -0.067  24.488  0.00  0.00    -0.270 OA
BRANCH   8  11
ATOM     11  C   UNL     1       6.514   2.025  26.236  0.00  0.00    +0.123 C 
BRANCH  11  12
ATOM     12  C   UNL     1       7.411   3.288  26.288  0.00  0.00    +0.071 C 
ATOM     13  N   UNL     1       6.672   4.559  26.453  0.00  0.00    -0.312 NA
ATOM     14  H   UNL     1       6.048   4.480  27.253  0.00  0.00    +0.122 HD
ATOM     15  C   UNL     1       5.927   4.963  25.262  0.00  0.00    +0.081 C 
ATOM     16  C   UNL     1       6.827   5.071  24.032  0.00  0.00    +0.015 C 
ATOM     17  C   UNL     1       7.609   3.784  23.798  0.00  0.00    +0.003 C 
ATOM     18  C   UNL     1       8.344   3.368  25.069  0.00  0.00    +0.020 C 
ENDBRANCH  11  12
ENDBRANCH   8  11
ENDBRANCH   5   7
BRANCH   1  19
ATOM     19  O   UNL     1       7.207  -5.024  24.527  0.00  0.00    -0.483 OA
BRANCH  19  20
ATOM     20  C   UNL     1       6.166  -5.314  23.587  0.00  0.00    +0.342 C 
BRANCH  20  22
ATOM     21  F   UNL     1       5.925  -6.412  21.463  0.00  0.00    -0.167 F 
ATOM     22  C   UNL     1       6.751  -5.650  22.215  0.00  0.00    +0.424 C 
ATOM     23  F   UNL     1       7.021  -4.527  21.510  0.00  0.00    -0.167 F 
ATOM     24  F   UNL     1       7.915  -6.332  22.345  0.00  0.00    -0.167 F 
ENDBRANCH  20  22
ENDBRANCH  19  20
ENDBRANCH   1  19
BRANCH   4  25
ATOM     25  O   UNL     1       9.547  -0.003  24.476  0.00  0.00    -0.482 OA
BRANCH  25  26
ATOM     26  C   UNL     1      10.514   0.319  23.468  0.00  0.00    +0.342 C 
BRANCH  26  27
ATOM     27  C   UNL     1       9.810   0.759  22.184  0.00  0.00    +0.424 C 
ATOM     28  F   UNL     1       9.889  -0.205  21.238  0.00  0.00    -0.167 F 
ATOM     29  F   UNL     1      10.373   1.878  21.676  0.00  0.00    -0.167 F 
ATOM     30  F   UNL     1       8.496   1.015  22.381  0.00  0.00    -0.167 F 
ENDBRANCH  26  27
ENDBRANCH  25  26
ENDBRANCH   4  25
TORSDOF 9
ENDMDL
