MODEL 1
REMARK VINA RESULT:      -7.3      0.000      0.000
REMARK  Name = 
REMARK  17 active torsions:
REMARK  status: ('A' for Active; 'I' for Inactive)
REMARK    1  A    between atoms: C_1  and  C_2
REMARK    2  A    between atoms: C_5  and  O_7
REMARK    3  A    between atoms: O_7  and  C_8
REMARK    4  A    between atoms: C_8  and  C_9
REMARK    5  A    between atoms: C_12  and  O_14
REMARK    6  A    between atoms: O_14  and  C_15
REMARK    7  A    between atoms: C_16  and  C_28
REMARK    8  A    between atoms: C_20  and  O_21
REMARK    9  A    between atoms: C_23  and  O_24
REMARK   10  A    between atoms: C_31  and  O_32
REMARK   11  A    between atoms: C_33  and  O_34
REMARK   12  A    between atoms: C_36  and  O_38
REMARK   13  A    between atoms: C_39  and  O_41
REMARK   14  A    between atoms: C_42  and  O_44
REMARK   15  A    between atoms: C_45  and  O_47
REMARK   16  A    between atoms: C_48  and  O_50
REMARK   17  A    between atoms: C_51  and  O_53
REMARK                            x       y       z     vdW  Elec       q    Type
REMARK                         _______ _______ _______ _____ _____    ______ ____
ROOT
ATOM      1  C   UNL     1       6.483   3.569  26.601  0.00  0.00    +0.179 C 
ATOM      2  C   UNL     1       5.174   4.372  26.674  0.00  0.00    +0.177 C 
ATOM      3  C   UNL     1       4.002   3.404  26.890  0.00  0.00    +0.180 C 
ATOM      4  C   UNL     1       4.023   2.249  25.885  0.00  0.00    +0.214 C 
ATOM      5  C   UNL     1       5.434   1.611  25.800  0.00  0.00    +0.340 C 
ATOM      6  O   UNL     1       6.398   2.644  25.494  0.00  0.00    -0.331 OA
ENDROOT
BRANCH   3   7
ATOM      7  O   UNL     1       2.747   4.094  26.782  0.00  0.00    -0.386 OA
ATOM      8  H   UNL     1       2.381   4.125  27.688  0.00  0.00    +0.210 HD
ENDBRANCH   3   7
BRANCH   4   9
ATOM      9  O   UNL     1       2.970   1.339  26.265  0.00  0.00    -0.383 OA
ATOM     10  H   UNL     1       2.609   0.965  25.430  0.00  0.00    +0.210 HD
ENDBRANCH   4   9
BRANCH   2  11
ATOM     11  O   UNL     1       5.231   5.352  27.715  0.00  0.00    -0.386 OA
ATOM     12  H   UNL     1       4.438   5.269  28.269  0.00  0.00    +0.210 HD
ENDBRANCH   2  11
BRANCH   5  13
ATOM     13  O   UNL     1       5.428   0.576  24.803  0.00  0.00    -0.453 OA
BRANCH  13  14
ATOM     14  C   UNL     1       5.983  -0.653  25.155  0.00  0.00    +0.214 A 
ATOM     15  C   UNL     1       5.185  -1.789  25.731  0.00  0.00    +0.238 A 
ATOM     16  O   UNL     1       3.991  -1.944  25.483  0.00  0.00    -0.283 OA
ATOM     17  C   UNL     1       5.917  -2.843  26.427  0.00  0.00    +0.109 A 
ATOM     18  C   UNL     1       7.229  -3.052  26.028  0.00  0.00    +0.147 A 
ATOM     19  C   UNL     1       7.912  -4.190  26.457  0.00  0.00    +0.092 A 
ATOM     20  C   UNL     1       7.266  -5.088  27.307  0.00  0.00    +0.124 A 
ATOM     21  C   UNL     1       5.976  -4.845  27.771  0.00  0.00    +0.091 A 
ATOM     22  O   UNL     1       7.879  -2.188  25.179  0.00  0.00    -0.451 OA
ATOM     23  C   UNL     1       5.300  -3.715  27.334  0.00  0.00    +0.135 A 
ATOM     24  C   UNL     1       7.268  -0.975  24.879  0.00  0.00    +0.181 A 
BRANCH  24  25
ATOM     25  C   UNL     1       8.132  -0.108  24.058  0.00  0.00    +0.025 A 
ATOM     26  C   UNL     1       7.830   0.201  22.727  0.00  0.00    +0.060 A 
ATOM     27  C   UNL     1       8.664   1.071  22.027  0.00  0.00    +0.159 A 
ATOM     28  C   UNL     1       9.786   1.639  22.627  0.00  0.00    +0.158 A 
ATOM     29  C   UNL     1      10.098   1.340  23.947  0.00  0.00    +0.050 A 
ATOM     30  C   UNL     1       9.271   0.466  24.658  0.00  0.00    +0.015 A 
BRANCH  28  31
ATOM     31  O   UNL     1      10.549   2.491  21.882  0.00  0.00    -0.503 OA
ATOM     32  H   UNL     1      10.499   3.376  22.287  0.00  0.00    +0.292 HD
ENDBRANCH  28  31
BRANCH  27  33
ATOM     33  O   UNL     1       8.364   1.387  20.731  0.00  0.00    -0.503 OA
ATOM     34  H   UNL     1       9.141   1.085  20.221  0.00  0.00    +0.292 HD
ENDBRANCH  27  33
ENDBRANCH  24  25
BRANCH  23  35
ATOM     35  O   UNL     1       4.043  -3.452  27.799  0.00  0.00    -0.506 OA
ATOM     36  H   UNL     1       4.081  -3.224  28.743  0.00  0.00    +0.292 HD
ENDBRANCH  23  35
BRANCH  20  37
ATOM     37  O   UNL     1       7.866  -6.243  27.715  0.00  0.00    -0.507 OA
ATOM     38  H   UNL     1       7.405  -6.583  28.501  0.00  0.00    +0.292 HD
ENDBRANCH  20  37
ENDBRANCH  13  14
ENDBRANCH   5  13
BRANCH   1  39
ATOM     39  C   UNL     1       7.701   4.495  26.470  0.00  0.00    +0.197 C 
BRANCH  39  40
ATOM     40  O   UNL     1       7.522   5.374  25.351  0.00  0.00    -0.346 OA
BRANCH  40  46
ATOM     41  C   UNL     1      11.502   7.104  27.222  0.00  0.00    +0.041 C 
ATOM     42  C   UNL     1      10.784   6.883  25.895  0.00  0.00    +0.149 C 
ATOM     43  C   UNL     1      11.652   6.078  24.916  0.00  0.00    +0.174 C 
ATOM     44  C   UNL     1      10.847   5.817  23.636  0.00  0.00    +0.179 C 
ATOM     45  C   UNL     1       9.490   5.180  23.949  0.00  0.00    +0.201 C 
ATOM     46  C   UNL     1       8.743   6.034  25.000  0.00  0.00    +0.282 C 
ATOM     47  O   UNL     1       9.554   6.208  26.163  0.00  0.00    -0.343 OA
BRANCH  45  48
ATOM     48  O   UNL     1       8.790   5.039  22.699  0.00  0.00    -0.384 OA
ATOM     49  H   UNL     1       7.924   4.628  22.874  0.00  0.00    +0.210 HD
ENDBRANCH  45  48
BRANCH  44  50
ATOM     50  O   UNL     1      11.588   4.978  22.739  0.00  0.00    -0.386 OA
ATOM     51  H   UNL     1      10.957   4.708  22.040  0.00  0.00    +0.210 HD
ENDBRANCH  44  50
BRANCH  43  52
ATOM     52  O   UNL     1      12.856   6.803  24.649  0.00  0.00    -0.387 OA
ATOM     53  H   UNL     1      13.518   6.182  24.298  0.00  0.00    +0.210 HD
ENDBRANCH  43  52
ENDBRANCH  40  46
ENDBRANCH  39  40
ENDBRANCH   1  39
TORSDOF 16
ENDMDL
MODEL 2
REMARK VINA RESULT:      -7.3      2.849      9.889
REMARK  Name = 
REMARK  17 active torsions:
REMARK  status: ('A' for Active; 'I' for Inactive)
REMARK    1  A    between atoms: C_1  and  C_2
REMARK    2  A    between atoms: C_5  and  O_7
REMARK    3  A    between atoms: O_7  and  C_8
REMARK    4  A    between atoms: C_8  and  C_9
REMARK    5  A    between atoms: C_12  and  O_14
REMARK    6  A    between atoms: O_14  and  C_15
REMARK    7  A    between atoms: C_16  and  C_28
REMARK    8  A    between atoms: C_20  and  O_21
REMARK    9  A    between atoms: C_23  and  O_24
REMARK   10  A    between atoms: C_31  and  O_32
REMARK   11  A    between atoms: C_33  and  O_34
REMARK   12  A    between atoms: C_36  and  O_38
REMARK   13  A    between atoms: C_39  and  O_41
REMARK   14  A    between atoms: C_42  and  O_44
REMARK   15  A    between atoms: C_45  and  O_47
REMARK   16  A    between atoms: C_48  and  O_50
REMARK   17  A    between atoms: C_51  and  O_53
REMARK                            x       y       z     vdW  Elec       q    Type
REMARK                         _______ _______ _______ _____ _____    ______ ____
ROOT
ATOM      1  C   UNL     1       6.430  -4.032  24.346  0.00  0.00    +0.179 C 
ATOM      2  C   UNL     1       7.586  -4.892  23.809  0.00  0.00    +0.177 C 
ATOM      3  C   UNL     1       8.517  -5.264  24.972  0.00  0.00    +0.180 C 
ATOM      4  C   UNL     1       8.922  -4.039  25.795  0.00  0.00    +0.214 C 
ATOM      5  C   UNL     1       7.684  -3.177  26.155  0.00  0.00    +0.340 C 
ATOM      6  O   UNL     1       6.980  -2.835  24.939  0.00  0.00    -0.331 OA
ENDROOT
BRANCH   3   7
ATOM      7  O   UNL     1       9.702  -5.912  24.485  0.00  0.00    -0.386 OA
ATOM      8  H   UNL     1       9.565  -6.035  23.525  0.00  0.00    +0.210 HD
ENDBRANCH   3   7
BRANCH   4   9
ATOM      9  O   UNL     1       9.674  -4.519  26.927  0.00  0.00    -0.383 OA
ATOM     10  H   UNL     1      10.273  -5.222  26.587  0.00  0.00    +0.210 HD
ENDBRANCH   4   9
BRANCH   2  11
ATOM     11  O   UNL     1       7.092  -6.061  23.149  0.00  0.00    -0.386 OA
ATOM     12  H   UNL     1       6.835  -5.826  22.242  0.00  0.00    +0.210 HD
ENDBRANCH   2  11
BRANCH   5  13
ATOM     13  O   UNL     1       8.111  -2.006  26.870  0.00  0.00    -0.453 OA
BRANCH  13  14
ATOM     14  C   UNL     1       8.146  -0.805  26.164  0.00  0.00    +0.214 A 
ATOM     15  C   UNL     1       9.219  -0.457  25.169  0.00  0.00    +0.238 A 
ATOM     16  O   UNL     1       9.824  -1.315  24.531  0.00  0.00    -0.283 OA
ATOM     17  C   UNL     1       9.378   0.950  24.813  0.00  0.00    +0.109 A 
ATOM     18  C   UNL     1       8.247   1.746  24.917  0.00  0.00    +0.147 A 
ATOM     19  C   UNL     1       8.247   3.026  24.364  0.00  0.00    +0.092 A 
ATOM     20  C   UNL     1       9.401   3.493  23.735  0.00  0.00    +0.124 A 
ATOM     21  C   UNL     1      10.562   2.727  23.693  0.00  0.00    +0.091 A 
ATOM     22  O   UNL     1       7.094   1.300  25.519  0.00  0.00    -0.451 OA
ATOM     23  C   UNL     1      10.554   1.451  24.240  0.00  0.00    +0.135 A 
ATOM     24  C   UNL     1       7.137   0.096  26.214  0.00  0.00    +0.181 A 
BRANCH  24  25
ATOM     25  C   UNL     1       5.866  -0.191  26.902  0.00  0.00    +0.025 A 
ATOM     26  C   UNL     1       4.792  -0.814  26.256  0.00  0.00    +0.060 A 
ATOM     27  C   UNL     1       3.639  -1.105  26.984  0.00  0.00    +0.159 A 
ATOM     28  C   UNL     1       3.539  -0.790  28.338  0.00  0.00    +0.158 A 
ATOM     29  C   UNL     1       4.596  -0.171  28.991  0.00  0.00    +0.050 A 
ATOM     30  C   UNL     1       5.756   0.127  28.271  0.00  0.00    +0.015 A 
BRANCH  28  31
ATOM     31  O   UNL     1       2.382  -1.115  28.987  0.00  0.00    -0.503 OA
ATOM     32  H   UNL     1       2.286  -2.084  28.968  0.00  0.00    +0.292 HD
ENDBRANCH  28  31
BRANCH  27  33
ATOM     33  O   UNL     1       2.593  -1.725  26.360  0.00  0.00    -0.503 OA
ATOM     34  H   UNL     1       1.809  -1.467  26.883  0.00  0.00    +0.292 HD
ENDBRANCH  27  33
ENDBRANCH  24  25
BRANCH  23  35
ATOM     35  O   UNL     1      11.693   0.698  24.227  0.00  0.00    -0.506 OA
ATOM     36  H   UNL     1      12.427   1.216  23.856  0.00  0.00    +0.292 HD
ENDBRANCH  23  35
BRANCH  20  37
ATOM     37  O   UNL     1       9.440   4.715  23.130  0.00  0.00    -0.507 OA
ATOM     38  H   UNL     1       9.250   4.608  22.182  0.00  0.00    +0.292 HD
ENDBRANCH  20  37
ENDBRANCH  13  14
ENDBRANCH   5  13
BRANCH   1  39
ATOM     39  C   UNL     1       5.419  -3.699  23.239  0.00  0.00    +0.197 C 
BRANCH  39  40
ATOM     40  O   UNL     1       4.113  -4.152  23.623  0.00  0.00    -0.346 OA
BRANCH  40  46
ATOM     41  C   UNL     1       2.584  -4.581  28.074  0.00  0.00    +0.041 C 
ATOM     42  C   UNL     1       3.389  -5.298  26.996  0.00  0.00    +0.149 C 
ATOM     43  C   UNL     1       2.832  -6.702  26.721  0.00  0.00    +0.174 C 
ATOM     44  C   UNL     1       3.628  -7.339  25.575  0.00  0.00    +0.179 C 
ATOM     45  C   UNL     1       3.669  -6.423  24.348  0.00  0.00    +0.201 C 
ATOM     46  C   UNL     1       4.172  -5.020  24.761  0.00  0.00    +0.282 C 
ATOM     47  O   UNL     1       3.363  -4.495  25.815  0.00  0.00    -0.343 OA
BRANCH  45  48
ATOM     48  O   UNL     1       4.490  -7.075  23.360  0.00  0.00    -0.384 OA
ATOM     49  H   UNL     1       4.736  -6.421  22.682  0.00  0.00    +0.210 HD
ENDBRANCH  45  48
BRANCH  44  50
ATOM     50  O   UNL     1       3.068  -8.610  25.220  0.00  0.00    -0.386 OA
ATOM     51  H   UNL     1       3.674  -8.993  24.551  0.00  0.00    +0.210 HD
ENDBRANCH  44  50
BRANCH  43  52
ATOM     52  O   UNL     1       2.907  -7.482  27.918  0.00  0.00    -0.387 OA
ATOM     53  H   UNL     1       2.171  -8.119  27.919  0.00  0.00    +0.210 HD
ENDBRANCH  43  52
ENDBRANCH  40  46
ENDBRANCH  39  40
ENDBRANCH   1  39
TORSDOF 16
ENDMDL
MODEL 3
REMARK VINA RESULT:      -7.1      2.337      8.792
REMARK  Name = 
REMARK  17 active torsions:
REMARK  status: ('A' for Active; 'I' for Inactive)
REMARK    1  A    between atoms: C_1  and  C_2
REMARK    2  A    between atoms: C_5  and  O_7
REMARK    3  A    between atoms: O_7  and  C_8
REMARK    4  A    between atoms: C_8  and  C_9
REMARK    5  A    between atoms: C_12  and  O_14
REMARK    6  A    between atoms: O_14  and  C_15
REMARK    7  A    between atoms: C_16  and  C_28
REMARK    8  A    between atoms: C_20  and  O_21
REMARK    9  A    between atoms: C_23  and  O_24
REMARK   10  A    between atoms: C_31  and  O_32
REMARK   11  A    between atoms: C_33  and  O_34
REMARK   12  A    between atoms: C_36  and  O_38
REMARK   13  A    between atoms: C_39  and  O_41
REMARK   14  A    between atoms: C_42  and  O_44
REMARK   15  A    between atoms: C_45  and  O_47
REMARK   16  A    between atoms: C_48  and  O_50
REMARK   17  A    between atoms: C_51  and  O_53
REMARK                            x       y       z     vdW  Elec       q    Type
REMARK                         _______ _______ _______ _____ _____    ______ ____
ROOT
ATOM      1  C   UNL     1       7.615  -0.226  23.915  0.00  0.00    +0.179 C 
ATOM      2  C   UNL     1       8.328  -0.050  22.564  0.00  0.00    +0.177 C 
ATOM      3  C   UNL     1       9.592   0.797  22.770  0.00  0.00    +0.180 C 
ATOM      4  C   UNL     1       9.298   2.085  23.543  0.00  0.00    +0.214 C 
ATOM      5  C   UNL     1       8.454   1.792  24.810  0.00  0.00    +0.340 C 
ATOM      6  O   UNL     1       7.257   1.079  24.423  0.00  0.00    -0.331 OA
ENDROOT
BRANCH   3   7
ATOM      7  O   UNL     1      10.187   1.136  21.507  0.00  0.00    -0.386 OA
ATOM      8  H   UNL     1       9.539   1.709  21.052  0.00  0.00    +0.210 HD
ENDBRANCH   3   7
BRANCH   4   9
ATOM      9  O   UNL     1      10.565   2.725  23.795  0.00  0.00    -0.383 OA
ATOM     10  H   UNL     1      10.366   3.665  24.009  0.00  0.00    +0.210 HD
ENDBRANCH   4   9
BRANCH   2  11
ATOM     11  O   UNL     1       8.646  -1.318  21.983  0.00  0.00    -0.386 OA
ATOM     12  H   UNL     1       8.723  -1.213  21.021  0.00  0.00    +0.210 HD
ENDBRANCH   2  11
BRANCH   5  13
ATOM     13  O   UNL     1       8.145   3.030  25.472  0.00  0.00    -0.453 OA
BRANCH  13  14
ATOM     14  C   UNL     1       7.265   3.897  24.826  0.00  0.00    +0.214 A 
ATOM     15  C   UNL     1       5.793   3.628  24.680  0.00  0.00    +0.238 A 
ATOM     16  O   UNL     1       5.166   2.952  25.493  0.00  0.00    -0.283 OA
ATOM     17  C   UNL     1       5.068   4.376  23.657  0.00  0.00    +0.109 A 
ATOM     18  C   UNL     1       5.581   5.622  23.323  0.00  0.00    +0.147 A 
ATOM     19  C   UNL     1       4.821   6.499  22.550  0.00  0.00    +0.092 A 
ATOM     20  C   UNL     1       3.563   6.095  22.104  0.00  0.00    +0.124 A 
ATOM     21  C   UNL     1       3.075   4.819  22.373  0.00  0.00    +0.091 A 
ATOM     22  O   UNL     1       6.811   6.047  23.766  0.00  0.00    -0.451 OA
ATOM     23  C   UNL     1       3.834   3.953  23.149  0.00  0.00    +0.135 A 
ATOM     24  C   UNL     1       7.640   5.123  24.394  0.00  0.00    +0.181 A 
BRANCH  24  25
ATOM     25  C   UNL     1       8.965   5.689  24.703  0.00  0.00    +0.025 A 
ATOM     26  C   UNL     1       9.291   6.174  25.976  0.00  0.00    +0.060 A 
ATOM     27  C   UNL     1      10.581   6.645  26.212  0.00  0.00    +0.159 A 
ATOM     28  C   UNL     1      11.548   6.640  25.208  0.00  0.00    +0.158 A 
ATOM     29  C   UNL     1      11.238   6.164  23.942  0.00  0.00    +0.050 A 
ATOM     30  C   UNL     1       9.947   5.691  23.693  0.00  0.00    +0.015 A 
BRANCH  28  31
ATOM     31  O   UNL     1      12.794   7.108  25.517  0.00  0.00    -0.503 OA
ATOM     32  H   UNL     1      13.221   7.401  24.691  0.00  0.00    +0.292 HD
ENDBRANCH  28  31
BRANCH  27  33
ATOM     33  O   UNL     1      10.908   7.106  27.456  0.00  0.00    -0.503 OA
ATOM     34  H   UNL     1      10.510   7.998  27.498  0.00  0.00    +0.292 HD
ENDBRANCH  27  33
ENDBRANCH  24  25
BRANCH  23  35
ATOM     35  O   UNL     1       3.378   2.690  23.401  0.00  0.00    -0.506 OA
ATOM     36  H   UNL     1       3.407   2.514  24.357  0.00  0.00    +0.292 HD
ENDBRANCH  23  35
BRANCH  20  37
ATOM     37  O   UNL     1       2.755   6.931  21.391  0.00  0.00    -0.507 OA
ATOM     38  H   UNL     1       1.916   6.479  21.200  0.00  0.00    +0.292 HD
ENDBRANCH  20  37
ENDBRANCH  13  14
ENDBRANCH   5  13
BRANCH   1  39
ATOM     39  C   UNL     1       6.387  -1.136  23.785  0.00  0.00    +0.197 C 
BRANCH  39  40
ATOM     40  O   UNL     1       6.808  -2.492  23.577  0.00  0.00    -0.346 OA
BRANCH  40  46
ATOM     41  C   UNL     1       5.225  -5.096  27.189  0.00  0.00    +0.041 C 
ATOM     42  C   UNL     1       6.485  -4.452  26.621  0.00  0.00    +0.149 C 
ATOM     43  C   UNL     1       7.605  -5.486  26.430  0.00  0.00    +0.174 C 
ATOM     44  C   UNL     1       8.813  -4.799  25.781  0.00  0.00    +0.179 C 
ATOM     45  C   UNL     1       8.412  -4.057  24.502  0.00  0.00    +0.201 C 
ATOM     46  C   UNL     1       7.230  -3.105  24.800  0.00  0.00    +0.282 C 
ATOM     47  O   UNL     1       6.145  -3.830  25.381  0.00  0.00    -0.343 OA
BRANCH  45  48
ATOM     48  O   UNL     1       9.592  -3.393  24.010  0.00  0.00    -0.384 OA
ATOM     49  H   UNL     1      10.340  -4.014  24.061  0.00  0.00    +0.210 HD
ENDBRANCH  45  48
BRANCH  44  50
ATOM     50  O   UNL     1       9.840  -5.756  25.492  0.00  0.00    -0.386 OA
ATOM     51  H   UNL     1      10.685  -5.259  25.513  0.00  0.00    +0.210 HD
ENDBRANCH  44  50
BRANCH  43  52
ATOM     52  O   UNL     1       7.937  -6.060  27.698  0.00  0.00    -0.387 OA
ATOM     53  H   UNL     1       8.812  -6.479  27.627  0.00  0.00    +0.210 HD
ENDBRANCH  43  52
ENDBRANCH  40  46
ENDBRANCH  39  40
ENDBRANCH   1  39
TORSDOF 16
ENDMDL
MODEL 4
REMARK VINA RESULT:      -7.0      2.804      5.994
REMARK  Name = 
REMARK  17 active torsions:
REMARK  status: ('A' for Active; 'I' for Inactive)
REMARK    1  A    between atoms: C_1  and  C_2
REMARK    2  A    between atoms: C_5  and  O_7
REMARK    3  A    between atoms: O_7  and  C_8
REMARK    4  A    between atoms: C_8  and  C_9
REMARK    5  A    between atoms: C_12  and  O_14
REMARK    6  A    between atoms: O_14  and  C_15
REMARK    7  A    between atoms: C_16  and  C_28
REMARK    8  A    between atoms: C_20  and  O_21
REMARK    9  A    between atoms: C_23  and  O_24
REMARK   10  A    between atoms: C_31  and  O_32
REMARK   11  A    between atoms: C_33  and  O_34
REMARK   12  A    between atoms: C_36  and  O_38
REMARK   13  A    between atoms: C_39  and  O_41
REMARK   14  A    between atoms: C_42  and  O_44
REMARK   15  A    between atoms: C_45  and  O_47
REMARK   16  A    between atoms: C_48  and  O_50
REMARK   17  A    between atoms: C_51  and  O_53
REMARK                            x       y       z     vdW  Elec       q    Type
REMARK                         _______ _______ _______ _____ _____    ______ ____
ROOT
ATOM      1  C   UNL     1       8.058   2.525  24.299  0.00  0.00    +0.179 C 
ATOM      2  C   UNL     1       9.109   3.034  23.299  0.00  0.00    +0.177 C 
ATOM      3  C   UNL     1       9.407   1.928  22.277  0.00  0.00    +0.180 C 
ATOM      4  C   UNL     1       9.721   0.592  22.955  0.00  0.00    +0.214 C 
ATOM      5  C   UNL     1       8.665   0.257  24.040  0.00  0.00    +0.340 C 
ATOM      6  O   UNL     1       8.585   1.359  24.972  0.00  0.00    -0.331 OA
ENDROOT
BRANCH   3   7
ATOM      7  O   UNL     1      10.513   2.297  21.438  0.00  0.00    -0.386 OA
ATOM      8  H   UNL     1      11.210   1.633  21.608  0.00  0.00    +0.210 HD
ENDBRANCH   3   7
BRANCH   4   9
ATOM      9  O   UNL     1       9.847  -0.393  21.909  0.00  0.00    -0.383 OA
ATOM     10  H   UNL     1      10.704  -0.217  21.460  0.00  0.00    +0.210 HD
ENDBRANCH   4   9
BRANCH   2  11
ATOM     11  O   UNL     1       8.664   4.229  22.651  0.00  0.00    -0.386 OA
ATOM     12  H   UNL     1       8.069   3.988  21.922  0.00  0.00    +0.210 HD
ENDBRANCH   2  11
BRANCH   5  13
ATOM     13  O   UNL     1       9.030  -0.969  24.696  0.00  0.00    -0.453 OA
BRANCH  13  14
ATOM     14  C   UNL     1       8.077  -1.986  24.723  0.00  0.00    +0.214 A 
ATOM     15  C   UNL     1       8.259  -3.312  24.038  0.00  0.00    +0.238 A 
ATOM     16  O   UNL     1       9.368  -3.806  23.851  0.00  0.00    -0.283 OA
ATOM     17  C   UNL     1       7.064  -4.114  23.792  0.00  0.00    +0.109 A 
ATOM     18  C   UNL     1       6.002  -3.925  24.665  0.00  0.00    +0.147 A 
ATOM     19  C   UNL     1       4.931  -4.818  24.657  0.00  0.00    +0.092 A 
ATOM     20  C   UNL     1       4.936  -5.875  23.746  0.00  0.00    +0.124 A 
ATOM     21  C   UNL     1       5.962  -6.025  22.818  0.00  0.00    +0.091 A 
ATOM     22  O   UNL     1       5.984  -2.900  25.581  0.00  0.00    -0.451 OA
ATOM     23  C   UNL     1       7.029  -5.137  22.836  0.00  0.00    +0.135 A 
ATOM     24  C   UNL     1       6.962  -1.915  25.487  0.00  0.00    +0.181 A 
BRANCH  24  25
ATOM     25  C   UNL     1       6.744  -0.825  26.454  0.00  0.00    +0.025 A 
ATOM     26  C   UNL     1       7.668  -0.527  27.463  0.00  0.00    +0.060 A 
ATOM     27  C   UNL     1       7.423   0.553  28.309  0.00  0.00    +0.159 A 
ATOM     28  C   UNL     1       6.282   1.340  28.166  0.00  0.00    +0.158 A 
ATOM     29  C   UNL     1       5.357   1.055  27.171  0.00  0.00    +0.050 A 
ATOM     30  C   UNL     1       5.591  -0.028  26.318  0.00  0.00    +0.015 A 
BRANCH  28  31
ATOM     31  O   UNL     1       6.115   2.388  29.026  0.00  0.00    -0.503 OA
ATOM     32  H   UNL     1       6.989   2.787  29.190  0.00  0.00    +0.292 HD
ENDBRANCH  28  31
BRANCH  27  33
ATOM     33  O   UNL     1       8.329   0.856  29.286  0.00  0.00    -0.503 OA
ATOM     34  H   UNL     1       8.332   1.832  29.323  0.00  0.00    +0.292 HD
ENDBRANCH  27  33
ENDBRANCH  24  25
BRANCH  23  35
ATOM     35  O   UNL     1       8.031  -5.258  21.916  0.00  0.00    -0.506 OA
ATOM     36  H   UNL     1       8.894  -5.167  22.354  0.00  0.00    +0.292 HD
ENDBRANCH  23  35
BRANCH  20  37
ATOM     37  O   UNL     1       3.942  -6.809  23.730  0.00  0.00    -0.507 OA
ATOM     38  H   UNL     1       3.305  -6.610  24.438  0.00  0.00    +0.292 HD
ENDBRANCH  20  37
ENDBRANCH  13  14
ENDBRANCH   5  13
BRANCH   1  39
ATOM     39  C   UNL     1       7.658   3.620  25.297  0.00  0.00    +0.197 C 
BRANCH  39  40
ATOM     40  O   UNL     1       6.643   4.454  24.720  0.00  0.00    -0.346 OA
BRANCH  40  46
ATOM     41  C   UNL     1       2.291   3.103  25.972  0.00  0.00    +0.041 C 
ATOM     42  C   UNL     1       3.309   3.013  24.840  0.00  0.00    +0.149 C 
ATOM     43  C   UNL     1       2.718   3.516  23.514  0.00  0.00    +0.174 C 
ATOM     44  C   UNL     1       3.809   3.479  22.437  0.00  0.00    +0.179 C 
ATOM     45  C   UNL     1       5.069   4.223  22.891  0.00  0.00    +0.201 C 
ATOM     46  C   UNL     1       5.524   3.685  24.268  0.00  0.00    +0.282 C 
ATOM     47  O   UNL     1       4.457   3.776  25.213  0.00  0.00    -0.343 OA
BRANCH  45  48
ATOM     48  O   UNL     1       6.049   4.073  21.847  0.00  0.00    -0.384 OA
ATOM     49  H   UNL     1       5.624   4.265  20.993  0.00  0.00    +0.210 HD
ENDBRANCH  45  48
BRANCH  44  50
ATOM     50  O   UNL     1       3.323   4.041  21.210  0.00  0.00    -0.386 OA
ATOM     51  H   UNL     1       2.814   4.840  21.464  0.00  0.00    +0.210 HD
ENDBRANCH  44  50
BRANCH  43  52
ATOM     52  O   UNL     1       1.594   2.705  23.161  0.00  0.00    -0.387 OA
ATOM     53  H   UNL     1       1.827   2.179  22.377  0.00  0.00    +0.210 HD
ENDBRANCH  43  52
ENDBRANCH  40  46
ENDBRANCH  39  40
ENDBRANCH   1  39
TORSDOF 16
ENDMDL
MODEL 5
REMARK VINA RESULT:      -7.0      0.853      1.249
REMARK  Name = 
REMARK  17 active torsions:
REMARK  status: ('A' for Active; 'I' for Inactive)
REMARK    1  A    between atoms: C_1  and  C_2
REMARK    2  A    between atoms: C_5  and  O_7
REMARK    3  A    between atoms: O_7  and  C_8
REMARK    4  A    between atoms: C_8  and  C_9
REMARK    5  A    between atoms: C_12  and  O_14
REMARK    6  A    between atoms: O_14  and  C_15
REMARK    7  A    between atoms: C_16  and  C_28
REMARK    8  A    between atoms: C_20  and  O_21
REMARK    9  A    between atoms: C_23  and  O_24
REMARK   10  A    between atoms: C_31  and  O_32
REMARK   11  A    between atoms: C_33  and  O_34
REMARK   12  A    between atoms: C_36  and  O_38
REMARK   13  A    between atoms: C_39  and  O_41
REMARK   14  A    between atoms: C_42  and  O_44
REMARK   15  A    between atoms: C_45  and  O_47
REMARK   16  A    between atoms: C_48  and  O_50
REMARK   17  A    between atoms: C_51  and  O_53
REMARK                            x       y       z     vdW  Elec       q    Type
REMARK                         _______ _______ _______ _____ _____    ______ ____
ROOT
ATOM      1  C   UNL     1       5.949   3.723  27.254  0.00  0.00    +0.179 C 
ATOM      2  C   UNL     1       4.528   4.307  27.300  0.00  0.00    +0.177 C 
ATOM      3  C   UNL     1       3.512   3.156  27.301  0.00  0.00    +0.180 C 
ATOM      4  C   UNL     1       3.785   2.151  26.179  0.00  0.00    +0.214 C 
ATOM      5  C   UNL     1       5.281   1.746  26.148  0.00  0.00    +0.340 C 
ATOM      6  O   UNL     1       6.089   2.941  26.046  0.00  0.00    -0.331 OA
ENDROOT
BRANCH   3   7
ATOM      7  O   UNL     1       2.174   3.660  27.160  0.00  0.00    -0.386 OA
ATOM      8  H   UNL     1       1.646   2.920  26.801  0.00  0.00    +0.210 HD
ENDBRANCH   3   7
BRANCH   4   9
ATOM      9  O   UNL     1       2.866   1.055  26.359  0.00  0.00    -0.383 OA
ATOM     10  H   UNL     1       2.499   0.849  25.470  0.00  0.00    +0.210 HD
ENDBRANCH   4   9
BRANCH   2  11
ATOM     11  O   UNL     1       4.356   5.147  28.445  0.00  0.00    -0.386 OA
ATOM     12  H   UNL     1       4.601   4.648  29.241  0.00  0.00    +0.210 HD
ENDBRANCH   2  11
BRANCH   5  13
ATOM     13  O   UNL     1       5.510   0.854  25.044  0.00  0.00    -0.453 OA
BRANCH  13  14
ATOM     14  C   UNL     1       6.025  -0.407  25.339  0.00  0.00    +0.214 A 
ATOM     15  C   UNL     1       5.203  -1.524  25.920  0.00  0.00    +0.238 A 
ATOM     16  O   UNL     1       3.994  -1.621  25.721  0.00  0.00    -0.283 OA
ATOM     17  C   UNL     1       5.918  -2.628  26.554  0.00  0.00    +0.109 A 
ATOM     18  C   UNL     1       7.201  -2.881  26.091  0.00  0.00    +0.147 A 
ATOM     19  C   UNL     1       7.851  -4.059  26.459  0.00  0.00    +0.092 A 
ATOM     20  C   UNL     1       7.204  -4.952  27.313  0.00  0.00    +0.124 A 
ATOM     21  C   UNL     1       5.947  -4.668  27.840  0.00  0.00    +0.091 A 
ATOM     22  O   UNL     1       7.850  -2.022  25.237  0.00  0.00    -0.451 OA
ATOM     23  C   UNL     1       5.303  -3.498  27.464  0.00  0.00    +0.135 A 
ATOM     24  C   UNL     1       7.281  -0.775  24.997  0.00  0.00    +0.181 A 
BRANCH  24  25
ATOM     25  C   UNL     1       8.146   0.076  24.161  0.00  0.00    +0.025 A 
ATOM     26  C   UNL     1       8.000   0.152  22.771  0.00  0.00    +0.060 A 
ATOM     27  C   UNL     1       8.818   1.020  22.050  0.00  0.00    +0.159 A 
ATOM     28  C   UNL     1       9.771   1.813  22.686  0.00  0.00    +0.158 A 
ATOM     29  C   UNL     1       9.927   1.747  24.064  0.00  0.00    +0.050 A 
ATOM     30  C   UNL     1       9.115   0.878  24.797  0.00  0.00    +0.015 A 
BRANCH  28  31
ATOM     31  O   UNL     1      10.528   2.648  21.915  0.00  0.00    -0.503 OA
ATOM     32  H   UNL     1      10.185   3.553  22.021  0.00  0.00    +0.292 HD
ENDBRANCH  28  31
BRANCH  27  33
ATOM     33  O   UNL     1       8.669   1.107  20.694  0.00  0.00    -0.503 OA
ATOM     34  H   UNL     1       9.383   0.546  20.334  0.00  0.00    +0.292 HD
ENDBRANCH  27  33
ENDBRANCH  24  25
BRANCH  23  35
ATOM     35  O   UNL     1       4.080  -3.195  27.991  0.00  0.00    -0.506 OA
ATOM     36  H   UNL     1       3.553  -2.700  27.341  0.00  0.00    +0.292 HD
ENDBRANCH  23  35
BRANCH  20  37
ATOM     37  O   UNL     1       7.770  -6.143  27.662  0.00  0.00    -0.507 OA
ATOM     38  H   UNL     1       7.619  -6.790  26.952  0.00  0.00    +0.292 HD
ENDBRANCH  20  37
ENDBRANCH  13  14
ENDBRANCH   5  13
BRANCH   1  39
ATOM     39  C   UNL     1       7.011   4.828  27.336  0.00  0.00    +0.197 C 
BRANCH  39  40
ATOM     40  O   UNL     1       6.552   5.994  26.636  0.00  0.00    -0.346 OA
BRANCH  40  46
ATOM     41  C   UNL     1      11.086   6.815  25.586  0.00  0.00    +0.041 C 
ATOM     42  C   UNL     1       9.699   6.709  24.962  0.00  0.00    +0.149 C 
ATOM     43  C   UNL     1       9.674   5.676  23.825  0.00  0.00    +0.174 C 
ATOM     44  C   UNL     1       8.239   5.553  23.295  0.00  0.00    +0.179 C 
ATOM     45  C   UNL     1       7.248   5.271  24.428  0.00  0.00    +0.201 C 
ATOM     46  C   UNL     1       7.418   6.327  25.545  0.00  0.00    +0.282 C 
ATOM     47  O   UNL     1       8.775   6.359  25.993  0.00  0.00    -0.343 OA
BRANCH  45  48
ATOM     48  O   UNL     1       5.932   5.242  23.842  0.00  0.00    -0.384 OA
ATOM     49  H   UNL     1       5.276   5.164  24.557  0.00  0.00    +0.210 HD
ENDBRANCH  45  48
BRANCH  44  50
ATOM     50  O   UNL     1       8.157   4.521  22.303  0.00  0.00    -0.386 OA
ATOM     51  H   UNL     1       8.260   4.971  21.438  0.00  0.00    +0.210 HD
ENDBRANCH  44  50
BRANCH  43  52
ATOM     52  O   UNL     1      10.586   6.080  22.801  0.00  0.00    -0.387 OA
ATOM     53  H   UNL     1      11.193   6.744  23.172  0.00  0.00    +0.210 HD
ENDBRANCH  43  52
ENDBRANCH  40  46
ENDBRANCH  39  40
ENDBRANCH   1  39
TORSDOF 16
ENDMDL
MODEL 6
REMARK VINA RESULT:      -6.9      2.686      8.794
REMARK  Name = 
REMARK  17 active torsions:
REMARK  status: ('A' for Active; 'I' for Inactive)
REMARK    1  A    between atoms: C_1  and  C_2
REMARK    2  A    between atoms: C_5  and  O_7
REMARK    3  A    between atoms: O_7  and  C_8
REMARK    4  A    between atoms: C_8  and  C_9
REMARK    5  A    between atoms: C_12  and  O_14
REMARK    6  A    between atoms: O_14  and  C_15
REMARK    7  A    between atoms: C_16  and  C_28
REMARK    8  A    between atoms: C_20  and  O_21
REMARK    9  A    between atoms: C_23  and  O_24
REMARK   10  A    between atoms: C_31  and  O_32
REMARK   11  A    between atoms: C_33  and  O_34
REMARK   12  A    between atoms: C_36  and  O_38
REMARK   13  A    between atoms: C_39  and  O_41
REMARK   14  A    between atoms: C_42  and  O_44
REMARK   15  A    between atoms: C_45  and  O_47
REMARK   16  A    between atoms: C_48  and  O_50
REMARK   17  A    between atoms: C_51  and  O_53
REMARK                            x       y       z     vdW  Elec       q    Type
REMARK                         _______ _______ _______ _____ _____    ______ ____
ROOT
ATOM      1  C   UNL     1       6.431  -1.856  26.470  0.00  0.00    +0.179 C 
ATOM      2  C   UNL     1       5.315  -1.913  27.526  0.00  0.00    +0.177 C 
ATOM      3  C   UNL     1       4.516  -0.603  27.484  0.00  0.00    +0.180 C 
ATOM      4  C   UNL     1       5.428   0.625  27.542  0.00  0.00    +0.214 C 
ATOM      5  C   UNL     1       6.594   0.500  26.528  0.00  0.00    +0.340 C 
ATOM      6  O   UNL     1       7.298  -0.739  26.773  0.00  0.00    -0.331 OA
ENDROOT
BRANCH   3   7
ATOM      7  O   UNL     1       3.582  -0.543  28.574  0.00  0.00    -0.386 OA
ATOM      8  H   UNL     1       3.789  -1.309  29.146  0.00  0.00    +0.210 HD
ENDBRANCH   3   7
BRANCH   4   9
ATOM      9  O   UNL     1       4.589   1.783  27.359  0.00  0.00    -0.383 OA
ATOM     10  H   UNL     1       3.723   1.452  27.030  0.00  0.00    +0.210 HD
ENDBRANCH   4   9
BRANCH   2  11
ATOM     11  O   UNL     1       4.464  -3.043  27.311  0.00  0.00    -0.386 OA
ATOM     12  H   UNL     1       4.391  -3.544  28.140  0.00  0.00    +0.210 HD
ENDBRANCH   2  11
BRANCH   5  13
ATOM     13  O   UNL     1       7.462   1.639  26.658  0.00  0.00    -0.453 OA
BRANCH  13  14
ATOM     14  C   UNL     1       7.499   2.537  25.594  0.00  0.00    +0.214 A 
ATOM     15  C   UNL     1       7.189   4.002  25.733  0.00  0.00    +0.238 A 
ATOM     16  O   UNL     1       7.375   4.615  26.782  0.00  0.00    -0.283 OA
ATOM     17  C   UNL     1       6.863   4.741  24.517  0.00  0.00    +0.109 A 
ATOM     18  C   UNL     1       7.407   4.258  23.335  0.00  0.00    +0.147 A 
ATOM     19  C   UNL     1       7.356   5.036  22.179  0.00  0.00    +0.092 A 
ATOM     20  C   UNL     1       6.731   6.282  22.228  0.00  0.00    +0.124 A 
ATOM     21  C   UNL     1       6.119   6.740  23.391  0.00  0.00    +0.091 A 
ATOM     22  O   UNL     1       8.041   3.040  23.269  0.00  0.00    -0.451 OA
ATOM     23  C   UNL     1       6.180   5.964  24.540  0.00  0.00    +0.135 A 
ATOM     24  C   UNL     1       7.953   2.190  24.367  0.00  0.00    +0.181 A 
BRANCH  24  25
ATOM     25  C   UNL     1       8.575   0.880  24.105  0.00  0.00    +0.025 A 
ATOM     26  C   UNL     1       7.962  -0.090  23.305  0.00  0.00    +0.060 A 
ATOM     27  C   UNL     1       8.633  -1.286  23.054  0.00  0.00    +0.159 A 
ATOM     28  C   UNL     1       9.899  -1.529  23.583  0.00  0.00    +0.158 A 
ATOM     29  C   UNL     1      10.519  -0.576  24.379  0.00  0.00    +0.050 A 
ATOM     30  C   UNL     1       9.854   0.626  24.639  0.00  0.00    +0.015 A 
BRANCH  28  31
ATOM     31  O   UNL     1      10.499  -2.720  23.285  0.00  0.00    -0.503 OA
ATOM     32  H   UNL     1       9.807  -3.403  23.231  0.00  0.00    +0.292 HD
ENDBRANCH  28  31
BRANCH  27  33
ATOM     33  O   UNL     1       8.043  -2.231  22.262  0.00  0.00    -0.503 OA
ATOM     34  H   UNL     1       7.092  -2.170  22.476  0.00  0.00    +0.292 HD
ENDBRANCH  27  33
ENDBRANCH  24  25
BRANCH  23  35
ATOM     35  O   UNL     1       5.563   6.389  25.682  0.00  0.00    -0.506 OA
ATOM     36  H   UNL     1       5.950   5.941  26.453  0.00  0.00    +0.292 HD
ENDBRANCH  23  35
BRANCH  20  37
ATOM     37  O   UNL     1       6.700   7.108  21.143  0.00  0.00    -0.507 OA
ATOM     38  H   UNL     1       7.021   7.988  21.401  0.00  0.00    +0.292 HD
ENDBRANCH  20  37
ENDBRANCH  13  14
ENDBRANCH   5  13
BRANCH   1  39
ATOM     39  C   UNL     1       7.212  -3.175  26.408  0.00  0.00    +0.197 C 
BRANCH  39  40
ATOM     40  O   UNL     1       7.351  -3.593  25.042  0.00  0.00    -0.346 OA
BRANCH  40  46
ATOM     41  C   UNL     1       4.094  -6.556  26.758  0.00  0.00    +0.041 C 
ATOM     42  C   UNL     1       5.109  -6.392  25.632  0.00  0.00    +0.149 C 
ATOM     43  C   UNL     1       4.445  -6.538  24.254  0.00  0.00    +0.174 C 
ATOM     44  C   UNL     1       5.494  -6.281  23.165  0.00  0.00    +0.179 C 
ATOM     45  C   UNL     1       6.211  -4.945  23.385  0.00  0.00    +0.201 C 
ATOM     46  C   UNL     1       6.769  -4.883  24.825  0.00  0.00    +0.282 C 
ATOM     47  O   UNL     1       5.724  -5.111  25.772  0.00  0.00    -0.343 OA
BRANCH  45  48
ATOM     48  O   UNL     1       7.215  -4.830  22.359  0.00  0.00    -0.384 OA
ATOM     49  H   UNL     1       7.286  -3.895  22.098  0.00  0.00    +0.210 HD
ENDBRANCH  45  48
BRANCH  44  50
ATOM     50  O   UNL     1       4.887  -6.305  21.867  0.00  0.00    -0.386 OA
ATOM     51  H   UNL     1       4.752  -7.252  21.651  0.00  0.00    +0.210 HD
ENDBRANCH  44  50
BRANCH  43  52
ATOM     52  O   UNL     1       3.871  -7.844  24.143  0.00  0.00    -0.387 OA
ATOM     53  H   UNL     1       2.987  -7.828  24.548  0.00  0.00    +0.210 HD
ENDBRANCH  43  52
ENDBRANCH  40  46
ENDBRANCH  39  40
ENDBRANCH   1  39
TORSDOF 16
ENDMDL
MODEL 7
REMARK VINA RESULT:      -6.9      2.865      8.867
REMARK  Name = 
REMARK  17 active torsions:
REMARK  status: ('A' for Active; 'I' for Inactive)
REMARK    1  A    between atoms: C_1  and  C_2
REMARK    2  A    between atoms: C_5  and  O_7
REMARK    3  A    between atoms: O_7  and  C_8
REMARK    4  A    between atoms: C_8  and  C_9
REMARK    5  A    between atoms: C_12  and  O_14
REMARK    6  A    between atoms: O_14  and  C_15
REMARK    7  A    between atoms: C_16  and  C_28
REMARK    8  A    between atoms: C_20  and  O_21
REMARK    9  A    between atoms: C_23  and  O_24
REMARK   10  A    between atoms: C_31  and  O_32
REMARK   11  A    between atoms: C_33  and  O_34
REMARK   12  A    between atoms: C_36  and  O_38
REMARK   13  A    between atoms: C_39  and  O_41
REMARK   14  A    between atoms: C_42  and  O_44
REMARK   15  A    between atoms: C_45  and  O_47
REMARK   16  A    between atoms: C_48  and  O_50
REMARK   17  A    between atoms: C_51  and  O_53
REMARK                            x       y       z     vdW  Elec       q    Type
REMARK                         _______ _______ _______ _____ _____    ______ ____
ROOT
ATOM      1  C   UNL     1       6.476  -3.783  23.517  0.00  0.00    +0.179 C 
ATOM      2  C   UNL     1       7.704  -4.694  23.350  0.00  0.00    +0.177 C 
ATOM      3  C   UNL     1       8.442  -4.794  24.693  0.00  0.00    +0.180 C 
ATOM      4  C   UNL     1       8.710  -3.415  25.302  0.00  0.00    +0.214 C 
ATOM      5  C   UNL     1       7.429  -2.541  25.285  0.00  0.00    +0.340 C 
ATOM      6  O   UNL     1       6.925  -2.473  23.932  0.00  0.00    -0.331 OA
ENDROOT
BRANCH   3   7
ATOM      7  O   UNL     1       9.690  -5.486  24.536  0.00  0.00    -0.386 OA
ATOM      8  H   UNL     1       9.494  -6.431  24.693  0.00  0.00    +0.210 HD
ENDBRANCH   3   7
BRANCH   4   9
ATOM      9  O   UNL     1       9.276  -3.633  26.610  0.00  0.00    -0.383 OA
ATOM     10  H   UNL     1       8.536  -3.546  27.253  0.00  0.00    +0.210 HD
ENDBRANCH   4   9
BRANCH   2  11
ATOM     11  O   UNL     1       7.321  -5.987  22.875  0.00  0.00    -0.386 OA
ATOM     12  H   UNL     1       6.398  -5.952  22.574  0.00  0.00    +0.210 HD
ENDBRANCH   2  11
BRANCH   5  13
ATOM     13  O   UNL     1       7.737  -1.236  25.804  0.00  0.00    -0.453 OA
BRANCH  13  14
ATOM     14  C   UNL     1       6.683  -0.333  25.926  0.00  0.00    +0.214 A 
ATOM     15  C   UNL     1       5.632  -0.424  26.997  0.00  0.00    +0.238 A 
ATOM     16  O   UNL     1       5.856  -0.929  28.095  0.00  0.00    -0.283 OA
ATOM     17  C   UNL     1       4.386   0.306  26.783  0.00  0.00    +0.109 A 
ATOM     18  C   UNL     1       4.460   1.436  25.980  0.00  0.00    +0.147 A 
ATOM     19  C   UNL     1       3.386   2.322  25.929  0.00  0.00    +0.092 A 
ATOM     20  C   UNL     1       2.238   2.040  26.670  0.00  0.00    +0.124 A 
ATOM     21  C   UNL     1       2.129   0.871  27.418  0.00  0.00    +0.091 A 
ATOM     22  O   UNL     1       5.588   1.741  25.255  0.00  0.00    -0.451 OA
ATOM     23  C   UNL     1       3.205  -0.003  27.470  0.00  0.00    +0.135 A 
ATOM     24  C   UNL     1       6.596   0.786  25.170  0.00  0.00    +0.181 A 
BRANCH  24  25
ATOM     25  C   UNL     1       7.681   1.205  24.265  0.00  0.00    +0.025 A 
ATOM     26  C   UNL     1       7.662   0.920  22.895  0.00  0.00    +0.060 A 
ATOM     27  C   UNL     1       8.695   1.395  22.089  0.00  0.00    +0.159 A 
ATOM     28  C   UNL     1       9.740   2.148  22.621  0.00  0.00    +0.158 A 
ATOM     29  C   UNL     1       9.772   2.438  23.978  0.00  0.00    +0.050 A 
ATOM     30  C   UNL     1       8.742   1.964  24.796  0.00  0.00    +0.015 A 
BRANCH  28  31
ATOM     31  O   UNL     1      10.711   2.589  21.767  0.00  0.00    -0.503 OA
ATOM     32  H   UNL     1      10.923   1.865  21.150  0.00  0.00    +0.292 HD
ENDBRANCH  28  31
BRANCH  27  33
ATOM     33  O   UNL     1       8.673   1.130  20.748  0.00  0.00    -0.503 OA
ATOM     34  H   UNL     1       8.933   0.191  20.680  0.00  0.00    +0.292 HD
ENDBRANCH  27  33
ENDBRANCH  24  25
BRANCH  23  35
ATOM     35  O   UNL     1       3.103  -1.166  28.180  0.00  0.00    -0.506 OA
ATOM     36  H   UNL     1       2.571  -1.810  27.684  0.00  0.00    +0.292 HD
ENDBRANCH  23  35
BRANCH  20  37
ATOM     37  O   UNL     1       1.178   2.898  26.700  0.00  0.00    -0.507 OA
ATOM     38  H   UNL     1       0.749   2.846  27.571  0.00  0.00    +0.292 HD
ENDBRANCH  20  37
ENDBRANCH  13  14
ENDBRANCH   5  13
BRANCH   1  39
ATOM     39  C   UNL     1       5.651  -3.713  22.225  0.00  0.00    +0.197 C 
BRANCH  39  40
ATOM     40  O   UNL     1       4.512  -4.579  22.330  0.00  0.00    -0.346 OA
BRANCH  40  46
ATOM     41  C   UNL     1       1.654  -3.435  25.916  0.00  0.00    +0.041 C 
ATOM     42  C   UNL     1       2.776  -4.388  25.518  0.00  0.00    +0.149 C 
ATOM     43  C   UNL     1       2.364  -5.854  25.722  0.00  0.00    +0.174 C 
ATOM     44  C   UNL     1       3.497  -6.763  25.228  0.00  0.00    +0.179 C 
ATOM     45  C   UNL     1       3.907  -6.414  23.794  0.00  0.00    +0.201 C 
ATOM     46  C   UNL     1       4.223  -4.904  23.694  0.00  0.00    +0.282 C 
ATOM     47  O   UNL     1       3.110  -4.134  24.153  0.00  0.00    -0.343 OA
BRANCH  45  48
ATOM     48  O   UNL     1       5.014  -7.270  23.451  0.00  0.00    -0.384 OA
ATOM     49  H   UNL     1       5.739  -6.717  23.110  0.00  0.00    +0.210 HD
ENDBRANCH  45  48
BRANCH  44  50
ATOM     50  O   UNL     1       3.106  -8.140  25.306  0.00  0.00    -0.386 OA
ATOM     51  H   UNL     1       2.131  -8.148  25.208  0.00  0.00    +0.210 HD
ENDBRANCH  44  50
BRANCH  43  52
ATOM     52  O   UNL     1       2.071  -6.073  27.105  0.00  0.00    -0.387 OA
ATOM     53  H   UNL     1       2.689  -6.740  27.450  0.00  0.00    +0.210 HD
ENDBRANCH  43  52
ENDBRANCH  40  46
ENDBRANCH  39  40
ENDBRANCH   1  39
TORSDOF 16
ENDMDL
MODEL 8
REMARK VINA RESULT:      -6.9      2.633      7.262
REMARK  Name = 
REMARK  17 active torsions:
REMARK  status: ('A' for Active; 'I' for Inactive)
REMARK    1  A    between atoms: C_1  and  C_2
REMARK    2  A    between atoms: C_5  and  O_7
REMARK    3  A    between atoms: O_7  and  C_8
REMARK    4  A    between atoms: C_8  and  C_9
REMARK    5  A    between atoms: C_12  and  O_14
REMARK    6  A    between atoms: O_14  and  C_15
REMARK    7  A    between atoms: C_16  and  C_28
REMARK    8  A    between atoms: C_20  and  O_21
REMARK    9  A    between atoms: C_23  and  O_24
REMARK   10  A    between atoms: C_31  and  O_32
REMARK   11  A    between atoms: C_33  and  O_34
REMARK   12  A    between atoms: C_36  and  O_38
REMARK   13  A    between atoms: C_39  and  O_41
REMARK   14  A    between atoms: C_42  and  O_44
REMARK   15  A    between atoms: C_45  and  O_47
REMARK   16  A    between atoms: C_48  and  O_50
REMARK   17  A    between atoms: C_51  and  O_53
REMARK                            x       y       z     vdW  Elec       q    Type
REMARK                         _______ _______ _______ _____ _____    ______ ____
ROOT
ATOM      1  C   UNL     1       6.006  -2.887  27.511  0.00  0.00    +0.179 C 
ATOM      2  C   UNL     1       5.441  -4.305  27.695  0.00  0.00    +0.177 C 
ATOM      3  C   UNL     1       6.580  -5.323  27.547  0.00  0.00    +0.180 C 
ATOM      4  C   UNL     1       7.394  -5.089  26.272  0.00  0.00    +0.214 C 
ATOM      5  C   UNL     1       7.785  -3.595  26.128  0.00  0.00    +0.340 C 
ATOM      6  O   UNL     1       6.587  -2.788  26.191  0.00  0.00    -0.331 OA
ENDROOT
BRANCH   3   7
ATOM      7  O   UNL     1       6.065  -6.663  27.532  0.00  0.00    -0.386 OA
ATOM      8  H   UNL     1       5.174  -6.602  27.133  0.00  0.00    +0.210 HD
ENDBRANCH   3   7
BRANCH   4   9
ATOM      9  O   UNL     1       8.508  -6.004  26.306  0.00  0.00    -0.383 OA
ATOM     10  H   UNL     1       9.298  -5.473  26.556  0.00  0.00    +0.210 HD
ENDBRANCH   4   9
BRANCH   2  11
ATOM     11  O   UNL     1       4.793  -4.437  28.963  0.00  0.00    -0.386 OA
ATOM     12  H   UNL     1       4.532  -3.555  29.277  0.00  0.00    +0.210 HD
ENDBRANCH   2  11
BRANCH   5  13
ATOM     13  O   UNL     1       8.490  -3.405  24.890  0.00  0.00    -0.453 OA
BRANCH  13  14
ATOM     14  C   UNL     1       8.229  -2.234  24.180  0.00  0.00    +0.214 A 
ATOM     15  C   UNL     1       9.188  -1.079  24.101  0.00  0.00    +0.238 A 
ATOM     16  O   UNL     1      10.405  -1.230  24.193  0.00  0.00    -0.283 OA
ATOM     17  C   UNL     1       8.654   0.216  23.691  0.00  0.00    +0.109 A 
ATOM     18  C   UNL     1       7.532   0.191  22.874  0.00  0.00    +0.147 A 
ATOM     19  C   UNL     1       7.112   1.358  22.237  0.00  0.00    +0.092 A 
ATOM     20  C   UNL     1       7.816   2.542  22.457  0.00  0.00    +0.124 A 
ATOM     21  C   UNL     1       8.897   2.588  23.334  0.00  0.00    +0.091 A 
ATOM     22  O   UNL     1       6.833  -0.968  22.631  0.00  0.00    -0.451 OA
ATOM     23  C   UNL     1       9.314   1.421  23.958  0.00  0.00    +0.135 A 
ATOM     24  C   UNL     1       7.142  -2.095  23.386  0.00  0.00    +0.181 A 
BRANCH  24  25
ATOM     25  C   UNL     1       6.234  -3.219  23.099  0.00  0.00    +0.025 A 
ATOM     26  C   UNL     1       6.610  -4.295  22.286  0.00  0.00    +0.060 A 
ATOM     27  C   UNL     1       5.719  -5.351  22.102  0.00  0.00    +0.159 A 
ATOM     28  C   UNL     1       4.467  -5.356  22.714  0.00  0.00    +0.158 A 
ATOM     29  C   UNL     1       4.080  -4.295  23.522  0.00  0.00    +0.050 A 
ATOM     30  C   UNL     1       4.964  -3.229  23.711  0.00  0.00    +0.015 A 
BRANCH  28  31
ATOM     31  O   UNL     1       3.652  -6.430  22.496  0.00  0.00    -0.503 OA
ATOM     32  H   UNL     1       3.168  -6.280  21.664  0.00  0.00    +0.292 HD
ENDBRANCH  28  31
BRANCH  27  33
ATOM     33  O   UNL     1       6.089  -6.409  21.320  0.00  0.00    -0.503 OA
ATOM     34  H   UNL     1       5.290  -6.969  21.275  0.00  0.00    +0.292 HD
ENDBRANCH  27  33
ENDBRANCH  24  25
BRANCH  23  35
ATOM     35  O   UNL     1      10.358   1.457  24.839  0.00  0.00    -0.506 OA
ATOM     36  H   UNL     1      10.579   0.555  25.125  0.00  0.00    +0.292 HD
ENDBRANCH  23  35
BRANCH  20  37
ATOM     37  O   UNL     1       7.483   3.700  21.819  0.00  0.00    -0.507 OA
ATOM     38  H   UNL     1       6.875   4.210  22.380  0.00  0.00    +0.292 HD
ENDBRANCH  20  37
ENDBRANCH  13  14
ENDBRANCH   5  13
BRANCH   1  39
ATOM     39  C   UNL     1       4.924  -1.820  27.732  0.00  0.00    +0.197 C 
BRANCH  39  40
ATOM     40  O   UNL     1       4.972  -0.855  26.671  0.00  0.00    -0.346 OA
BRANCH  40  46
ATOM     41  C   UNL     1       7.484   1.562  29.861  0.00  0.00    +0.041 C 
ATOM     42  C   UNL     1       6.465   1.733  28.740  0.00  0.00    +0.149 C 
ATOM     43  C   UNL     1       6.967   2.716  27.672  0.00  0.00    +0.174 C 
ATOM     44  C   UNL     1       5.941   2.783  26.534  0.00  0.00    +0.179 C 
ATOM     45  C   UNL     1       5.606   1.387  26.001  0.00  0.00    +0.201 C 
ATOM     46  C   UNL     1       5.189   0.468  27.173  0.00  0.00    +0.282 C 
ATOM     47  O   UNL     1       6.208   0.448  28.173  0.00  0.00    -0.343 OA
BRANCH  45  48
ATOM     48  O   UNL     1       4.592   1.550  24.992  0.00  0.00    -0.384 OA
ATOM     49  H   UNL     1       3.803   1.943  25.406  0.00  0.00    +0.210 HD
ENDBRANCH  45  48
BRANCH  44  50
ATOM     50  O   UNL     1       6.425   3.612  25.468  0.00  0.00    -0.386 OA
ATOM     51  H   UNL     1       6.715   4.449  25.889  0.00  0.00    +0.210 HD
ENDBRANCH  44  50
BRANCH  43  52
ATOM     52  O   UNL     1       7.180   3.997  28.273  0.00  0.00    -0.387 OA
ATOM     53  H   UNL     1       6.435   4.185  28.870  0.00  0.00    +0.210 HD
ENDBRANCH  43  52
ENDBRANCH  40  46
ENDBRANCH  39  40
ENDBRANCH   1  39
TORSDOF 16
ENDMDL
MODEL 9
REMARK VINA RESULT:      -6.8      2.699      8.280
REMARK  Name = 
REMARK  17 active torsions:
REMARK  status: ('A' for Active; 'I' for Inactive)
REMARK    1  A    between atoms: C_1  and  C_2
REMARK    2  A    between atoms: C_5  and  O_7
REMARK    3  A    between atoms: O_7  and  C_8
REMARK    4  A    between atoms: C_8  and  C_9
REMARK    5  A    between atoms: C_12  and  O_14
REMARK    6  A    between atoms: O_14  and  C_15
REMARK    7  A    between atoms: C_16  and  C_28
REMARK    8  A    between atoms: C_20  and  O_21
REMARK    9  A    between atoms: C_23  and  O_24
REMARK   10  A    between atoms: C_31  and  O_32
REMARK   11  A    between atoms: C_33  and  O_34
REMARK   12  A    between atoms: C_36  and  O_38
REMARK   13  A    between atoms: C_39  and  O_41
REMARK   14  A    between atoms: C_42  and  O_44
REMARK   15  A    between atoms: C_45  and  O_47
REMARK   16  A    between atoms: C_48  and  O_50
REMARK   17  A    between atoms: C_51  and  O_53
REMARK                            x       y       z     vdW  Elec       q    Type
REMARK                         _______ _______ _______ _____ _____    ______ ____
ROOT
ATOM      1  C   UNL     1       5.012  -1.070  26.488  0.00  0.00    +0.179 C 
ATOM      2  C   UNL     1       4.612  -1.215  27.966  0.00  0.00    +0.177 C 
ATOM      3  C   UNL     1       4.544   0.179  28.606  0.00  0.00    +0.180 C 
ATOM      4  C   UNL     1       5.810   0.996  28.333  0.00  0.00    +0.214 C 
ATOM      5  C   UNL     1       6.189   0.948  26.830  0.00  0.00    +0.340 C 
ATOM      6  O   UNL     1       6.308  -0.433  26.420  0.00  0.00    -0.331 OA
ENDROOT
BRANCH   3   7
ATOM      7  O   UNL     1       4.352   0.077  30.025  0.00  0.00    -0.386 OA
ATOM      8  H   UNL     1       3.640  -0.581  30.152  0.00  0.00    +0.210 HD
ENDBRANCH   3   7
BRANCH   4   9
ATOM      9  O   UNL     1       5.580   2.320  28.857  0.00  0.00    -0.383 OA
ATOM     10  H   UNL     1       6.099   2.384  29.690  0.00  0.00    +0.210 HD
ENDBRANCH   4   9
BRANCH   2  11
ATOM     11  O   UNL     1       3.364  -1.902  28.094  0.00  0.00    -0.386 OA
ATOM     12  H   UNL     1       3.282  -2.240  29.001  0.00  0.00    +0.210 HD
ENDBRANCH   2  11
BRANCH   5  13
ATOM     13  O   UNL     1       7.414   1.671  26.626  0.00  0.00    -0.453 OA
BRANCH  13  14
ATOM     14  C   UNL     1       7.460   2.559  25.552  0.00  0.00    +0.214 A 
ATOM     15  C   UNL     1       7.176   4.030  25.679  0.00  0.00    +0.238 A 
ATOM     16  O   UNL     1       7.378   4.650  26.720  0.00  0.00    -0.283 OA
ATOM     17  C   UNL     1       6.856   4.763  24.457  0.00  0.00    +0.109 A 
ATOM     18  C   UNL     1       7.384   4.259  23.277  0.00  0.00    +0.147 A 
ATOM     19  C   UNL     1       7.339   5.026  22.114  0.00  0.00    +0.092 A 
ATOM     20  C   UNL     1       6.736   6.283  22.154  0.00  0.00    +0.124 A 
ATOM     21  C   UNL     1       6.138   6.762  23.316  0.00  0.00    +0.091 A 
ATOM     22  O   UNL     1       7.997   3.029  23.219  0.00  0.00    -0.451 OA
ATOM     23  C   UNL     1       6.193   5.996  24.472  0.00  0.00    +0.135 A 
ATOM     24  C   UNL     1       7.901   2.192  24.326  0.00  0.00    +0.181 A 
BRANCH  24  25
ATOM     25  C   UNL     1       8.500   0.870  24.073  0.00  0.00    +0.025 A 
ATOM     26  C   UNL     1       7.877  -0.090  23.267  0.00  0.00    +0.060 A 
ATOM     27  C   UNL     1       8.526  -1.299  23.027  0.00  0.00    +0.159 A 
ATOM     28  C   UNL     1       9.781  -1.567  23.570  0.00  0.00    +0.158 A 
ATOM     29  C   UNL     1      10.410  -0.625  24.373  0.00  0.00    +0.050 A 
ATOM     30  C   UNL     1       9.767   0.590  24.623  0.00  0.00    +0.015 A 
BRANCH  28  31
ATOM     31  O   UNL     1      10.360  -2.770  23.281  0.00  0.00    -0.503 OA
ATOM     32  H   UNL     1      10.739  -3.129  24.104  0.00  0.00    +0.292 HD
ENDBRANCH  28  31
BRANCH  27  33
ATOM     33  O   UNL     1       7.927  -2.233  22.228  0.00  0.00    -0.503 OA
ATOM     34  H   UNL     1       7.402  -2.780  22.844  0.00  0.00    +0.292 HD
ENDBRANCH  27  33
ENDBRANCH  24  25
BRANCH  23  35
ATOM     35  O   UNL     1       5.590   6.443  25.613  0.00  0.00    -0.506 OA
ATOM     36  H   UNL     1       5.476   7.408  25.570  0.00  0.00    +0.292 HD
ENDBRANCH  23  35
BRANCH  20  37
ATOM     37  O   UNL     1       6.712   7.099  21.061  0.00  0.00    -0.507 OA
ATOM     38  H   UNL     1       6.379   6.599  20.296  0.00  0.00    +0.292 HD
ENDBRANCH  20  37
ENDBRANCH  13  14
ENDBRANCH   5  13
BRANCH   1  39
ATOM     39  C   UNL     1       5.014  -2.429  25.774  0.00  0.00    +0.197 C 
BRANCH  39  40
ATOM     40  O   UNL     1       5.727  -3.391  26.565  0.00  0.00    -0.346 OA
BRANCH  40  46
ATOM     41  C   UNL     1       5.641  -5.158  22.183  0.00  0.00    +0.041 C 
ATOM     42  C   UNL     1       6.306  -5.328  23.545  0.00  0.00    +0.149 C 
ATOM     43  C   UNL     1       7.837  -5.257  23.433  0.00  0.00    +0.174 C 
ATOM     44  C   UNL     1       8.443  -5.350  24.839  0.00  0.00    +0.179 C 
ATOM     45  C   UNL     1       7.829  -4.312  25.783  0.00  0.00    +0.201 C 
ATOM     46  C   UNL     1       6.287  -4.429  25.753  0.00  0.00    +0.282 C 
ATOM     47  O   UNL     1       5.807  -4.310  24.412  0.00  0.00    -0.343 OA
BRANCH  45  48
ATOM     48  O   UNL     1       8.410  -4.525  27.083  0.00  0.00    -0.384 OA
ATOM     49  H   UNL     1       8.964  -5.324  27.048  0.00  0.00    +0.210 HD
ENDBRANCH  45  48
BRANCH  44  50
ATOM     50  O   UNL     1       9.866  -5.181  24.784  0.00  0.00    -0.386 OA
ATOM     51  H   UNL     1      10.042  -4.271  25.102  0.00  0.00    +0.210 HD
ENDBRANCH  44  50
BRANCH  43  52
ATOM     52  O   UNL     1       8.297  -6.312  22.584  0.00  0.00    -0.387 OA
ATOM     53  H   UNL     1       8.946  -6.844  23.077  0.00  0.00    +0.210 HD
ENDBRANCH  43  52
ENDBRANCH  40  46
ENDBRANCH  39  40
ENDBRANCH   1  39
TORSDOF 16
ENDMDL
