MODEL 1
REMARK VINA RESULT:      -7.5      0.000      0.000
REMARK  Name = 
REMARK  13 active torsions:
REMARK  status: ('A' for Active; 'I' for Inactive)
REMARK    1  A    between atoms: C_7  and  C_8
REMARK    2  A    between atoms: C_8  and  C_9
REMARK    3  A    between atoms: C_9  and  C_10
REMARK    4  A    between atoms: C_9  and  C_13
REMARK    5  A    between atoms: C_10  and  C_11
REMARK    6  A    between atoms: C_16  and  C_19
REMARK    7  A    between atoms: N_21  and  CA_22
REMARK    8  A    between atoms: CA_22  and  CB_24
REMARK    9  A    between atoms: CA_22  and  C_29
REMARK   10  A    between atoms: CB_24  and  CG_25
REMARK   11  A    between atoms: CG_25  and  CD_26
REMARK   12  A    between atoms: CD_26  and  OE1_27
REMARK   13  A    between atoms: C_29  and  O_30
REMARK                            x       y       z     vdW  Elec       q    Type
REMARK                         _______ _______ _______ _____ _____    ______ ____
ROOT
ATOM      1  C   UNK A   0      10.489   3.838  23.246  0.00  0.00    +0.037 C 
ENDROOT
BRANCH   1   2
ATOM      2  C   UNK A   0      10.374   2.316  23.134  0.00  0.00    -0.043 A 
ATOM      3  C   UNK A   0      10.603   1.458  24.220  0.00  0.00    +0.005 A 
ATOM      4  C   UNK A   0      10.259   0.106  24.149  0.00  0.00    +0.013 A 
ATOM      5  C   UNK A   0       9.724  -0.416  22.971  0.00  0.00    +0.037 A 
ATOM      6  C   UNK A   0       9.621   0.397  21.838  0.00  0.00    +0.013 A 
ATOM      7  C   UNK A   0       9.940   1.756  21.923  0.00  0.00    +0.005 A 
BRANCH   5   8
ATOM      8  C   UNK A   0       9.293  -1.836  22.952  0.00  0.00    +0.245 C 
ATOM      9  N   GLU A   1       7.928  -2.063  22.858  0.00  0.00    -0.298 N 
ATOM     10  H   GLU A   1       7.309  -1.297  23.106  0.00  0.00    +0.150 HD
ATOM     11  O   UNK A   0      10.113  -2.742  23.003  0.00  0.00    -0.270 OA
BRANCH   9  12
ATOM     12  CA  GLU A   1       7.388  -3.437  22.957  0.00  0.00    +0.182 C 
BRANCH  12  13
ATOM     13  C   GLU A   1       6.025  -3.516  22.231  0.00  0.00    +0.325 C 
ATOM     14  OXT GLU A   1       5.895  -3.770  21.041  0.00  0.00    -0.249 OA
BRANCH  13  15
ATOM     15  O   GLU A   1       4.957  -3.342  23.040  0.00  0.00    -0.479 OA
ATOM     16  H   GLU A   1       4.309  -2.771  22.584  0.00  0.00    +0.295 HD
ENDBRANCH  13  15
ENDBRANCH  12  13
BRANCH  12  17
ATOM     17  CB  GLU A   1       7.271  -3.857  24.433  0.00  0.00    +0.045 C 
BRANCH  17  18
ATOM     18  CG  GLU A   1       8.026  -5.149  24.767  0.00  0.00    +0.123 C 
BRANCH  18  19
ATOM     19  CD  GLU A   1       9.278  -4.900  25.573  0.00  0.00    +0.305 C 
ATOM     20  OE2 GLU A   1       9.302  -4.569  26.748  0.00  0.00    -0.251 OA
BRANCH  19  21
ATOM     21  OE1 GLU A   1      10.401  -5.101  24.847  0.00  0.00    -0.481 OA
ATOM     22  HE1 GLU A   1      10.367  -5.898  24.280  0.00  0.00    +0.295 HD
ENDBRANCH  19  21
ENDBRANCH  18  19
ENDBRANCH  17  18
ENDBRANCH  12  17
ENDBRANCH   9  12
ENDBRANCH   5   8
ENDBRANCH   1   2
BRANCH   1  23
ATOM     23  C   UNK A   0       9.611   4.470  24.383  0.00  0.00    +0.066 C 
BRANCH  23  37
ATOM     24  N   UNK A   0       2.454   2.992  22.296  0.00  0.00    -0.327 N 
ATOM     25  H   UNK A   0       1.784   2.512  22.878  0.00  0.00    +0.145 HD
ATOM     26  H   UNK A   0       2.137   3.773  21.740  0.00  0.00    +0.145 HD
ATOM     27  C   UNK A   0       3.610   3.287  22.981  0.00  0.00    +0.216 A 
ATOM     28  N   UNK A   0       3.882   2.557  24.058  0.00  0.00    -0.198 NA
ATOM     29  C   UNK A   0       5.071   2.770  24.637  0.00  0.00    +0.149 A 
ATOM     30  N   UNK A   0       5.332   1.993  25.779  0.00  0.00    -0.341 N 
ATOM     31  H   UNK A   0       4.626   1.267  25.855  0.00  0.00    +0.144 HD
ATOM     32  H   UNK A   0       6.289   1.652  25.776  0.00  0.00    +0.144 HD
ATOM     33  C   UNK A   0       6.009   3.689  24.179  0.00  0.00    +0.148 A 
ATOM     34  C   UNK A   0       5.582   4.420  23.068  0.00  0.00    +0.185 A 
ATOM     35  N   UNK A   0       6.427   5.288  22.496  0.00  0.00    -0.232 NA
ATOM     36  C   UNK A   0       7.699   5.342  22.962  0.00  0.00    +0.136 A 
ATOM     37  C   UNK A   0       8.142   4.579  24.026  0.00  0.00    +0.061 A 
ATOM     38  N   UNK A   0       7.274   3.790  24.694  0.00  0.00    -0.243 NA
ATOM     39  N   UNK A   0       4.394   4.243  22.495  0.00  0.00    -0.193 NA
ENDBRANCH  23  37
ENDBRANCH   1  23
BRANCH   1  40
ATOM     40  C   UNK A   0      11.983   4.282  23.306  0.00  0.00    +0.097 C 
BRANCH  40  41
ATOM     41  C   UNK A   0      12.072   5.583  24.086  0.00  0.00    -0.105 C 
ATOM     42  C   UNK A   0      12.147   6.700  24.755  0.00  0.00    +0.004 C 
ENDBRANCH  40  41
ENDBRANCH   1  40
TORSDOF 13
ENDMDL
MODEL 2
REMARK VINA RESULT:      -7.5      2.091      3.334
REMARK  Name = 
REMARK  13 active torsions:
REMARK  status: ('A' for Active; 'I' for Inactive)
REMARK    1  A    between atoms: C_7  and  C_8
REMARK    2  A    between atoms: C_8  and  C_9
REMARK    3  A    between atoms: C_9  and  C_10
REMARK    4  A    between atoms: C_9  and  C_13
REMARK    5  A    between atoms: C_10  and  C_11
REMARK    6  A    between atoms: C_16  and  C_19
REMARK    7  A    between atoms: N_21  and  CA_22
REMARK    8  A    between atoms: CA_22  and  CB_24
REMARK    9  A    between atoms: CA_22  and  C_29
REMARK   10  A    between atoms: CB_24  and  CG_25
REMARK   11  A    between atoms: CG_25  and  CD_26
REMARK   12  A    between atoms: CD_26  and  OE1_27
REMARK   13  A    between atoms: C_29  and  O_30
REMARK                            x       y       z     vdW  Elec       q    Type
REMARK                         _______ _______ _______ _____ _____    ______ ____
ROOT
ATOM      1  C   UNK A   0       9.935   0.876  22.561  0.00  0.00    +0.037 C 
ENDROOT
BRANCH   1   2
ATOM      2  C   UNK A   0       9.620  -0.579  22.915  0.00  0.00    -0.043 A 
ATOM      3  C   UNK A   0       9.766  -1.091  24.212  0.00  0.00    +0.005 A 
ATOM      4  C   UNK A   0       9.248  -2.344  24.551  0.00  0.00    +0.013 A 
ATOM      5  C   UNK A   0       8.618  -3.122  23.580  0.00  0.00    +0.037 A 
ATOM      6  C   UNK A   0       8.590  -2.683  22.252  0.00  0.00    +0.013 A 
ATOM      7  C   UNK A   0       9.084  -1.417  21.925  0.00  0.00    +0.005 A 
BRANCH   5   8
ATOM      8  C   UNK A   0       8.006  -4.411  23.987  0.00  0.00    +0.245 C 
ATOM      9  N   GLU A   1       6.630  -4.413  24.154  0.00  0.00    -0.298 N 
ATOM     10  H   GLU A   1       6.174  -3.515  24.285  0.00  0.00    +0.150 HD
ATOM     11  O   UNK A   0       8.694  -5.409  24.148  0.00  0.00    -0.270 OA
BRANCH   9  12
ATOM     12  CA  GLU A   1       5.939  -5.612  24.678  0.00  0.00    +0.182 C 
BRANCH  12  13
ATOM     13  C   GLU A   1       4.947  -6.148  23.620  0.00  0.00    +0.325 C 
ATOM     14  OXT GLU A   1       4.668  -5.563  22.581  0.00  0.00    -0.249 OA
BRANCH  13  15
ATOM     15  O   GLU A   1       4.444  -7.370  23.903  0.00  0.00    -0.479 OA
ATOM     16  H   GLU A   1       5.017  -7.797  24.569  0.00  0.00    +0.295 HD
ENDBRANCH  13  15
ENDBRANCH  12  13
BRANCH  12  17
ATOM     17  CB  GLU A   1       5.232  -5.281  26.004  0.00  0.00    +0.045 C 
BRANCH  17  18
ATOM     18  CG  GLU A   1       6.152  -4.640  27.049  0.00  0.00    +0.123 C 
BRANCH  18  19
ATOM     19  CD  GLU A   1       7.059  -5.642  27.721  0.00  0.00    +0.305 C 
ATOM     20  OE2 GLU A   1       6.741  -6.359  28.658  0.00  0.00    -0.251 OA
BRANCH  19  21
ATOM     21  OE1 GLU A   1       8.287  -5.678  27.158  0.00  0.00    -0.481 OA
ATOM     22  HE1 GLU A   1       8.722  -4.803  27.102  0.00  0.00    +0.295 HD
ENDBRANCH  19  21
ENDBRANCH  18  19
ENDBRANCH  17  18
ENDBRANCH  12  17
ENDBRANCH   9  12
ENDBRANCH   5   8
ENDBRANCH   1   2
BRANCH   1  23
ATOM     23  C   UNK A   0       9.035   1.473  21.422  0.00  0.00    +0.066 C 
BRANCH  23  37
ATOM     24  N   UNK A   0       4.255   6.183  24.989  0.00  0.00    -0.327 N 
ATOM     25  H   UNK A   0       4.126   7.152  24.739  0.00  0.00    +0.145 HD
ATOM     26  H   UNK A   0       3.444   5.643  25.255  0.00  0.00    +0.145 HD
ATOM     27  C   UNK A   0       5.037   5.518  24.074  0.00  0.00    +0.216 A 
ATOM     28  N   UNK A   0       5.848   6.252  23.318  0.00  0.00    -0.198 NA
ATOM     29  C   UNK A   0       6.694   5.580  22.525  0.00  0.00    +0.149 A 
ATOM     30  N   UNK A   0       7.535   6.377  21.731  0.00  0.00    -0.341 N 
ATOM     31  H   UNK A   0       7.469   7.342  22.041  0.00  0.00    +0.144 HD
ATOM     32  H   UNK A   0       8.479   6.004  21.713  0.00  0.00    +0.144 HD
ATOM     33  C   UNK A   0       6.764   4.193  22.457  0.00  0.00    +0.148 A 
ATOM     34  C   UNK A   0       5.829   3.543  23.267  0.00  0.00    +0.185 A 
ATOM     35  N   UNK A   0       5.845   2.205  23.335  0.00  0.00    -0.232 NA
ATOM     36  C   UNK A   0       6.841   1.545  22.692  0.00  0.00    +0.136 A 
ATOM     37  C   UNK A   0       7.802   2.189  21.935  0.00  0.00    +0.061 A 
ATOM     38  N   UNK A   0       7.729   3.525  21.752  0.00  0.00    -0.243 NA
ATOM     39  N   UNK A   0       4.963   4.192  24.040  0.00  0.00    -0.193 NA
ENDBRANCH  23  37
ENDBRANCH   1  23
BRANCH   1  40
ATOM     40  C   UNK A   0       9.976   1.766  23.841  0.00  0.00    +0.097 C 
BRANCH  40  41
ATOM     41  C   UNK A   0      10.844   2.981  23.561  0.00  0.00    -0.105 C 
ATOM     42  C   UNK A   0      11.588   4.024  23.319  0.00  0.00    +0.004 C 
ENDBRANCH  40  41
ENDBRANCH   1  40
TORSDOF 13
ENDMDL
MODEL 3
REMARK VINA RESULT:      -7.5      1.714      2.436
REMARK  Name = 
REMARK  13 active torsions:
REMARK  status: ('A' for Active; 'I' for Inactive)
REMARK    1  A    between atoms: C_7  and  C_8
REMARK    2  A    between atoms: C_8  and  C_9
REMARK    3  A    between atoms: C_9  and  C_10
REMARK    4  A    between atoms: C_9  and  C_13
REMARK    5  A    between atoms: C_10  and  C_11
REMARK    6  A    between atoms: C_16  and  C_19
REMARK    7  A    between atoms: N_21  and  CA_22
REMARK    8  A    between atoms: CA_22  and  CB_24
REMARK    9  A    between atoms: CA_22  and  C_29
REMARK   10  A    between atoms: CB_24  and  CG_25
REMARK   11  A    between atoms: CG_25  and  CD_26
REMARK   12  A    between atoms: CD_26  and  OE1_27
REMARK   13  A    between atoms: C_29  and  O_30
REMARK                            x       y       z     vdW  Elec       q    Type
REMARK                         _______ _______ _______ _____ _____    ______ ____
ROOT
ATOM      1  C   UNK A   0      10.231   3.349  23.196  0.00  0.00    +0.037 C 
ENDROOT
BRANCH   1   2
ATOM      2  C   UNK A   0      10.215   1.819  23.208  0.00  0.00    -0.043 A 
ATOM      3  C   UNK A   0      10.581   1.067  24.333  0.00  0.00    +0.005 A 
ATOM      4  C   UNK A   0      10.329  -0.306  24.391  0.00  0.00    +0.013 A 
ATOM      5  C   UNK A   0       9.748  -0.954  23.300  0.00  0.00    +0.037 A 
ATOM      6  C   UNK A   0       9.506  -0.241  22.121  0.00  0.00    +0.013 A 
ATOM      7  C   UNK A   0       9.734   1.137  22.079  0.00  0.00    +0.005 A 
BRANCH   5   8
ATOM      8  C   UNK A   0       9.417  -2.395  23.421  0.00  0.00    +0.245 C 
ATOM      9  N   GLU A   1       8.152  -2.773  23.000  0.00  0.00    -0.298 N 
ATOM     10  H   GLU A   1       7.447  -2.045  22.925  0.00  0.00    +0.150 HD
ATOM     11  O   UNK A   0      10.235  -3.192  23.858  0.00  0.00    -0.270 OA
BRANCH   9  12
ATOM     12  CA  GLU A   1       7.680  -4.162  23.193  0.00  0.00    +0.182 C 
BRANCH  12  13
ATOM     13  C   GLU A   1       6.835  -4.603  21.975  0.00  0.00    +0.325 C 
ATOM     14  OXT GLU A   1       5.901  -3.957  21.519  0.00  0.00    -0.249 OA
BRANCH  13  15
ATOM     15  O   GLU A   1       7.255  -5.750  21.398  0.00  0.00    -0.479 OA
ATOM     16  H   GLU A   1       6.551  -6.076  20.804  0.00  0.00    +0.295 HD
ENDBRANCH  13  15
ENDBRANCH  12  13
BRANCH  12  17
ATOM     17  CB  GLU A   1       6.885  -4.275  24.506  0.00  0.00    +0.045 C 
BRANCH  17  18
ATOM     18  CG  GLU A   1       7.363  -5.409  25.421  0.00  0.00    +0.123 C 
BRANCH  18  19
ATOM     19  CD  GLU A   1       8.704  -5.123  26.053  0.00  0.00    +0.305 C 
ATOM     20  OE2 GLU A   1       8.898  -4.319  26.952  0.00  0.00    -0.251 OA
BRANCH  19  21
ATOM     21  OE1 GLU A   1       9.692  -5.875  25.518  0.00  0.00    -0.481 OA
ATOM     22  HE1 GLU A   1      10.585  -5.645  25.846  0.00  0.00    +0.295 HD
ENDBRANCH  19  21
ENDBRANCH  18  19
ENDBRANCH  17  18
ENDBRANCH  12  17
ENDBRANCH   9  12
ENDBRANCH   5   8
ENDBRANCH   1   2
BRANCH   1  23
ATOM     23  C   UNK A   0       9.256   4.013  24.232  0.00  0.00    +0.066 C 
BRANCH  23  37
ATOM     24  N   UNK A   0       4.500  -1.623  26.069  0.00  0.00    -0.327 N 
ATOM     25  H   UNK A   0       4.374  -1.972  27.007  0.00  0.00    +0.145 HD
ATOM     26  H   UNK A   0       3.688  -1.536  25.476  0.00  0.00    +0.145 HD
ATOM     27  C   UNK A   0       5.278  -0.489  26.044  0.00  0.00    +0.216 A 
ATOM     28  N   UNK A   0       6.090  -0.285  27.076  0.00  0.00    -0.198 NA
ATOM     29  C   UNK A   0       6.932   0.752  26.976  0.00  0.00    +0.149 A 
ATOM     30  N   UNK A   0       7.775   0.952  28.083  0.00  0.00    -0.341 N 
ATOM     31  H   UNK A   0       7.713   0.145  28.696  0.00  0.00    +0.144 HD
ATOM     32  H   UNK A   0       8.718   1.183  27.784  0.00  0.00    +0.144 HD
ATOM     33  C   UNK A   0       6.997   1.602  25.877  0.00  0.00    +0.148 A 
ATOM     34  C   UNK A   0       6.060   1.305  24.883  0.00  0.00    +0.185 A 
ATOM     35  N   UNK A   0       6.072   2.014  23.746  0.00  0.00    -0.232 NA
ATOM     36  C   UNK A   0       7.064   2.922  23.570  0.00  0.00    +0.136 A 
ATOM     37  C   UNK A   0       8.026   3.179  24.528  0.00  0.00    +0.061 A 
ATOM     38  N   UNK A   0       7.958   2.565  25.729  0.00  0.00    -0.243 NA
ATOM     39  N   UNK A   0       5.198   0.297  24.975  0.00  0.00    -0.193 NA
ENDBRANCH  23  37
ENDBRANCH   1  23
BRANCH   1  40
ATOM     40  C   UNK A   0      11.690   3.893  23.292  0.00  0.00    +0.097 C 
BRANCH  40  41
ATOM     41  C   UNK A   0      11.651   5.281  23.909  0.00  0.00    -0.105 C 
ATOM     42  C   UNK A   0      11.618   6.472  24.439  0.00  0.00    +0.004 C 
ENDBRANCH  40  41
ENDBRANCH   1  40
TORSDOF 13
ENDMDL
MODEL 4
REMARK VINA RESULT:      -7.5      4.301      8.876
REMARK  Name = 
REMARK  13 active torsions:
REMARK  status: ('A' for Active; 'I' for Inactive)
REMARK    1  A    between atoms: C_7  and  C_8
REMARK    2  A    between atoms: C_8  and  C_9
REMARK    3  A    between atoms: C_9  and  C_10
REMARK    4  A    between atoms: C_9  and  C_13
REMARK    5  A    between atoms: C_10  and  C_11
REMARK    6  A    between atoms: C_16  and  C_19
REMARK    7  A    between atoms: N_21  and  CA_22
REMARK    8  A    between atoms: CA_22  and  CB_24
REMARK    9  A    between atoms: CA_22  and  C_29
REMARK   10  A    between atoms: CB_24  and  CG_25
REMARK   11  A    between atoms: CG_25  and  CD_26
REMARK   12  A    between atoms: CD_26  and  OE1_27
REMARK   13  A    between atoms: C_29  and  O_30
REMARK                            x       y       z     vdW  Elec       q    Type
REMARK                         _______ _______ _______ _____ _____    ______ ____
ROOT
ATOM      1  C   UNK A   0       8.968  -1.678  23.253  0.00  0.00    +0.037 C 
ENDROOT
BRANCH   1   2
ATOM      2  C   UNK A   0       9.645  -0.310  23.137  0.00  0.00    -0.043 A 
ATOM      3  C   UNK A   0       9.368   0.586  22.094  0.00  0.00    +0.005 A 
ATOM      4  C   UNK A   0       9.817   1.908  22.146  0.00  0.00    +0.013 A 
ATOM      5  C   UNK A   0      10.590   2.338  23.225  0.00  0.00    +0.037 A 
ATOM      6  C   UNK A   0      10.990   1.419  24.200  0.00  0.00    +0.013 A 
ATOM      7  C   UNK A   0      10.515   0.105  24.157  0.00  0.00    +0.005 A 
BRANCH   5   8
ATOM      8  C   UNK A   0      10.983   3.768  23.294  0.00  0.00    +0.245 C 
ATOM      9  N   GLU A   1      10.005   4.654  23.716  0.00  0.00    -0.298 N 
ATOM     10  H   GLU A   1       9.039   4.345  23.661  0.00  0.00    +0.150 HD
ATOM     11  O   UNK A   0      12.117   4.122  23.004  0.00  0.00    -0.270 OA
BRANCH   9  12
ATOM     12  CA  GLU A   1      10.257   6.113  23.700  0.00  0.00    +0.182 C 
BRANCH  12  13
ATOM     13  C   GLU A   1      11.063   6.518  24.956  0.00  0.00    +0.325 C 
ATOM     14  OXT GLU A   1      10.559   6.778  26.040  0.00  0.00    -0.249 OA
BRANCH  13  15
ATOM     15  O   GLU A   1      12.403   6.502  24.781  0.00  0.00    -0.479 OA
ATOM     16  H   GLU A   1      12.749   7.402  24.940  0.00  0.00    +0.295 HD
ENDBRANCH  13  15
ENDBRANCH  12  13
BRANCH  12  17
ATOM     17  CB  GLU A   1       8.926   6.880  23.607  0.00  0.00    +0.045 C 
BRANCH  17  18
ATOM     18  CG  GLU A   1       7.690   5.973  23.600  0.00  0.00    +0.123 C 
BRANCH  18  19
ATOM     19  CD  GLU A   1       7.356   5.455  22.222  0.00  0.00    +0.305 C 
ATOM     20  OE2 GLU A   1       7.214   4.277  21.930  0.00  0.00    -0.251 OA
BRANCH  19  21
ATOM     21  OE1 GLU A   1       7.211   6.453  21.322  0.00  0.00    -0.481 OA
ATOM     22  HE1 GLU A   1       7.987   6.572  20.736  0.00  0.00    +0.295 HD
ENDBRANCH  19  21
ENDBRANCH  18  19
ENDBRANCH  17  18
ENDBRANCH  12  17
ENDBRANCH   9  12
ENDBRANCH   5   8
ENDBRANCH   1   2
BRANCH   1  23
ATOM     23  C   UNK A   0       9.766  -2.723  24.111  0.00  0.00    +0.066 C 
BRANCH  23  37
ATOM     24  N   UNK A   0       3.922  -7.112  26.191  0.00  0.00    -0.327 N 
ATOM     25  H   UNK A   0       3.368  -7.658  25.547  0.00  0.00    +0.145 HD
ATOM     26  H   UNK A   0       4.153  -7.516  27.087  0.00  0.00    +0.145 HD
ATOM     27  C   UNK A   0       5.021  -6.557  25.579  0.00  0.00    +0.216 A 
ATOM     28  N   UNK A   0       4.971  -6.408  24.259  0.00  0.00    -0.198 NA
ATOM     29  C   UNK A   0       5.993  -5.749  23.695  0.00  0.00    +0.149 A 
ATOM     30  N   UNK A   0       5.922  -5.610  22.299  0.00  0.00    -0.341 N 
ATOM     31  H   UNK A   0       4.998  -5.887  21.984  0.00  0.00    +0.144 HD
ATOM     32  H   UNK A   0       6.204  -4.678  22.011  0.00  0.00    +0.144 HD
ATOM     33  C   UNK A   0       7.071  -5.228  24.403  0.00  0.00    +0.148 A 
ATOM     34  C   UNK A   0       7.023  -5.493  25.774  0.00  0.00    +0.185 A 
ATOM     35  N   UNK A   0       7.973  -4.983  26.569  0.00  0.00    -0.232 NA
ATOM     36  C   UNK A   0       8.885  -4.144  26.017  0.00  0.00    +0.136 A 
ATOM     37  C   UNK A   0       8.902  -3.834  24.671  0.00  0.00    +0.061 A 
ATOM     38  N   UNK A   0       8.030  -4.435  23.832  0.00  0.00    -0.243 NA
ATOM     39  N   UNK A   0       6.032  -6.168  26.349  0.00  0.00    -0.193 NA
ENDBRANCH  23  37
ENDBRANCH   1  23
BRANCH   1  40
ATOM     40  C   UNK A   0       7.480  -1.529  23.695  0.00  0.00    +0.097 C 
BRANCH  40  41
ATOM     41  C   UNK A   0       7.430  -0.672  24.948  0.00  0.00    -0.105 C 
ATOM     42  C   UNK A   0       7.386   0.064  26.024  0.00  0.00    +0.004 C 
ENDBRANCH  40  41
ENDBRANCH   1  40
TORSDOF 13
ENDMDL
MODEL 5
REMARK VINA RESULT:      -7.2      4.466      8.968
REMARK  Name = 
REMARK  13 active torsions:
REMARK  status: ('A' for Active; 'I' for Inactive)
REMARK    1  A    between atoms: C_7  and  C_8
REMARK    2  A    between atoms: C_8  and  C_9
REMARK    3  A    between atoms: C_9  and  C_10
REMARK    4  A    between atoms: C_9  and  C_13
REMARK    5  A    between atoms: C_10  and  C_11
REMARK    6  A    between atoms: C_16  and  C_19
REMARK    7  A    between atoms: N_21  and  CA_22
REMARK    8  A    between atoms: CA_22  and  CB_24
REMARK    9  A    between atoms: CA_22  and  C_29
REMARK   10  A    between atoms: CB_24  and  CG_25
REMARK   11  A    between atoms: CG_25  and  CD_26
REMARK   12  A    between atoms: CD_26  and  OE1_27
REMARK   13  A    between atoms: C_29  and  O_30
REMARK                            x       y       z     vdW  Elec       q    Type
REMARK                         _______ _______ _______ _____ _____    ______ ____
ROOT
ATOM      1  C   UNK A   0       8.016  -1.543  23.507  0.00  0.00    +0.037 C 
ENDROOT
BRANCH   1   2
ATOM      2  C   UNK A   0       8.879  -0.280  23.463  0.00  0.00    -0.043 A 
ATOM      3  C   UNK A   0       9.253   0.339  22.261  0.00  0.00    +0.005 A 
ATOM      4  C   UNK A   0       9.832   1.611  22.260  0.00  0.00    +0.013 A 
ATOM      5  C   UNK A   0      10.088   2.260  23.468  0.00  0.00    +0.037 A 
ATOM      6  C   UNK A   0       9.849   1.596  24.675  0.00  0.00    +0.013 A 
ATOM      7  C   UNK A   0       9.243   0.336  24.670  0.00  0.00    +0.005 A 
BRANCH   5   8
ATOM      8  C   UNK A   0      10.627   3.643  23.433  0.00  0.00    +0.245 C 
ATOM      9  N   GLU A   1       9.781   4.644  23.881  0.00  0.00    -0.298 N 
ATOM     10  H   GLU A   1       8.787   4.436  23.916  0.00  0.00    +0.150 HD
ATOM     11  O   UNK A   0      11.764   3.863  23.040  0.00  0.00    -0.270 OA
BRANCH   9  12
ATOM     12  CA  GLU A   1      10.176   6.066  23.771  0.00  0.00    +0.182 C 
BRANCH  12  13
ATOM     13  C   GLU A   1      10.984   6.483  25.022  0.00  0.00    +0.325 C 
ATOM     14  OXT GLU A   1      12.205   6.573  25.052  0.00  0.00    -0.249 OA
BRANCH  13  15
ATOM     15  O   GLU A   1      10.222   6.810  26.089  0.00  0.00    -0.479 OA
ATOM     16  H   GLU A   1       9.404   6.275  26.063  0.00  0.00    +0.295 HD
ENDBRANCH  13  15
ENDBRANCH  12  13
BRANCH  12  17
ATOM     17  CB  GLU A   1       8.932   6.950  23.578  0.00  0.00    +0.045 C 
BRANCH  17  18
ATOM     18  CG  GLU A   1       7.615   6.166  23.561  0.00  0.00    +0.123 C 
BRANCH  18  19
ATOM     19  CD  GLU A   1       7.311   5.567  22.209  0.00  0.00    +0.305 C 
ATOM     20  OE2 GLU A   1       7.277   4.371  21.962  0.00  0.00    -0.251 OA
BRANCH  19  21
ATOM     21  OE1 GLU A   1       7.058   6.513  21.276  0.00  0.00    -0.481 OA
ATOM     22  HE1 GLU A   1       7.566   7.339  21.405  0.00  0.00    +0.295 HD
ENDBRANCH  19  21
ENDBRANCH  18  19
ENDBRANCH  17  18
ENDBRANCH  12  17
ENDBRANCH   9  12
ENDBRANCH   5   8
ENDBRANCH   1   2
BRANCH   1  23
ATOM     23  C   UNK A   0       6.575  -1.320  24.088  0.00  0.00    +0.066 C 
BRANCH  23  37
ATOM     24  N   UNK A   0       5.603  -7.193  28.812  0.00  0.00    -0.327 N 
ATOM     25  H   UNK A   0       6.360  -7.700  29.246  0.00  0.00    +0.145 HD
ATOM     26  H   UNK A   0       4.776  -7.004  29.360  0.00  0.00    +0.145 HD
ATOM     27  C   UNK A   0       6.049  -6.072  28.153  0.00  0.00    +0.216 A 
ATOM     28  N   UNK A   0       7.325  -6.051  27.782  0.00  0.00    -0.198 NA
ATOM     29  C   UNK A   0       7.710  -5.011  27.030  0.00  0.00    +0.149 A 
ATOM     30  N   UNK A   0       9.065  -5.007  26.657  0.00  0.00    -0.341 N 
ATOM     31  H   UNK A   0       9.474  -5.908  26.885  0.00  0.00    +0.144 HD
ATOM     32  H   UNK A   0       9.175  -4.726  25.688  0.00  0.00    +0.144 HD
ATOM     33  C   UNK A   0       6.864  -3.983  26.628  0.00  0.00    +0.148 A 
ATOM     34  C   UNK A   0       5.562  -4.102  27.121  0.00  0.00    +0.185 A 
ATOM     35  N   UNK A   0       4.640  -3.207  26.746  0.00  0.00    -0.232 NA
ATOM     36  C   UNK A   0       4.989  -2.281  25.818  0.00  0.00    +0.136 A 
ATOM     37  C   UNK A   0       6.261  -2.194  25.285  0.00  0.00    +0.061 A 
ATOM     38  N   UNK A   0       7.237  -3.008  25.742  0.00  0.00    -0.243 NA
ATOM     39  N   UNK A   0       5.168  -5.112  27.892  0.00  0.00    -0.193 NA
ENDBRANCH  23  37
ENDBRANCH   1  23
BRANCH   1  40
ATOM     40  C   UNK A   0       8.017  -2.269  22.127  0.00  0.00    +0.097 C 
BRANCH  40  41
ATOM     41  C   UNK A   0       7.561  -3.703  22.333  0.00  0.00    -0.105 C 
ATOM     42  C   UNK A   0       7.169  -4.935  22.511  0.00  0.00    +0.004 C 
ENDBRANCH  40  41
ENDBRANCH   1  40
TORSDOF 13
ENDMDL
MODEL 6
REMARK VINA RESULT:      -7.2      4.389      8.632
REMARK  Name = 
REMARK  13 active torsions:
REMARK  status: ('A' for Active; 'I' for Inactive)
REMARK    1  A    between atoms: C_7  and  C_8
REMARK    2  A    between atoms: C_8  and  C_9
REMARK    3  A    between atoms: C_9  and  C_10
REMARK    4  A    between atoms: C_9  and  C_13
REMARK    5  A    between atoms: C_10  and  C_11
REMARK    6  A    between atoms: C_16  and  C_19
REMARK    7  A    between atoms: N_21  and  CA_22
REMARK    8  A    between atoms: CA_22  and  CB_24
REMARK    9  A    between atoms: CA_22  and  C_29
REMARK   10  A    between atoms: CB_24  and  CG_25
REMARK   11  A    between atoms: CG_25  and  CD_26
REMARK   12  A    between atoms: CD_26  and  OE1_27
REMARK   13  A    between atoms: C_29  and  O_30
REMARK                            x       y       z     vdW  Elec       q    Type
REMARK                         _______ _______ _______ _____ _____    ______ ____
ROOT
ATOM      1  C   UNK A   0       8.416  -2.502  23.752  0.00  0.00    +0.037 C 
ENDROOT
BRANCH   1   2
ATOM      2  C   UNK A   0       8.617  -0.986  23.794  0.00  0.00    -0.043 A 
ATOM      3  C   UNK A   0       7.791  -0.093  23.094  0.00  0.00    +0.005 A 
ATOM      4  C   UNK A   0       7.849   1.281  23.340  0.00  0.00    +0.013 A 
ATOM      5  C   UNK A   0       8.770   1.785  24.259  0.00  0.00    +0.037 A 
ATOM      6  C   UNK A   0       9.692   0.922  24.859  0.00  0.00    +0.013 A 
ATOM      7  C   UNK A   0       9.611  -0.455  24.631  0.00  0.00    +0.005 A 
BRANCH   5   8
ATOM      8  C   UNK A   0       8.753   3.238  24.560  0.00  0.00    +0.245 C 
ATOM      9  N   GLU A   1       9.313   4.071  23.604  0.00  0.00    -0.298 N 
ATOM     10  H   GLU A   1       9.947   3.649  22.931  0.00  0.00    +0.150 HD
ATOM     11  O   UNK A   0       8.255   3.659  25.595  0.00  0.00    -0.270 OA
BRANCH   9  12
ATOM     12  CA  GLU A   1       9.458   5.520  23.863  0.00  0.00    +0.182 C 
BRANCH  12  13
ATOM     13  C   GLU A   1       8.293   6.290  23.200  0.00  0.00    +0.325 C 
ATOM     14  OXT GLU A   1       7.542   7.048  23.800  0.00  0.00    -0.249 OA
BRANCH  13  15
ATOM     15  O   GLU A   1       8.200   6.109  21.864  0.00  0.00    -0.479 OA
ATOM     16  H   GLU A   1       7.684   5.297  21.694  0.00  0.00    +0.295 HD
ENDBRANCH  13  15
ENDBRANCH  12  13
BRANCH  12  17
ATOM     17  CB  GLU A   1      10.826   6.016  23.360  0.00  0.00    +0.045 C 
BRANCH  17  18
ATOM     18  CG  GLU A   1      11.990   5.087  23.724  0.00  0.00    +0.123 C 
BRANCH  18  19
ATOM     19  CD  GLU A   1      13.160   5.223  22.781  0.00  0.00    +0.305 C 
ATOM     20  OE2 GLU A   1      13.090   5.621  21.628  0.00  0.00    -0.251 OA
BRANCH  19  21
ATOM     21  OE1 GLU A   1      14.328   4.864  23.360  0.00  0.00    -0.481 OA
ATOM     22  HE1 GLU A   1      14.964   5.601  23.458  0.00  0.00    +0.295 HD
ENDBRANCH  19  21
ENDBRANCH  18  19
ENDBRANCH  17  18
ENDBRANCH  12  17
ENDBRANCH   9  12
ENDBRANCH   5   8
ENDBRANCH   1   2
BRANCH   1  23
ATOM     23  C   UNK A   0       7.919  -3.049  22.367  0.00  0.00    +0.066 C 
BRANCH  23  37
ATOM     24  N   UNK A   0       1.806  -6.932  24.673  0.00  0.00    -0.327 N 
ATOM     25  H   UNK A   0       1.099  -6.557  25.288  0.00  0.00    +0.145 HD
ATOM     26  H   UNK A   0       1.514  -7.516  23.903  0.00  0.00    +0.145 HD
ATOM     27  C   UNK A   0       2.700  -5.966  24.273  0.00  0.00    +0.216 A 
ATOM     28  N   UNK A   0       2.813  -4.886  25.041  0.00  0.00    -0.198 NA
ATOM     29  C   UNK A   0       3.779  -4.018  24.709  0.00  0.00    +0.149 A 
ATOM     30  N   UNK A   0       3.874  -2.882  25.530  0.00  0.00    -0.341 N 
ATOM     31  H   UNK A   0       3.294  -3.017  26.352  0.00  0.00    +0.144 HD
ATOM     32  H   UNK A   0       4.843  -2.658  25.730  0.00  0.00    +0.144 HD
ATOM     33  C   UNK A   0       4.643  -4.186  23.632  0.00  0.00    +0.148 A 
ATOM     34  C   UNK A   0       4.388  -5.338  22.883  0.00  0.00    +0.185 A 
ATOM     35  N   UNK A   0       5.199  -5.641  21.861  0.00  0.00    -0.232 NA
ATOM     36  C   UNK A   0       6.296  -4.868  21.665  0.00  0.00    +0.136 A 
ATOM     37  C   UNK A   0       6.583  -3.760  22.440  0.00  0.00    +0.061 A 
ATOM     38  N   UNK A   0       5.713  -3.365  23.395  0.00  0.00    -0.243 NA
ATOM     39  N   UNK A   0       3.418  -6.197  23.180  0.00  0.00    -0.193 NA
ENDBRANCH  23  37
ENDBRANCH   1  23
BRANCH   1  40
ATOM     40  C   UNK A   0       9.676  -3.247  24.291  0.00  0.00    +0.097 C 
BRANCH  40  41
ATOM     41  C   UNK A   0       9.223  -4.335  25.250  0.00  0.00    -0.105 C 
ATOM     42  C   UNK A   0       8.834  -5.269  26.073  0.00  0.00    +0.004 C 
ENDBRANCH  40  41
ENDBRANCH   1  40
TORSDOF 13
ENDMDL
MODEL 7
REMARK VINA RESULT:      -7.2      4.811      9.298
REMARK  Name = 
REMARK  13 active torsions:
REMARK  status: ('A' for Active; 'I' for Inactive)
REMARK    1  A    between atoms: C_7  and  C_8
REMARK    2  A    between atoms: C_8  and  C_9
REMARK    3  A    between atoms: C_9  and  C_10
REMARK    4  A    between atoms: C_9  and  C_13
REMARK    5  A    between atoms: C_10  and  C_11
REMARK    6  A    between atoms: C_16  and  C_19
REMARK    7  A    between atoms: N_21  and  CA_22
REMARK    8  A    between atoms: CA_22  and  CB_24
REMARK    9  A    between atoms: CA_22  and  C_29
REMARK   10  A    between atoms: CB_24  and  CG_25
REMARK   11  A    between atoms: CG_25  and  CD_26
REMARK   12  A    between atoms: CD_26  and  OE1_27
REMARK   13  A    between atoms: C_29  and  O_30
REMARK                            x       y       z     vdW  Elec       q    Type
REMARK                         _______ _______ _______ _____ _____    ______ ____
ROOT
ATOM      1  C   UNK A   0       8.366  -1.838  23.482  0.00  0.00    +0.037 C 
ENDROOT
BRANCH   1   2
ATOM      2  C   UNK A   0       9.030  -0.461  23.429  0.00  0.00    -0.043 A 
ATOM      3  C   UNK A   0       9.397   0.157  22.224  0.00  0.00    +0.005 A 
ATOM      4  C   UNK A   0       9.777   1.501  22.194  0.00  0.00    +0.013 A 
ATOM      5  C   UNK A   0       9.841   2.233  23.380  0.00  0.00    +0.037 A 
ATOM      6  C   UNK A   0       9.614   1.592  24.602  0.00  0.00    +0.013 A 
ATOM      7  C   UNK A   0       9.206   0.255  24.624  0.00  0.00    +0.005 A 
BRANCH   5   8
ATOM      8  C   UNK A   0      10.169   3.679  23.308  0.00  0.00    +0.245 C 
ATOM      9  N   GLU A   1      11.515   4.001  23.240  0.00  0.00    -0.298 N 
ATOM     10  H   GLU A   1      12.181   3.294  23.538  0.00  0.00    +0.150 HD
ATOM     11  O   UNK A   0       9.284   4.523  23.297  0.00  0.00    -0.270 OA
BRANCH   9  12
ATOM     12  CA  GLU A   1      11.952   5.414  23.290  0.00  0.00    +0.182 C 
BRANCH  12  13
ATOM     13  C   GLU A   1      13.340   5.557  22.626  0.00  0.00    +0.325 C 
ATOM     14  OXT GLU A   1      13.572   6.286  21.670  0.00  0.00    -0.249 OA
BRANCH  13  15
ATOM     15  O   GLU A   1      14.319   4.849  23.232  0.00  0.00    -0.479 OA
ATOM     16  H   GLU A   1      13.913   4.272  23.908  0.00  0.00    +0.295 HD
ENDBRANCH  13  15
ENDBRANCH  12  13
BRANCH  12  17
ATOM     17  CB  GLU A   1      11.963   5.915  24.745  0.00  0.00    +0.045 C 
BRANCH  17  18
ATOM     18  CG  GLU A   1      11.015   7.092  25.000  0.00  0.00    +0.123 C 
BRANCH  18  19
ATOM     19  CD  GLU A   1       9.890   6.741  25.944  0.00  0.00    +0.305 C 
ATOM     20  OE2 GLU A   1       9.971   6.741  27.163  0.00  0.00    -0.251 OA
BRANCH  19  21
ATOM     21  OE1 GLU A   1       8.750   6.430  25.287  0.00  0.00    -0.481 OA
ATOM     22  HE1 GLU A   1       8.057   6.043  25.860  0.00  0.00    +0.295 HD
ENDBRANCH  19  21
ENDBRANCH  18  19
ENDBRANCH  17  18
ENDBRANCH  12  17
ENDBRANCH   9  12
ENDBRANCH   5   8
ENDBRANCH   1   2
BRANCH   1  23
ATOM     23  C   UNK A   0       7.164  -1.936  24.487  0.00  0.00    +0.066 C 
BRANCH  23  37
ATOM     24  N   UNK A   0       6.047  -7.083  29.967  0.00  0.00    -0.327 N 
ATOM     25  H   UNK A   0       5.184  -7.589  30.098  0.00  0.00    +0.145 HD
ATOM     26  H   UNK A   0       6.919  -7.576  30.098  0.00  0.00    +0.145 HD
ATOM     27  C   UNK A   0       6.041  -6.353  28.801  0.00  0.00    +0.216 A 
ATOM     28  N   UNK A   0       4.856  -6.039  28.286  0.00  0.00    -0.198 NA
ATOM     29  C   UNK A   0       4.865  -5.221  27.225  0.00  0.00    +0.149 A 
ATOM     30  N   UNK A   0       3.602  -4.909  26.694  0.00  0.00    -0.341 N 
ATOM     31  H   UNK A   0       2.884  -5.228  27.337  0.00  0.00    +0.144 HD
ATOM     32  H   UNK A   0       3.543  -3.926  26.450  0.00  0.00    +0.144 HD
ATOM     33  C   UNK A   0       6.020  -4.698  26.653  0.00  0.00    +0.148 A 
ATOM     34  C   UNK A   0       7.198  -5.142  27.260  0.00  0.00    +0.185 A 
ATOM     35  N   UNK A   0       8.371  -4.653  26.838  0.00  0.00    -0.232 NA
ATOM     36  C   UNK A   0       8.355  -3.669  25.906  0.00  0.00    +0.136 A 
ATOM     37  C   UNK A   0       7.189  -3.187  25.343  0.00  0.00    +0.061 A 
ATOM     38  N   UNK A   0       6.005  -3.752  25.663  0.00  0.00    -0.243 NA
ATOM     39  N   UNK A   0       7.210  -5.975  28.297  0.00  0.00    -0.193 NA
ENDBRANCH  23  37
ENDBRANCH   1  23
BRANCH   1  40
ATOM     40  C   UNK A   0       8.011  -2.343  22.050  0.00  0.00    +0.097 C 
BRANCH  40  41
ATOM     41  C   UNK A   0       7.546  -3.786  22.146  0.00  0.00    -0.105 C 
ATOM     42  C   UNK A   0       7.147  -5.025  22.228  0.00  0.00    +0.004 C 
ENDBRANCH  40  41
ENDBRANCH   1  40
TORSDOF 13
ENDMDL
MODEL 8
REMARK VINA RESULT:      -7.1      4.864      9.092
REMARK  Name = 
REMARK  13 active torsions:
REMARK  status: ('A' for Active; 'I' for Inactive)
REMARK    1  A    between atoms: C_7  and  C_8
REMARK    2  A    between atoms: C_8  and  C_9
REMARK    3  A    between atoms: C_9  and  C_10
REMARK    4  A    between atoms: C_9  and  C_13
REMARK    5  A    between atoms: C_10  and  C_11
REMARK    6  A    between atoms: C_16  and  C_19
REMARK    7  A    between atoms: N_21  and  CA_22
REMARK    8  A    between atoms: CA_22  and  CB_24
REMARK    9  A    between atoms: CA_22  and  C_29
REMARK   10  A    between atoms: CB_24  and  CG_25
REMARK   11  A    between atoms: CG_25  and  CD_26
REMARK   12  A    between atoms: CD_26  and  OE1_27
REMARK   13  A    between atoms: C_29  and  O_30
REMARK                            x       y       z     vdW  Elec       q    Type
REMARK                         _______ _______ _______ _____ _____    ______ ____
ROOT
ATOM      1  C   UNK A   0       8.647  -1.928  23.282  0.00  0.00    +0.037 C 
ENDROOT
BRANCH   1   2
ATOM      2  C   UNK A   0       9.226  -0.518  23.154  0.00  0.00    -0.043 A 
ATOM      3  C   UNK A   0       8.926   0.329  22.076  0.00  0.00    +0.005 A 
ATOM      4  C   UNK A   0       9.274   1.681  22.109  0.00  0.00    +0.013 A 
ATOM      5  C   UNK A   0       9.971   2.195  23.203  0.00  0.00    +0.037 A 
ATOM      6  C   UNK A   0      10.397   1.333  24.218  0.00  0.00    +0.013 A 
ATOM      7  C   UNK A   0      10.021  -0.013  24.195  0.00  0.00    +0.005 A 
BRANCH   5   8
ATOM      8  C   UNK A   0      10.255   3.651  23.247  0.00  0.00    +0.245 C 
ATOM      9  N   GLU A   1      11.577   4.025  23.064  0.00  0.00    -0.298 N 
ATOM     10  H   GLU A   1      12.288   3.315  23.212  0.00  0.00    +0.150 HD
ATOM     11  O   UNK A   0       9.356   4.461  23.421  0.00  0.00    -0.270 OA
BRANCH   9  12
ATOM     12  CA  GLU A   1      11.984   5.440  23.214  0.00  0.00    +0.182 C 
BRANCH  12  13
ATOM     13  C   GLU A   1      13.402   5.641  22.631  0.00  0.00    +0.325 C 
ATOM     14  OXT GLU A   1      13.664   6.407  21.713  0.00  0.00    -0.249 OA
BRANCH  13  15
ATOM     15  O   GLU A   1      14.366   4.938  23.266  0.00  0.00    -0.479 OA
ATOM     16  H   GLU A   1      13.950   4.184  23.726  0.00  0.00    +0.295 HD
ENDBRANCH  13  15
ENDBRANCH  12  13
BRANCH  12  17
ATOM     17  CB  GLU A   1      11.913   5.860  24.693  0.00  0.00    +0.045 C 
BRANCH  17  18
ATOM     18  CG  GLU A   1      10.929   7.004  24.962  0.00  0.00    +0.123 C 
BRANCH  18  19
ATOM     19  CD  GLU A   1      10.065   6.756  26.175  0.00  0.00    +0.305 C 
ATOM     20  OE2 GLU A   1       8.895   6.406  26.145  0.00  0.00    -0.251 OA
BRANCH  19  21
ATOM     21  OE1 GLU A   1      10.740   6.952  27.331  0.00  0.00    -0.481 OA
ATOM     22  HE1 GLU A   1      11.505   7.556  27.244  0.00  0.00    +0.295 HD
ENDBRANCH  19  21
ENDBRANCH  18  19
ENDBRANCH  17  18
ENDBRANCH  12  17
ENDBRANCH   9  12
ENDBRANCH   5   8
ENDBRANCH   1   2
BRANCH   1  23
ATOM     23  C   UNK A   0       9.408  -2.848  24.301  0.00  0.00    +0.066 C 
BRANCH  23  37
ATOM     24  N   UNK A   0       3.593  -7.310  26.310  0.00  0.00    -0.327 N 
ATOM     25  H   UNK A   0       3.102  -7.919  25.672  0.00  0.00    +0.145 HD
ATOM     26  H   UNK A   0       3.779  -7.643  27.245  0.00  0.00    +0.145 HD
ATOM     27  C   UNK A   0       4.710  -6.755  25.731  0.00  0.00    +0.216 A 
ATOM     28  N   UNK A   0       4.743  -6.698  24.404  0.00  0.00    -0.198 NA
ATOM     29  C   UNK A   0       5.776  -6.039  23.861  0.00  0.00    +0.149 A 
ATOM     30  N   UNK A   0       5.793  -5.999  22.456  0.00  0.00    -0.341 N 
ATOM     31  H   UNK A   0       4.901  -6.332  22.104  0.00  0.00    +0.144 HD
ATOM     32  H   UNK A   0       6.061  -5.078  22.123  0.00  0.00    +0.144 HD
ATOM     33  C   UNK A   0       6.787  -5.431  24.597  0.00  0.00    +0.148 A 
ATOM     34  C   UNK A   0       6.658  -5.604  25.978  0.00  0.00    +0.185 A 
ATOM     35  N   UNK A   0       7.535  -5.005  26.793  0.00  0.00    -0.232 NA
ATOM     36  C   UNK A   0       8.452  -4.170  26.243  0.00  0.00    +0.136 A 
ATOM     37  C   UNK A   0       8.547  -3.952  24.882  0.00  0.00    +0.061 A 
ATOM     38  N   UNK A   0       7.754  -4.641  24.034  0.00  0.00    -0.243 NA
ATOM     39  N   UNK A   0       5.654  -6.276  26.534  0.00  0.00    -0.193 NA
ENDBRANCH  23  37
ENDBRANCH   1  23
BRANCH   1  40
ATOM     40  C   UNK A   0       7.108  -1.880  23.530  0.00  0.00    +0.097 C 
BRANCH  40  41
ATOM     41  C   UNK A   0       6.832  -0.935  24.687  0.00  0.00    -0.105 C 
ATOM     42  C   UNK A   0       6.595  -0.124  25.681  0.00  0.00    +0.004 C 
ENDBRANCH  40  41
ENDBRANCH   1  40
TORSDOF 13
ENDMDL
MODEL 9
REMARK VINA RESULT:      -7.1      4.198      8.772
REMARK  Name = 
REMARK  13 active torsions:
REMARK  status: ('A' for Active; 'I' for Inactive)
REMARK    1  A    between atoms: C_7  and  C_8
REMARK    2  A    between atoms: C_8  and  C_9
REMARK    3  A    between atoms: C_9  and  C_10
REMARK    4  A    between atoms: C_9  and  C_13
REMARK    5  A    between atoms: C_10  and  C_11
REMARK    6  A    between atoms: C_16  and  C_19
REMARK    7  A    between atoms: N_21  and  CA_22
REMARK    8  A    between atoms: CA_22  and  CB_24
REMARK    9  A    between atoms: CA_22  and  C_29
REMARK   10  A    between atoms: CB_24  and  CG_25
REMARK   11  A    between atoms: CG_25  and  CD_26
REMARK   12  A    between atoms: CD_26  and  OE1_27
REMARK   13  A    between atoms: C_29  and  O_30
REMARK                            x       y       z     vdW  Elec       q    Type
REMARK                         _______ _______ _______ _____ _____    ______ ____
ROOT
ATOM      1  C   UNK A   0       8.763  -1.884  23.555  0.00  0.00    +0.037 C 
ENDROOT
BRANCH   1   2
ATOM      2  C   UNK A   0       9.437  -0.518  23.405  0.00  0.00    -0.043 A 
ATOM      3  C   UNK A   0       9.335   0.252  22.237  0.00  0.00    +0.005 A 
ATOM      4  C   UNK A   0       9.755   1.584  22.218  0.00  0.00    +0.013 A 
ATOM      5  C   UNK A   0      10.328   2.150  23.357  0.00  0.00    +0.037 A 
ATOM      6  C   UNK A   0      10.563   1.353  24.483  0.00  0.00    +0.013 A 
ATOM      7  C   UNK A   0      10.114   0.029  24.506  0.00  0.00    +0.005 A 
BRANCH   5   8
ATOM      8  C   UNK A   0      10.689   3.589  23.333  0.00  0.00    +0.245 C 
ATOM      9  N   GLU A   1       9.696   4.479  23.711  0.00  0.00    -0.298 N 
ATOM     10  H   GLU A   1       8.736   4.146  23.687  0.00  0.00    +0.150 HD
ATOM     11  O   UNK A   0      11.812   3.949  23.008  0.00  0.00    -0.270 OA
BRANCH   9  12
ATOM     12  CA  GLU A   1       9.915   5.938  23.603  0.00  0.00    +0.182 C 
BRANCH  12  13
ATOM     13  C   GLU A   1      10.733   6.437  24.816  0.00  0.00    +0.325 C 
ATOM     14  OXT GLU A   1      10.241   6.755  25.891  0.00  0.00    -0.249 OA
BRANCH  13  15
ATOM     15  O   GLU A   1      12.070   6.436  24.619  0.00  0.00    -0.479 OA
ATOM     16  H   GLU A   1      12.508   6.183  25.455  0.00  0.00    +0.295 HD
ENDBRANCH  13  15
ENDBRANCH  12  13
BRANCH  12  17
ATOM     17  CB  GLU A   1       8.566   6.671  23.487  0.00  0.00    +0.045 C 
BRANCH  17  18
ATOM     18  CG  GLU A   1       7.782   6.322  22.217  0.00  0.00    +0.123 C 
BRANCH  18  19
ATOM     19  CD  GLU A   1       6.586   5.443  22.493  0.00  0.00    +0.305 C 
ATOM     20  OE2 GLU A   1       5.628   5.758  23.184  0.00  0.00    -0.251 OA
BRANCH  19  21
ATOM     21  OE1 GLU A   1       6.676   4.246  21.871  0.00  0.00    -0.481 OA
ATOM     22  HE1 GLU A   1       7.492   4.138  21.341  0.00  0.00    +0.295 HD
ENDBRANCH  19  21
ENDBRANCH  18  19
ENDBRANCH  17  18
ENDBRANCH  12  17
ENDBRANCH   9  12
ENDBRANCH   5   8
ENDBRANCH   1   2
BRANCH   1  23
ATOM     23  C   UNK A   0       7.989  -2.366  22.277  0.00  0.00    +0.066 C 
BRANCH  23  37
ATOM     24  N   UNK A   0       3.574  -7.586  25.597  0.00  0.00    -0.327 N 
ATOM     25  H   UNK A   0       2.741  -7.368  26.124  0.00  0.00    +0.145 HD
ATOM     26  H   UNK A   0       3.564  -8.397  24.995  0.00  0.00    +0.145 HD
ATOM     27  C   UNK A   0       4.079  -6.478  24.956  0.00  0.00    +0.216 A 
ATOM     28  N   UNK A   0       3.742  -5.288  25.443  0.00  0.00    -0.198 NA
ATOM     29  C   UNK A   0       4.345  -4.226  24.889  0.00  0.00    +0.149 A 
ATOM     30  N   UNK A   0       3.967  -2.979  25.415  0.00  0.00    -0.341 N 
ATOM     31  H   UNK A   0       3.425  -3.125  26.261  0.00  0.00    +0.144 HD
ATOM     32  H   UNK A   0       4.774  -2.374  25.531  0.00  0.00    +0.144 HD
ATOM     33  C   UNK A   0       5.278  -4.306  23.861  0.00  0.00    +0.148 A 
ATOM     34  C   UNK A   0       5.508  -5.610  23.412  0.00  0.00    +0.185 A 
ATOM     35  N   UNK A   0       6.437  -5.819  22.470  0.00  0.00    -0.232 NA
ATOM     36  C   UNK A   0       7.187  -4.763  22.068  0.00  0.00    +0.136 A 
ATOM     37  C   UNK A   0       7.001  -3.482  22.551  0.00  0.00    +0.061 A 
ATOM     38  N   UNK A   0       5.988  -3.227  23.408  0.00  0.00    -0.243 NA
ATOM     39  N   UNK A   0       4.900  -6.673  23.930  0.00  0.00    -0.193 NA
ENDBRANCH  23  37
ENDBRANCH   1  23
BRANCH   1  40
ATOM     40  C   UNK A   0       9.767  -2.945  24.101  0.00  0.00    +0.097 C 
BRANCH  40  41
ATOM     41  C   UNK A   0       9.119  -3.671  25.268  0.00  0.00    -0.105 C 
ATOM     42  C   UNK A   0       8.563  -4.294  26.270  0.00  0.00    +0.004 C 
ENDBRANCH  40  41
ENDBRANCH   1  40
TORSDOF 13
ENDMDL
