MODEL 1
REMARK VINA RESULT:      -6.3      0.000      0.000
REMARK  Name = 
REMARK  38 active torsions:
REMARK  status: ('A' for Active; 'I' for Inactive)
REMARK    1  A    between atoms: C_1  and  C_2
REMARK    2  A    between atoms: C_2  and  C_3
REMARK    3  A    between atoms: C_3  and  C_4
REMARK    4  A    between atoms: C_4  and  C_5
REMARK    5  A    between atoms: C_5  and  C_6
REMARK    6  A    between atoms: C_6  and  C_7
REMARK    7  A    between atoms: C_7  and  C_8
REMARK    8  A    between atoms: C_8  and  O_10
REMARK    9  A    between atoms: C_8  and  C_11
REMARK   10  A    between atoms: C_11  and  C_12
REMARK   11  A    between atoms: C_12  and  S_14
REMARK   12  A    between atoms: S_14  and  C_15
REMARK   13  A    between atoms: C_15  and  C_16
REMARK   14  A    between atoms: C_16  and  N_17
REMARK   15  A    between atoms: C_18  and  C_20
REMARK   16  A    between atoms: C_20  and  C_21
REMARK   17  A    between atoms: C_21  and  N_22
REMARK   18  A    between atoms: C_23  and  C_25
REMARK   19  A    between atoms: C_25  and  O_27
REMARK   20  A    between atoms: C_25  and  C_28
REMARK   21  A    between atoms: C_28  and  C_29
REMARK   22  A    between atoms: C_28  and  C_30
REMARK   23  A    between atoms: C_28  and  C_31
REMARK   24  A    between atoms: C_31  and  O_32
REMARK   25  A    between atoms: O_32  and  P_33
REMARK   26  A    between atoms: P_33  and  O_34
REMARK   27  A    between atoms: P_33  and  O_36
REMARK   28  A    between atoms: O_36  and  P_37
REMARK   29  A    between atoms: P_37  and  O_38
REMARK   30  A    between atoms: P_37  and  O_40
REMARK   31  A    between atoms: O_40  and  C_41
REMARK   32  A    between atoms: C_41  and  C_42
REMARK   33  A    between atoms: C_45  and  N_57
REMARK   34  A    between atoms: C_47  and  O_49
REMARK   35  A    between atoms: C_50  and  O_52
REMARK   36  A    between atoms: O_52  and  P_53
REMARK   37  A    between atoms: P_53  and  O_54
REMARK   38  A    between atoms: P_53  and  O_55
REMARK                            x       y       z     vdW  Elec       q    Type
REMARK                         _______ _______ _______ _____ _____    ______ ____
ROOT
ATOM      1  P   UNL     1       4.933  -6.270  28.901  0.00  0.00    +0.483 P 
ATOM      2  O   UNL     1       4.929  -4.890  29.569  0.00  0.00    -0.227 OA
ENDROOT
BRANCH   1   3
ATOM      3  O   UNL     1       4.776  -6.963  30.478  0.00  0.00    -0.302 OA
ATOM      4  H   UNL     1       4.924  -7.916  30.314  0.00  0.00    +0.222 HD
ENDBRANCH   1   3
BRANCH   1   5
ATOM      5  O   UNL     1       5.090  -5.576  27.324  0.00  0.00    -0.186 OA
BRANCH   5   6
ATOM      6  P   UNL     1       6.753  -5.209  27.018  0.00  0.00    +0.483 P 
ATOM      7  O   UNL     1       7.177  -6.028  28.234  0.00  0.00    -0.227 OA
BRANCH   6   8
ATOM      8  O   UNL     1       6.470  -3.678  27.496  0.00  0.00    -0.302 OA
ATOM      9  H   UNL     1       7.046  -3.409  28.237  0.00  0.00    +0.222 HD
ENDBRANCH   6   8
BRANCH   6  10
ATOM     10  O   UNL     1       8.415  -4.842  26.712  0.00  0.00    -0.284 OA
BRANCH  10  11
ATOM     11  C   UNL     1       8.968  -5.613  25.594  0.00  0.00    +0.206 C 
BRANCH  11  12
ATOM     12  C   UNL     1       8.701  -5.137  24.168  0.00  0.00    +0.179 C 
ATOM     13  C   UNL     1       7.212  -4.909  23.874  0.00  0.00    +0.194 C 
ATOM     14  C   UNL     1       7.104  -3.393  23.757  0.00  0.00    +0.196 C 
ATOM     15  C   UNL     1       8.506  -2.853  24.107  0.00  0.00    +0.253 C 
ATOM     16  O   UNL     1       9.424  -3.933  23.961  0.00  0.00    -0.346 OA
BRANCH  15  17
ATOM     17  N   UNL     1       8.951  -1.775  23.255  0.00  0.00    -0.286 N 
ATOM     18  C   UNL     1       9.500  -0.606  23.697  0.00  0.00    +0.167 A 
ATOM     19  N   UNL     1       9.751  -0.253  24.969  0.00  0.00    -0.216 NA
ATOM     20  C   UNL     1      10.265   0.997  25.009  0.00  0.00    +0.225 A 
ATOM     21  N   UNL     1      10.491   1.849  23.985  0.00  0.00    -0.219 NA
ATOM     22  C   UNL     1      10.183   1.446  22.730  0.00  0.00    +0.147 A 
ATOM     23  N   UNL     1      10.356   2.335  21.681  0.00  0.00    -0.341 N 
ATOM     24  H   UNL     1      10.398   1.899  20.768  0.00  0.00    +0.144 HD
ATOM     25  H   UNL     1      10.999   3.085  21.891  0.00  0.00    +0.144 HD
ATOM     26  C   UNL     1       9.695   0.145  22.550  0.00  0.00    +0.147 A 
ATOM     27  N   UNL     1       9.347  -0.572  21.425  0.00  0.00    -0.231 NA
ATOM     28  C   UNL     1       8.923  -1.730  21.885  0.00  0.00    +0.203 A 
ENDBRANCH  15  17
BRANCH  14  29
ATOM     29  O   UNL     1       6.127  -2.910  24.692  0.00  0.00    -0.385 OA
ATOM     30  H   UNL     1       6.067  -1.942  24.555  0.00  0.00    +0.210 HD
ENDBRANCH  14  29
BRANCH  13  31
ATOM     31  O   UNL     1       6.763  -5.571  22.652  0.00  0.00    -0.278 OA
BRANCH  31  32
ATOM     32  P   UNL     1       5.035  -5.654  22.592  0.00  0.00    +0.473 P 
ATOM     33  O   UNL     1       3.490  -5.727  22.539  0.00  0.00    -0.228 OA
BRANCH  32  34
ATOM     34  O   UNL     1       5.204  -7.032  23.452  0.00  0.00    -0.303 OA
ATOM     35  H   UNL     1       5.393  -6.756  24.369  0.00  0.00    +0.222 HD
ENDBRANCH  32  34
BRANCH  32  36
ATOM     36  O   UNL     1       5.235  -6.403  21.152  0.00  0.00    -0.303 OA
ATOM     37  H   UNL     1       6.130  -6.785  21.092  0.00  0.00    +0.222 HD
ENDBRANCH  32  36
ENDBRANCH  31  32
ENDBRANCH  13  31
ENDBRANCH  11  12
ENDBRANCH  10  11
ENDBRANCH   6  10
ENDBRANCH   5   6
ENDBRANCH   1   5
BRANCH   1  38
ATOM     38  O   UNL     1       3.331  -6.636  28.590  0.00  0.00    -0.286 OA
BRANCH  38  39
ATOM     39  C   UNL     1       2.884  -6.593  27.232  0.00  0.00    +0.181 C 
BRANCH  39  40
ATOM     40  C   UNL     1       1.795  -5.560  26.955  0.00  0.00    +0.024 C 
ATOM     41  C   UNL     1       0.465  -6.333  26.772  0.00  0.00    +0.016 C 
ATOM     42  C   UNL     1       1.635  -4.663  28.200  0.00  0.00    +0.016 C 
BRANCH  40  43
ATOM     43  C   UNL     1       2.176  -4.713  25.716  0.00  0.00    +0.208 C 
BRANCH  43  46
ATOM     44  N   UNL     1       3.489  -2.783  26.554  0.00  0.00    -0.313 N 
ATOM     45  H   UNL     1       4.301  -3.367  26.363  0.00  0.00    +0.149 HD
ATOM     46  C   UNL     1       2.277  -3.201  26.045  0.00  0.00    +0.242 C 
ATOM     47  O   UNL     1       1.318  -2.441  25.931  0.00  0.00    -0.273 OA
BRANCH  44  48
ATOM     48  C   UNL     1       3.754  -1.373  26.818  0.00  0.00    +0.113 C 
BRANCH  48  49
ATOM     49  C   UNL     1       4.635  -1.121  28.044  0.00  0.00    +0.114 C 
BRANCH  49  52
ATOM     50  N   UNL     1       5.760   1.036  28.036  0.00  0.00    -0.314 N 
ATOM     51  H   UNL     1       5.013   1.313  28.671  0.00  0.00    +0.149 HD
ATOM     52  C   UNL     1       5.844  -0.294  27.668  0.00  0.00    +0.215 C 
ATOM     53  O   UNL     1       6.825  -0.770  27.112  0.00  0.00    -0.276 OA
BRANCH  50  54
ATOM     54  C   UNL     1       6.884   1.944  27.878  0.00  0.00    +0.115 C 
BRANCH  54  55
ATOM     55  C   UNL     1       7.090   2.411  26.435  0.00  0.00    +0.096 C 
BRANCH  55  56
ATOM     56  S   UNL     1       5.503   2.608  25.557  0.00  0.00    -0.087 S 
BRANCH  56  57
ATOM     57  C   UNL     1       5.907   1.802  24.036  0.00  0.00    +0.192 C 
ATOM     58  O   UNL     1       6.125   0.596  23.978  0.00  0.00    -0.285 OA
BRANCH  57  59
ATOM     59  C   UNL     1       5.920   2.730  22.839  0.00  0.00    +0.117 C 
BRANCH  59  60
ATOM     60  C   UNL     1       7.135   3.662  22.846  0.00  0.00    +0.122 C 
BRANCH  60  61
ATOM     61  O   UNL     1       7.763   3.631  21.561  0.00  0.00    -0.391 OA
ATOM     62  H   UNL     1       8.726   3.549  21.717  0.00  0.00    +0.210 HD
ENDBRANCH  60  61
BRANCH  60  63
ATOM     63  C   UNL     1       6.779   5.136  23.119  0.00  0.00    +0.032 C 
BRANCH  63  64
ATOM     64  C   UNL     1       7.565   5.764  24.271  0.00  0.00    +0.003 C 
BRANCH  64  65
ATOM     65  C   UNL     1       8.650   6.730  23.789  0.00  0.00    +0.000 C 
BRANCH  65  66
ATOM     66  C   UNL     1       9.963   6.452  24.525  0.00  0.00    -0.000 C 
BRANCH  66  67
ATOM     67  C   UNL     1      10.849   5.455  23.777  0.00  0.00    -0.000 C 
BRANCH  67  69
ATOM     68  C   UNL     1      13.057   5.416  22.560  0.00  0.00    +0.004 C 
ATOM     69  C   UNL     1      12.309   5.912  23.786  0.00  0.00    -0.003 C 
ENDBRANCH  67  69
ENDBRANCH  66  67
ENDBRANCH  65  66
ENDBRANCH  64  65
ENDBRANCH  63  64
ENDBRANCH  60  63
ENDBRANCH  59  60
ENDBRANCH  57  59
ENDBRANCH  56  57
ENDBRANCH  55  56
ENDBRANCH  54  55
ENDBRANCH  50  54
ENDBRANCH  49  52
ENDBRANCH  48  49
ENDBRANCH  44  48
ENDBRANCH  43  46
BRANCH  43  70
ATOM     70  O   UNL     1       3.423  -5.176  25.197  0.00  0.00    -0.382 OA
ATOM     71  H   UNL     1       3.989  -4.393  25.083  0.00  0.00    +0.210 HD
ENDBRANCH  43  70
ENDBRANCH  40  43
ENDBRANCH  39  40
ENDBRANCH  38  39
ENDBRANCH   1  38
TORSDOF 35
ENDMDL
MODEL 2
REMARK VINA RESULT:      -6.2      1.448      2.757
REMARK  Name = 
REMARK  38 active torsions:
REMARK  status: ('A' for Active; 'I' for Inactive)
REMARK    1  A    between atoms: C_1  and  C_2
REMARK    2  A    between atoms: C_2  and  C_3
REMARK    3  A    between atoms: C_3  and  C_4
REMARK    4  A    between atoms: C_4  and  C_5
REMARK    5  A    between atoms: C_5  and  C_6
REMARK    6  A    between atoms: C_6  and  C_7
REMARK    7  A    between atoms: C_7  and  C_8
REMARK    8  A    between atoms: C_8  and  O_10
REMARK    9  A    between atoms: C_8  and  C_11
REMARK   10  A    between atoms: C_11  and  C_12
REMARK   11  A    between atoms: C_12  and  S_14
REMARK   12  A    between atoms: S_14  and  C_15
REMARK   13  A    between atoms: C_15  and  C_16
REMARK   14  A    between atoms: C_16  and  N_17
REMARK   15  A    between atoms: C_18  and  C_20
REMARK   16  A    between atoms: C_20  and  C_21
REMARK   17  A    between atoms: C_21  and  N_22
REMARK   18  A    between atoms: C_23  and  C_25
REMARK   19  A    between atoms: C_25  and  O_27
REMARK   20  A    between atoms: C_25  and  C_28
REMARK   21  A    between atoms: C_28  and  C_29
REMARK   22  A    between atoms: C_28  and  C_30
REMARK   23  A    between atoms: C_28  and  C_31
REMARK   24  A    between atoms: C_31  and  O_32
REMARK   25  A    between atoms: O_32  and  P_33
REMARK   26  A    between atoms: P_33  and  O_34
REMARK   27  A    between atoms: P_33  and  O_36
REMARK   28  A    between atoms: O_36  and  P_37
REMARK   29  A    between atoms: P_37  and  O_38
REMARK   30  A    between atoms: P_37  and  O_40
REMARK   31  A    between atoms: O_40  and  C_41
REMARK   32  A    between atoms: C_41  and  C_42
REMARK   33  A    between atoms: C_45  and  N_57
REMARK   34  A    between atoms: C_47  and  O_49
REMARK   35  A    between atoms: C_50  and  O_52
REMARK   36  A    between atoms: O_52  and  P_53
REMARK   37  A    between atoms: P_53  and  O_54
REMARK   38  A    between atoms: P_53  and  O_55
REMARK                            x       y       z     vdW  Elec       q    Type
REMARK                         _______ _______ _______ _____ _____    ______ ____
ROOT
ATOM      1  P   UNL     1       4.847  -6.327  28.725  0.00  0.00    +0.483 P 
ATOM      2  O   UNL     1       4.680  -4.939  29.353  0.00  0.00    -0.227 OA
ENDROOT
BRANCH   1   3
ATOM      3  O   UNL     1       4.512  -7.002  30.282  0.00  0.00    -0.302 OA
ATOM      4  H   UNL     1       3.541  -6.905  30.359  0.00  0.00    +0.222 HD
ENDBRANCH   1   3
BRANCH   1   5
ATOM      5  O   UNL     1       5.181  -5.652  27.168  0.00  0.00    -0.186 OA
BRANCH   5   6
ATOM      6  P   UNL     1       6.860  -5.245  27.064  0.00  0.00    +0.483 P 
ATOM      7  O   UNL     1       7.171  -6.144  28.257  0.00  0.00    -0.227 OA
BRANCH   6   8
ATOM      8  O   UNL     1       6.500  -3.755  27.615  0.00  0.00    -0.302 OA
ATOM      9  H   UNL     1       5.984  -3.782  28.443  0.00  0.00    +0.222 HD
ENDBRANCH   6   8
BRANCH   6  10
ATOM     10  O   UNL     1       8.538  -4.839  26.960  0.00  0.00    -0.284 OA
BRANCH  10  11
ATOM     11  C   UNL     1       9.216  -5.518  25.851  0.00  0.00    +0.206 C 
BRANCH  11  12
ATOM     12  C   UNL     1       8.869  -5.116  24.419  0.00  0.00    +0.179 C 
ATOM     13  C   UNL     1       7.361  -4.972  24.179  0.00  0.00    +0.194 C 
ATOM     14  C   UNL     1       7.174  -3.469  24.005  0.00  0.00    +0.196 C 
ATOM     15  C   UNL     1       8.559  -2.849  24.274  0.00  0.00    +0.253 C 
ATOM     16  O   UNL     1       9.524  -3.888  24.134  0.00  0.00    -0.346 OA
BRANCH  15  17
ATOM     17  N   UNL     1       8.916  -1.788  23.361  0.00  0.00    -0.286 N 
ATOM     18  C   UNL     1       9.597  -0.656  23.708  0.00  0.00    +0.167 A 
ATOM     19  N   UNL     1      10.077  -0.332  24.919  0.00  0.00    -0.216 NA
ATOM     20  C   UNL     1      10.661   0.886  24.875  0.00  0.00    +0.225 A 
ATOM     21  N   UNL     1      10.760   1.736  23.830  0.00  0.00    -0.219 NA
ATOM     22  C   UNL     1      10.225   1.365  22.643  0.00  0.00    +0.147 A 
ATOM     23  N   UNL     1      10.271   2.255  21.582  0.00  0.00    -0.341 N 
ATOM     24  H   UNL     1      10.135   1.827  20.674  0.00  0.00    +0.144 HD
ATOM     25  H   UNL     1      10.981   2.965  21.682  0.00  0.00    +0.144 HD
ATOM     26  C   UNL     1       9.640   0.095  22.545  0.00  0.00    +0.147 A 
ATOM     27  N   UNL     1       9.069  -0.589  21.492  0.00  0.00    -0.231 NA
ATOM     28  C   UNL     1       8.663  -1.726  22.015  0.00  0.00    +0.203 A 
ENDBRANCH  15  17
BRANCH  14  29
ATOM     29  O   UNL     1       6.211  -2.995  24.959  0.00  0.00    -0.385 OA
ATOM     30  H   UNL     1       5.733  -2.257  24.526  0.00  0.00    +0.210 HD
ENDBRANCH  14  29
BRANCH  13  31
ATOM     31  O   UNL     1       6.897  -5.707  23.004  0.00  0.00    -0.278 OA
BRANCH  31  32
ATOM     32  P   UNL     1       6.205  -4.633  21.836  0.00  0.00    +0.473 P 
ATOM     33  O   UNL     1       5.586  -3.673  20.792  0.00  0.00    -0.228 OA
BRANCH  32  34
ATOM     34  O   UNL     1       4.772  -5.261  22.305  0.00  0.00    -0.303 OA
ATOM     35  H   UNL     1       4.786  -5.264  23.281  0.00  0.00    +0.222 HD
ENDBRANCH  32  34
BRANCH  32  36
ATOM     36  O   UNL     1       6.488  -5.820  20.746  0.00  0.00    -0.303 OA
ATOM     37  H   UNL     1       5.865  -6.557  20.881  0.00  0.00    +0.222 HD
ENDBRANCH  32  36
ENDBRANCH  31  32
ENDBRANCH  13  31
ENDBRANCH  11  12
ENDBRANCH  10  11
ENDBRANCH   6  10
ENDBRANCH   5   6
ENDBRANCH   1   5
BRANCH   1  38
ATOM     38  O   UNL     1       3.324  -6.786  28.209  0.00  0.00    -0.286 OA
BRANCH  38  39
ATOM     39  C   UNL     1       3.046  -6.733  26.806  0.00  0.00    +0.181 C 
BRANCH  39  40
ATOM     40  C   UNL     1       1.934  -5.763  26.416  0.00  0.00    +0.024 C 
ATOM     41  C   UNL     1       0.707  -6.614  26.003  0.00  0.00    +0.016 C 
ATOM     42  C   UNL     1       1.527  -4.948  27.661  0.00  0.00    +0.016 C 
BRANCH  40  43
ATOM     43  C   UNL     1       2.426  -4.827  25.285  0.00  0.00    +0.208 C 
BRANCH  43  46
ATOM     44  N   UNL     1       3.519  -2.884  26.375  0.00  0.00    -0.313 N 
ATOM     45  H   UNL     1       4.381  -3.413  26.249  0.00  0.00    +0.149 HD
ATOM     46  C   UNL     1       2.400  -3.333  25.705  0.00  0.00    +0.242 C 
ATOM     47  O   UNL     1       1.417  -2.619  25.520  0.00  0.00    -0.273 OA
BRANCH  44  48
ATOM     48  C   UNL     1       3.669  -1.481  26.744  0.00  0.00    +0.113 C 
BRANCH  48  49
ATOM     49  C   UNL     1       4.415  -1.257  28.061  0.00  0.00    +0.114 C 
BRANCH  49  52
ATOM     50  N   UNL     1       5.834   0.635  28.630  0.00  0.00    -0.314 N 
ATOM     51  H   UNL     1       5.200   0.743  29.419  0.00  0.00    +0.149 HD
ATOM     52  C   UNL     1       5.690  -0.477  27.823  0.00  0.00    +0.215 C 
ATOM     53  O   UNL     1       6.534  -0.822  27.006  0.00  0.00    -0.276 OA
BRANCH  50  54
ATOM     54  C   UNL     1       7.058   1.421  28.634  0.00  0.00    +0.115 C 
BRANCH  54  55
ATOM     55  C   UNL     1       6.827   2.907  28.348  0.00  0.00    +0.096 C 
BRANCH  55  56
ATOM     56  S   UNL     1       6.359   3.194  26.608  0.00  0.00    -0.087 S 
BRANCH  56  57
ATOM     57  C   UNL     1       7.675   4.270  26.123  0.00  0.00    +0.192 C 
ATOM     58  O   UNL     1       8.002   5.242  26.797  0.00  0.00    -0.285 OA
BRANCH  57  59
ATOM     59  C   UNL     1       8.360   3.854  24.838  0.00  0.00    +0.117 C 
BRANCH  59  60
ATOM     60  C   UNL     1       8.827   5.062  24.018  0.00  0.00    +0.122 C 
BRANCH  60  61
ATOM     61  O   UNL     1      10.093   4.765  23.419  0.00  0.00    -0.391 OA
ATOM     62  H   UNL     1      10.481   4.024  23.927  0.00  0.00    +0.210 HD
ENDBRANCH  60  61
BRANCH  60  63
ATOM     63  C   UNL     1       7.875   5.427  22.863  0.00  0.00    +0.032 C 
BRANCH  63  64
ATOM     64  C   UNL     1       6.969   4.280  22.417  0.00  0.00    +0.003 C 
BRANCH  64  65
ATOM     65  C   UNL     1       5.525   4.444  22.900  0.00  0.00    +0.000 C 
BRANCH  65  66
ATOM     66  C   UNL     1       4.677   3.260  22.430  0.00  0.00    -0.000 C 
BRANCH  66  67
ATOM     67  C   UNL     1       3.272   3.684  22.004  0.00  0.00    -0.000 C 
BRANCH  67  69
ATOM     68  C   UNL     1       1.849   4.761  23.786  0.00  0.00    +0.004 C 
ATOM     69  C   UNL     1       2.869   4.994  22.685  0.00  0.00    -0.003 C 
ENDBRANCH  67  69
ENDBRANCH  66  67
ENDBRANCH  65  66
ENDBRANCH  64  65
ENDBRANCH  63  64
ENDBRANCH  60  63
ENDBRANCH  59  60
ENDBRANCH  57  59
ENDBRANCH  56  57
ENDBRANCH  55  56
ENDBRANCH  54  55
ENDBRANCH  50  54
ENDBRANCH  49  52
ENDBRANCH  48  49
ENDBRANCH  44  48
ENDBRANCH  43  46
BRANCH  43  70
ATOM     70  O   UNL     1       3.754  -5.197  24.914  0.00  0.00    -0.382 OA
ATOM     71  H   UNL     1       4.248  -5.342  25.739  0.00  0.00    +0.210 HD
ENDBRANCH  43  70
ENDBRANCH  40  43
ENDBRANCH  39  40
ENDBRANCH  38  39
ENDBRANCH   1  38
TORSDOF 35
ENDMDL
MODEL 3
REMARK VINA RESULT:      -5.7      3.914      8.232
REMARK  Name = 
REMARK  38 active torsions:
REMARK  status: ('A' for Active; 'I' for Inactive)
REMARK    1  A    between atoms: C_1  and  C_2
REMARK    2  A    between atoms: C_2  and  C_3
REMARK    3  A    between atoms: C_3  and  C_4
REMARK    4  A    between atoms: C_4  and  C_5
REMARK    5  A    between atoms: C_5  and  C_6
REMARK    6  A    between atoms: C_6  and  C_7
REMARK    7  A    between atoms: C_7  and  C_8
REMARK    8  A    between atoms: C_8  and  O_10
REMARK    9  A    between atoms: C_8  and  C_11
REMARK   10  A    between atoms: C_11  and  C_12
REMARK   11  A    between atoms: C_12  and  S_14
REMARK   12  A    between atoms: S_14  and  C_15
REMARK   13  A    between atoms: C_15  and  C_16
REMARK   14  A    between atoms: C_16  and  N_17
REMARK   15  A    between atoms: C_18  and  C_20
REMARK   16  A    between atoms: C_20  and  C_21
REMARK   17  A    between atoms: C_21  and  N_22
REMARK   18  A    between atoms: C_23  and  C_25
REMARK   19  A    between atoms: C_25  and  O_27
REMARK   20  A    between atoms: C_25  and  C_28
REMARK   21  A    between atoms: C_28  and  C_29
REMARK   22  A    between atoms: C_28  and  C_30
REMARK   23  A    between atoms: C_28  and  C_31
REMARK   24  A    between atoms: C_31  and  O_32
REMARK   25  A    between atoms: O_32  and  P_33
REMARK   26  A    between atoms: P_33  and  O_34
REMARK   27  A    between atoms: P_33  and  O_36
REMARK   28  A    between atoms: O_36  and  P_37
REMARK   29  A    between atoms: P_37  and  O_38
REMARK   30  A    between atoms: P_37  and  O_40
REMARK   31  A    between atoms: O_40  and  C_41
REMARK   32  A    between atoms: C_41  and  C_42
REMARK   33  A    between atoms: C_45  and  N_57
REMARK   34  A    between atoms: C_47  and  O_49
REMARK   35  A    between atoms: C_50  and  O_52
REMARK   36  A    between atoms: O_52  and  P_53
REMARK   37  A    between atoms: P_53  and  O_54
REMARK   38  A    between atoms: P_53  and  O_55
REMARK                            x       y       z     vdW  Elec       q    Type
REMARK                         _______ _______ _______ _____ _____    ______ ____
ROOT
ATOM      1  P   UNL     1       4.067  -1.787  26.726  0.00  0.00    +0.483 P 
ATOM      2  O   UNL     1       4.626  -1.415  25.348  0.00  0.00    -0.227 OA
ENDROOT
BRANCH   1   3
ATOM      3  O   UNL     1       2.584  -2.205  25.940  0.00  0.00    -0.302 OA
ATOM      4  H   UNL     1       2.821  -2.171  24.992  0.00  0.00    +0.222 HD
ENDBRANCH   1   3
BRANCH   1   5
ATOM      5  O   UNL     1       5.550  -1.368  27.512  0.00  0.00    -0.186 OA
BRANCH   5   6
ATOM      6  P   UNL     1       6.029   0.223  27.030  0.00  0.00    +0.483 P 
ATOM      7  O   UNL     1       6.898   0.360  28.278  0.00  0.00    -0.227 OA
BRANCH   6   8
ATOM      8  O   UNL     1       4.528   0.747  27.383  0.00  0.00    -0.302 OA
ATOM      9  H   UNL     1       4.537   1.564  27.916  0.00  0.00    +0.222 HD
ENDBRANCH   6   8
BRANCH   6  10
ATOM     10  O   UNL     1       6.508   1.814  26.549  0.00  0.00    -0.284 OA
BRANCH  10  11
ATOM     11  C   UNL     1       5.372   2.645  26.138  0.00  0.00    +0.206 C 
BRANCH  11  12
ATOM     12  C   UNL     1       5.611   3.780  25.144  0.00  0.00    +0.179 C 
ATOM     13  C   UNL     1       6.596   3.410  24.028  0.00  0.00    +0.194 C 
ATOM     14  C   UNL     1       5.709   3.323  22.791  0.00  0.00    +0.196 C 
ATOM     15  C   UNL     1       4.270   3.531  23.301  0.00  0.00    +0.253 C 
ATOM     16  O   UNL     1       4.359   4.148  24.583  0.00  0.00    -0.346 OA
BRANCH  15  17
ATOM     17  N   UNL     1       3.462   4.381  22.457  0.00  0.00    -0.286 N 
ATOM     18  C   UNL     1       2.551   3.934  21.543  0.00  0.00    +0.167 A 
ATOM     19  N   UNL     1       2.218   2.660  21.279  0.00  0.00    -0.216 NA
ATOM     20  C   UNL     1       1.304   2.617  20.285  0.00  0.00    +0.225 A 
ATOM     21  N   UNL     1       0.778   3.643  19.579  0.00  0.00    -0.219 NA
ATOM     22  C   UNL     1       1.182   4.901  19.870  0.00  0.00    +0.147 A 
ATOM     23  N   UNL     1       0.691   5.952  19.110  0.00  0.00    -0.341 N 
ATOM     24  H   UNL     1       0.786   6.861  19.549  0.00  0.00    +0.144 HD
ATOM     25  H   UNL     1      -0.167   5.734  18.627  0.00  0.00    +0.144 HD
ATOM     26  C   UNL     1       2.087   5.083  20.924  0.00  0.00    +0.147 A 
ATOM     27  N   UNL     1       2.639   6.210  21.493  0.00  0.00    -0.231 NA
ATOM     28  C   UNL     1       3.446   5.751  22.426  0.00  0.00    +0.203 A 
ENDBRANCH  15  17
BRANCH  14  29
ATOM     29  O   UNL     1       5.853   2.026  22.191  0.00  0.00    -0.385 OA
ATOM     30  H   UNL     1       6.265   2.171  21.314  0.00  0.00    +0.210 HD
ENDBRANCH  14  29
BRANCH  13  31
ATOM     31  O   UNL     1       7.659   4.397  23.853  0.00  0.00    -0.278 OA
BRANCH  31  32
ATOM     32  P   UNL     1       9.207   3.628  23.757  0.00  0.00    +0.473 P 
ATOM     33  O   UNL     1      10.591   2.941  23.671  0.00  0.00    -0.228 OA
BRANCH  32  34
ATOM     34  O   UNL     1       9.769   5.109  23.359  0.00  0.00    -0.303 OA
ATOM     35  H   UNL     1      10.056   5.046  22.427  0.00  0.00    +0.222 HD
ENDBRANCH  32  34
BRANCH  32  36
ATOM     36  O   UNL     1       8.798   3.253  22.218  0.00  0.00    -0.303 OA
ATOM     37  H   UNL     1       8.724   4.064  21.682  0.00  0.00    +0.222 HD
ENDBRANCH  32  36
ENDBRANCH  31  32
ENDBRANCH  13  31
ENDBRANCH  11  12
ENDBRANCH  10  11
ENDBRANCH   6  10
ENDBRANCH   5   6
ENDBRANCH   1   5
BRANCH   1  38
ATOM     38  O   UNL     1       4.402  -3.411  26.937  0.00  0.00    -0.286 OA
BRANCH  38  39
ATOM     39  C   UNL     1       4.551  -3.898  28.274  0.00  0.00    +0.181 C 
BRANCH  39  40
ATOM     40  C   UNL     1       3.757  -5.165  28.580  0.00  0.00    +0.024 C 
ATOM     41  C   UNL     1       3.555  -5.221  30.115  0.00  0.00    +0.016 C 
ATOM     42  C   UNL     1       2.360  -5.042  27.939  0.00  0.00    +0.016 C 
BRANCH  40  43
ATOM     43  C   UNL     1       4.506  -6.402  28.025  0.00  0.00    +0.208 C 
BRANCH  43  46
ATOM     44  N   UNL     1       6.467  -5.809  26.627  0.00  0.00    -0.313 N 
ATOM     45  H   UNL     1       5.780  -5.414  25.988  0.00  0.00    +0.149 HD
ATOM     46  C   UNL     1       6.032  -6.153  27.889  0.00  0.00    +0.242 C 
ATOM     47  O   UNL     1       6.808  -6.325  28.826  0.00  0.00    -0.273 OA
BRANCH  44  48
ATOM     48  C   UNL     1       7.860  -5.455  26.376  0.00  0.00    +0.113 C 
BRANCH  48  49
ATOM     49  C   UNL     1       8.131  -4.946  24.959  0.00  0.00    +0.114 C 
BRANCH  49  52
ATOM     50  N   UNL     1       8.564  -2.676  25.720  0.00  0.00    -0.314 N 
ATOM     51  H   UNL     1       7.748  -2.828  26.311  0.00  0.00    +0.149 HD
ATOM     52  C   UNL     1       9.051  -3.746  24.993  0.00  0.00    +0.215 C 
ATOM     53  O   UNL     1      10.147  -3.736  24.448  0.00  0.00    -0.276 OA
BRANCH  50  54
ATOM     54  C   UNL     1       9.372  -1.494  25.974  0.00  0.00    +0.115 C 
BRANCH  54  55
ATOM     55  C   UNL     1       9.072  -0.336  25.018  0.00  0.00    +0.096 C 
BRANCH  55  56
ATOM     56  S   UNL     1      10.083  -0.435  23.503  0.00  0.00    -0.087 S 
BRANCH  56  57
ATOM     57  C   UNL     1       8.795  -0.443  22.291  0.00  0.00    +0.192 C 
ATOM     58  O   UNL     1       8.392   0.590  21.765  0.00  0.00    -0.285 OA
BRANCH  57  59
ATOM     59  C   UNL     1       8.282  -1.828  21.956  0.00  0.00    +0.117 C 
BRANCH  59  60
ATOM     60  C   UNL     1       7.002  -2.169  22.726  0.00  0.00    +0.122 C 
BRANCH  60  61
ATOM     61  O   UNL     1       6.166  -1.009  22.793  0.00  0.00    -0.391 OA
ATOM     62  H   UNL     1       5.240  -1.325  22.782  0.00  0.00    +0.210 HD
ENDBRANCH  60  61
BRANCH  60  63
ATOM     63  C   UNL     1       6.159  -3.274  22.061  0.00  0.00    +0.032 C 
BRANCH  63  64
ATOM     64  C   UNL     1       4.930  -3.691  22.869  0.00  0.00    +0.003 C 
BRANCH  64  65
ATOM     65  C   UNL     1       4.787  -5.211  22.987  0.00  0.00    +0.000 C 
BRANCH  65  66
ATOM     66  C   UNL     1       3.940  -5.564  24.212  0.00  0.00    -0.000 C 
BRANCH  66  67
ATOM     67  C   UNL     1       3.842  -7.073  24.435  0.00  0.00    -0.000 C 
BRANCH  67  69
ATOM     68  C   UNL     1       1.358  -6.645  24.528  0.00  0.00    +0.004 C 
ATOM     69  C   UNL     1       2.452  -7.589  24.057  0.00  0.00    -0.003 C 
ENDBRANCH  67  69
ENDBRANCH  66  67
ENDBRANCH  65  66
ENDBRANCH  64  65
ENDBRANCH  63  64
ENDBRANCH  60  63
ENDBRANCH  59  60
ENDBRANCH  57  59
ENDBRANCH  56  57
ENDBRANCH  55  56
ENDBRANCH  54  55
ENDBRANCH  50  54
ENDBRANCH  49  52
ENDBRANCH  48  49
ENDBRANCH  44  48
ENDBRANCH  43  46
BRANCH  43  70
ATOM     70  O   UNL     1       4.277  -7.516  28.889  0.00  0.00    -0.382 OA
ATOM     71  H   UNL     1       3.915  -7.159  29.719  0.00  0.00    +0.210 HD
ENDBRANCH  43  70
ENDBRANCH  40  43
ENDBRANCH  39  40
ENDBRANCH  38  39
ENDBRANCH   1  38
TORSDOF 35
ENDMDL
MODEL 4
REMARK VINA RESULT:      -5.7      2.929      8.644
REMARK  Name = 
REMARK  38 active torsions:
REMARK  status: ('A' for Active; 'I' for Inactive)
REMARK    1  A    between atoms: C_1  and  C_2
REMARK    2  A    between atoms: C_2  and  C_3
REMARK    3  A    between atoms: C_3  and  C_4
REMARK    4  A    between atoms: C_4  and  C_5
REMARK    5  A    between atoms: C_5  and  C_6
REMARK    6  A    between atoms: C_6  and  C_7
REMARK    7  A    between atoms: C_7  and  C_8
REMARK    8  A    between atoms: C_8  and  O_10
REMARK    9  A    between atoms: C_8  and  C_11
REMARK   10  A    between atoms: C_11  and  C_12
REMARK   11  A    between atoms: C_12  and  S_14
REMARK   12  A    between atoms: S_14  and  C_15
REMARK   13  A    between atoms: C_15  and  C_16
REMARK   14  A    between atoms: C_16  and  N_17
REMARK   15  A    between atoms: C_18  and  C_20
REMARK   16  A    between atoms: C_20  and  C_21
REMARK   17  A    between atoms: C_21  and  N_22
REMARK   18  A    between atoms: C_23  and  C_25
REMARK   19  A    between atoms: C_25  and  O_27
REMARK   20  A    between atoms: C_25  and  C_28
REMARK   21  A    between atoms: C_28  and  C_29
REMARK   22  A    between atoms: C_28  and  C_30
REMARK   23  A    between atoms: C_28  and  C_31
REMARK   24  A    between atoms: C_31  and  O_32
REMARK   25  A    between atoms: O_32  and  P_33
REMARK   26  A    between atoms: P_33  and  O_34
REMARK   27  A    between atoms: P_33  and  O_36
REMARK   28  A    between atoms: O_36  and  P_37
REMARK   29  A    between atoms: P_37  and  O_38
REMARK   30  A    between atoms: P_37  and  O_40
REMARK   31  A    between atoms: O_40  and  C_41
REMARK   32  A    between atoms: C_41  and  C_42
REMARK   33  A    between atoms: C_45  and  N_57
REMARK   34  A    between atoms: C_47  and  O_49
REMARK   35  A    between atoms: C_50  and  O_52
REMARK   36  A    between atoms: O_52  and  P_53
REMARK   37  A    between atoms: P_53  and  O_54
REMARK   38  A    between atoms: P_53  and  O_55
REMARK                            x       y       z     vdW  Elec       q    Type
REMARK                         _______ _______ _______ _____ _____    ______ ____
ROOT
ATOM      1  P   UNL     1       7.238   0.280  27.331  0.00  0.00    +0.483 P 
ATOM      2  O   UNL     1       8.089   0.422  26.063  0.00  0.00    -0.227 OA
ENDROOT
BRANCH   1   3
ATOM      3  O   UNL     1       8.704  -0.001  28.206  0.00  0.00    -0.302 OA
ATOM      4  H   UNL     1       8.386  -0.198  29.110  0.00  0.00    +0.222 HD
ENDBRANCH   1   3
BRANCH   1   5
ATOM      5  O   UNL     1       5.773   0.561  26.455  0.00  0.00    -0.186 OA
BRANCH   5   6
ATOM      6  P   UNL     1       4.529  -0.474  27.065  0.00  0.00    +0.483 P 
ATOM      7  O   UNL     1       3.455   0.468  26.528  0.00  0.00    -0.227 OA
BRANCH   6   8
ATOM      8  O   UNL     1       4.923  -0.005  28.574  0.00  0.00    -0.302 OA
ATOM      9  H   UNL     1       5.801  -0.332  28.846  0.00  0.00    +0.222 HD
ENDBRANCH   6   8
BRANCH   6  10
ATOM     10  O   UNL     1       3.284  -1.509  27.676  0.00  0.00    -0.284 OA
BRANCH  10  11
ATOM     11  C   UNL     1       3.810  -2.585  28.523  0.00  0.00    +0.206 C 
BRANCH  11  12
ATOM     12  C   UNL     1       3.848  -4.007  27.967  0.00  0.00    +0.179 C 
ATOM     13  C   UNL     1       2.987  -4.993  28.768  0.00  0.00    +0.194 C 
ATOM     14  C   UNL     1       1.831  -5.300  27.822  0.00  0.00    +0.196 C 
ATOM     15  C   UNL     1       2.045  -4.384  26.601  0.00  0.00    +0.253 C 
ATOM     16  O   UNL     1       3.408  -3.967  26.617  0.00  0.00    -0.346 OA
BRANCH  15  17
ATOM     17  N   UNL     1       1.795  -5.027  25.332  0.00  0.00    -0.286 N 
ATOM     18  C   UNL     1       1.927  -6.366  25.095  0.00  0.00    +0.167 A 
ATOM     19  N   UNL     1       2.276  -7.318  25.976  0.00  0.00    -0.216 NA
ATOM     20  C   UNL     1       2.334  -8.520  25.359  0.00  0.00    +0.225 A 
ATOM     21  N   UNL     1       2.127  -8.808  24.055  0.00  0.00    -0.219 NA
ATOM     22  C   UNL     1       1.813  -7.797  23.212  0.00  0.00    +0.147 A 
ATOM     23  N   UNL     1       1.658  -8.076  21.863  0.00  0.00    -0.341 N 
ATOM     24  H   UNL     1       1.145  -7.369  21.348  0.00  0.00    +0.144 HD
ATOM     25  H   UNL     1       1.468  -9.049  21.672  0.00  0.00    +0.144 HD
ATOM     26  C   UNL     1       1.666  -6.509  23.743  0.00  0.00    +0.147 A 
ATOM     27  N   UNL     1       1.308  -5.303  23.178  0.00  0.00    -0.231 NA
ATOM     28  C   UNL     1       1.376  -4.438  24.167  0.00  0.00    +0.203 A 
ENDBRANCH  15  17
BRANCH  14  29
ATOM     29  O   UNL     1       0.587  -4.995  28.473  0.00  0.00    -0.385 OA
ATOM     30  H   UNL     1       0.778  -4.274  29.109  0.00  0.00    +0.210 HD
ENDBRANCH  14  29
BRANCH  13  31
ATOM     31  O   UNL     1       3.707  -6.208  29.141  0.00  0.00    -0.278 OA
BRANCH  31  32
ATOM     32  P   UNL     1       5.382  -6.088  28.723  0.00  0.00    +0.473 P 
ATOM     33  O   UNL     1       6.880  -5.980  28.350  0.00  0.00    -0.228 OA
BRANCH  32  34
ATOM     34  O   UNL     1       5.061  -7.272  27.645  0.00  0.00    -0.303 OA
ATOM     35  H   UNL     1       4.202  -7.651  27.910  0.00  0.00    +0.222 HD
ENDBRANCH  32  34
BRANCH  32  36
ATOM     36  O   UNL     1       5.647  -7.134  29.953  0.00  0.00    -0.303 OA
ATOM     37  H   UNL     1       6.514  -6.958  30.364  0.00  0.00    +0.222 HD
ENDBRANCH  32  36
ENDBRANCH  31  32
ENDBRANCH  13  31
ENDBRANCH  11  12
ENDBRANCH  10  11
ENDBRANCH   6  10
ENDBRANCH   5   6
ENDBRANCH   1   5
BRANCH   1  38
ATOM     38  O   UNL     1       7.145   1.810  27.997  0.00  0.00    -0.286 OA
BRANCH  38  39
ATOM     39  C   UNL     1       7.150   2.932  27.108  0.00  0.00    +0.181 C 
BRANCH  39  40
ATOM     40  C   UNL     1       6.420   4.163  27.636  0.00  0.00    +0.024 C 
ATOM     41  C   UNL     1       6.686   4.236  29.160  0.00  0.00    +0.016 C 
ATOM     42  C   UNL     1       7.047   5.421  27.002  0.00  0.00    +0.016 C 
BRANCH  40  43
ATOM     43  C   UNL     1       4.913   4.070  27.291  0.00  0.00    +0.208 C 
BRANCH  43  46
ATOM     44  N   UNL     1       4.870   2.971  25.067  0.00  0.00    -0.313 N 
ATOM     45  H   UNL     1       4.839   2.102  25.597  0.00  0.00    +0.149 HD
ATOM     46  C   UNL     1       4.654   4.142  25.763  0.00  0.00    +0.242 C 
ATOM     47  O   UNL     1       4.350   5.192  25.200  0.00  0.00    -0.273 OA
BRANCH  44  48
ATOM     48  C   UNL     1       4.575   2.871  23.642  0.00  0.00    +0.113 C 
BRANCH  48  49
ATOM     49  C   UNL     1       5.760   3.199  22.733  0.00  0.00    +0.114 C 
BRANCH  49  52
ATOM     50  N   UNL     1       7.642   2.143  21.611  0.00  0.00    -0.314 N 
ATOM     51  H   UNL     1       7.827   3.080  21.259  0.00  0.00    +0.149 HD
ATOM     52  C   UNL     1       6.643   1.984  22.552  0.00  0.00    +0.215 C 
ATOM     53  O   UNL     1       6.501   0.959  23.206  0.00  0.00    -0.276 OA
BRANCH  50  54
ATOM     54  C   UNL     1       8.666   1.130  21.406  0.00  0.00    +0.115 C 
BRANCH  54  55
ATOM     55  C   UNL     1       9.991   1.455  22.101  0.00  0.00    +0.096 C 
BRANCH  55  56
ATOM     56  S   UNL     1      10.273   0.385  23.551  0.00  0.00    -0.087 S 
BRANCH  56  57
ATOM     57  C   UNL     1       9.864  -1.183  22.843  0.00  0.00    +0.192 C 
ATOM     58  O   UNL     1      10.586  -1.730  22.014  0.00  0.00    -0.285 OA
BRANCH  57  59
ATOM     59  C   UNL     1       8.579  -1.778  23.380  0.00  0.00    +0.117 C 
BRANCH  59  60
ATOM     60  C   UNL     1       8.761  -3.232  23.828  0.00  0.00    +0.122 C 
BRANCH  60  61
ATOM     61  O   UNL     1      10.128  -3.446  24.196  0.00  0.00    -0.391 OA
ATOM     62  H   UNL     1      10.194  -3.270  25.157  0.00  0.00    +0.210 HD
ENDBRANCH  60  61
BRANCH  60  63
ATOM     63  C   UNL     1       7.916  -3.607  25.060  0.00  0.00    +0.032 C 
BRANCH  63  64
ATOM     64  C   UNL     1       7.561  -5.092  25.142  0.00  0.00    +0.003 C 
BRANCH  64  65
ATOM     65  C   UNL     1       6.100  -5.372  24.781  0.00  0.00    +0.000 C 
BRANCH  65  66
ATOM     66  C   UNL     1       5.448  -4.108  24.217  0.00  0.00    -0.000 C 
BRANCH  66  67
ATOM     67  C   UNL     1       4.934  -4.305  22.791  0.00  0.00    -0.000 C 
BRANCH  67  69
ATOM     68  C   UNL     1       6.389  -5.670  21.248  0.00  0.00    +0.004 C 
ATOM     69  C   UNL     1       5.274  -5.706  22.280  0.00  0.00    -0.003 C 
ENDBRANCH  67  69
ENDBRANCH  66  67
ENDBRANCH  65  66
ENDBRANCH  64  65
ENDBRANCH  63  64
ENDBRANCH  60  63
ENDBRANCH  59  60
ENDBRANCH  57  59
ENDBRANCH  56  57
ENDBRANCH  55  56
ENDBRANCH  54  55
ENDBRANCH  50  54
ENDBRANCH  49  52
ENDBRANCH  48  49
ENDBRANCH  44  48
ENDBRANCH  43  46
BRANCH  43  70
ATOM     70  O   UNL     1       4.388   2.848  27.809  0.00  0.00    -0.382 OA
ATOM     71  H   UNL     1       3.606   3.079  28.339  0.00  0.00    +0.210 HD
ENDBRANCH  43  70
ENDBRANCH  40  43
ENDBRANCH  39  40
ENDBRANCH  38  39
ENDBRANCH   1  38
TORSDOF 35
ENDMDL
MODEL 5
REMARK VINA RESULT:      -5.5      3.381      6.900
REMARK  Name = 
REMARK  38 active torsions:
REMARK  status: ('A' for Active; 'I' for Inactive)
REMARK    1  A    between atoms: C_1  and  C_2
REMARK    2  A    between atoms: C_2  and  C_3
REMARK    3  A    between atoms: C_3  and  C_4
REMARK    4  A    between atoms: C_4  and  C_5
REMARK    5  A    between atoms: C_5  and  C_6
REMARK    6  A    between atoms: C_6  and  C_7
REMARK    7  A    between atoms: C_7  and  C_8
REMARK    8  A    between atoms: C_8  and  O_10
REMARK    9  A    between atoms: C_8  and  C_11
REMARK   10  A    between atoms: C_11  and  C_12
REMARK   11  A    between atoms: C_12  and  S_14
REMARK   12  A    between atoms: S_14  and  C_15
REMARK   13  A    between atoms: C_15  and  C_16
REMARK   14  A    between atoms: C_16  and  N_17
REMARK   15  A    between atoms: C_18  and  C_20
REMARK   16  A    between atoms: C_20  and  C_21
REMARK   17  A    between atoms: C_21  and  N_22
REMARK   18  A    between atoms: C_23  and  C_25
REMARK   19  A    between atoms: C_25  and  O_27
REMARK   20  A    between atoms: C_25  and  C_28
REMARK   21  A    between atoms: C_28  and  C_29
REMARK   22  A    between atoms: C_28  and  C_30
REMARK   23  A    between atoms: C_28  and  C_31
REMARK   24  A    between atoms: C_31  and  O_32
REMARK   25  A    between atoms: O_32  and  P_33
REMARK   26  A    between atoms: P_33  and  O_34
REMARK   27  A    between atoms: P_33  and  O_36
REMARK   28  A    between atoms: O_36  and  P_37
REMARK   29  A    between atoms: P_37  and  O_38
REMARK   30  A    between atoms: P_37  and  O_40
REMARK   31  A    between atoms: O_40  and  C_41
REMARK   32  A    between atoms: C_41  and  C_42
REMARK   33  A    between atoms: C_45  and  N_57
REMARK   34  A    between atoms: C_47  and  O_49
REMARK   35  A    between atoms: C_50  and  O_52
REMARK   36  A    between atoms: O_52  and  P_53
REMARK   37  A    between atoms: P_53  and  O_54
REMARK   38  A    between atoms: P_53  and  O_55
REMARK                            x       y       z     vdW  Elec       q    Type
REMARK                         _______ _______ _______ _____ _____    ______ ____
ROOT
ATOM      1  P   UNL     1       8.760   1.178  24.612  0.00  0.00    +0.483 P 
ATOM      2  O   UNL     1       8.138   1.165  23.211  0.00  0.00    -0.227 OA
ENDROOT
BRANCH   1   3
ATOM      3  O   UNL     1      10.077   2.082  23.949  0.00  0.00    -0.302 OA
ATOM      4  H   UNL     1      10.456   1.466  23.290  0.00  0.00    +0.222 HD
ENDBRANCH   1   3
BRANCH   1   5
ATOM      5  O   UNL     1       7.442   0.275  25.276  0.00  0.00    -0.186 OA
BRANCH   5   6
ATOM      6  P   UNL     1       8.052  -1.131  26.077  0.00  0.00    +0.483 P 
ATOM      7  O   UNL     1       6.924  -1.060  27.102  0.00  0.00    -0.227 OA
BRANCH   6   8
ATOM      8  O   UNL     1       9.303  -0.241  26.619  0.00  0.00    -0.302 OA
ATOM      9  H   UNL     1       9.511  -0.425  27.554  0.00  0.00    +0.222 HD
ENDBRANCH   6   8
BRANCH   6  10
ATOM     10  O   UNL     1       8.662  -2.538  26.878  0.00  0.00    -0.284 OA
BRANCH  10  11
ATOM     11  C   UNL     1       8.884  -3.659  25.960  0.00  0.00    +0.206 C 
BRANCH  11  12
ATOM     12  C   UNL     1       7.938  -4.857  26.018  0.00  0.00    +0.179 C 
ATOM     13  C   UNL     1       7.070  -4.882  27.282  0.00  0.00    +0.194 C 
ATOM     14  C   UNL     1       5.673  -4.571  26.757  0.00  0.00    +0.196 C 
ATOM     15  C   UNL     1       5.855  -4.273  25.256  0.00  0.00    +0.253 C 
ATOM     16  O   UNL     1       7.110  -4.823  24.864  0.00  0.00    -0.346 OA
BRANCH  15  17
ATOM     17  N   UNL     1       4.836  -4.853  24.412  0.00  0.00    -0.286 N 
ATOM     18  C   UNL     1       4.149  -6.000  24.694  0.00  0.00    +0.167 A 
ATOM     19  N   UNL     1       4.264  -6.771  25.787  0.00  0.00    -0.216 NA
ATOM     20  C   UNL     1       3.444  -7.841  25.687  0.00  0.00    +0.225 A 
ATOM     21  N   UNL     1       2.628  -8.185  24.666  0.00  0.00    -0.219 NA
ATOM     22  C   UNL     1       2.584  -7.383  23.577  0.00  0.00    +0.147 A 
ATOM     23  N   UNL     1       1.794  -7.760  22.501  0.00  0.00    -0.341 N 
ATOM     24  H   UNL     1       1.570  -7.004  21.865  0.00  0.00    +0.144 HD
ATOM     25  H   UNL     1       1.071  -8.420  22.745  0.00  0.00    +0.144 HD
ATOM     26  C   UNL     1       3.348  -6.208  23.583  0.00  0.00    +0.147 A 
ATOM     27  N   UNL     1       3.480  -5.178  22.677  0.00  0.00    -0.231 NA
ATOM     28  C   UNL     1       4.367  -4.370  23.218  0.00  0.00    +0.203 A 
ENDBRANCH  15  17
BRANCH  14  29
ATOM     29  O   UNL     1       5.150  -3.422  27.443  0.00  0.00    -0.385 OA
ATOM     30  H   UNL     1       5.198  -2.676  26.808  0.00  0.00    +0.210 HD
ENDBRANCH  14  29
BRANCH  13  31
ATOM     31  O   UNL     1       7.105  -6.169  27.974  0.00  0.00    -0.278 OA
BRANCH  31  32
ATOM     32  P   UNL     1       5.897  -6.239  29.212  0.00  0.00    +0.473 P 
ATOM     33  O   UNL     1       4.817  -6.302  30.318  0.00  0.00    -0.228 OA
BRANCH  32  34
ATOM     34  O   UNL     1       6.968  -7.172  30.018  0.00  0.00    -0.303 OA
ATOM     35  H   UNL     1       6.578  -8.067  30.046  0.00  0.00    +0.222 HD
ENDBRANCH  32  34
BRANCH  32  36
ATOM     36  O   UNL     1       5.273  -7.497  28.372  0.00  0.00    -0.303 OA
ATOM     37  H   UNL     1       4.460  -7.222  27.909  0.00  0.00    +0.222 HD
ENDBRANCH  32  36
ENDBRANCH  31  32
ENDBRANCH  13  31
ENDBRANCH  11  12
ENDBRANCH  10  11
ENDBRANCH   6  10
ENDBRANCH   5   6
ENDBRANCH   1   5
BRANCH   1  38
ATOM     38  O   UNL     1       8.194   2.566  25.354  0.00  0.00    -0.286 OA
BRANCH  38  39
ATOM     39  C   UNL     1       6.843   2.573  25.826  0.00  0.00    +0.181 C 
BRANCH  39  40
ATOM     40  C   UNL     1       6.576   3.545  26.971  0.00  0.00    +0.024 C 
ATOM     41  C   UNL     1       7.544   4.741  26.793  0.00  0.00    +0.016 C 
ATOM     42  C   UNL     1       5.141   4.094  26.831  0.00  0.00    +0.016 C 
BRANCH  40  43
ATOM     43  C   UNL     1       6.755   2.822  28.329  0.00  0.00    +0.208 C 
BRANCH  43  46
ATOM     44  N   UNL     1       4.936   1.143  28.491  0.00  0.00    -0.313 N 
ATOM     45  H   UNL     1       5.619   0.496  28.102  0.00  0.00    +0.149 HD
ATOM     46  C   UNL     1       5.402   2.363  28.933  0.00  0.00    +0.242 C 
ATOM     47  O   UNL     1       4.753   3.074  29.698  0.00  0.00    -0.273 OA
BRANCH  44  48
ATOM     48  C   UNL     1       3.726   0.547  29.047  0.00  0.00    +0.113 C 
BRANCH  48  49
ATOM     49  C   UNL     1       2.653   0.223  28.006  0.00  0.00    +0.114 C 
BRANCH  49  52
ATOM     50  N   UNL     1       1.706   2.189  26.931  0.00  0.00    -0.314 N 
ATOM     51  H   UNL     1       1.164   2.271  27.789  0.00  0.00    +0.149 HD
ATOM     52  C   UNL     1       2.694   1.224  26.872  0.00  0.00    +0.215 C 
ATOM     53  O   UNL     1       3.547   1.198  25.996  0.00  0.00    -0.276 OA
BRANCH  50  54
ATOM     54  C   UNL     1       1.677   3.309  26.004  0.00  0.00    +0.115 C 
BRANCH  54  55
ATOM     55  C   UNL     1       0.917   3.007  24.710  0.00  0.00    +0.096 C 
BRANCH  55  56
ATOM     56  S   UNL     1       0.700   4.503  23.689  0.00  0.00    -0.087 S 
BRANCH  56  57
ATOM     57  C   UNL     1       2.386   5.022  23.568  0.00  0.00    +0.192 C 
ATOM     58  O   UNL     1       2.834   5.939  24.250  0.00  0.00    -0.285 OA
BRANCH  57  59
ATOM     59  C   UNL     1       3.204   4.213  22.584  0.00  0.00    +0.117 C 
BRANCH  59  60
ATOM     60  C   UNL     1       4.471   3.637  23.225  0.00  0.00    +0.122 C 
BRANCH  60  61
ATOM     61  O   UNL     1       4.235   2.276  23.600  0.00  0.00    -0.391 OA
ATOM     62  H   UNL     1       5.090   1.807  23.522  0.00  0.00    +0.210 HD
ENDBRANCH  60  61
BRANCH  60  63
ATOM     63  C   UNL     1       5.688   3.621  22.279  0.00  0.00    +0.032 C 
BRANCH  63  64
ATOM     64  C   UNL     1       6.862   4.472  22.762  0.00  0.00    +0.003 C 
BRANCH  64  65
ATOM     65  C   UNL     1       6.496   5.951  22.919  0.00  0.00    +0.000 C 
BRANCH  65  66
ATOM     66  C   UNL     1       7.606   6.688  23.672  0.00  0.00    -0.000 C 
BRANCH  66  67
ATOM     67  C   UNL     1       8.993   6.388  23.103  0.00  0.00    -0.000 C 
BRANCH  67  69
ATOM     68  C   UNL     1       9.917   7.108  25.337  0.00  0.00    +0.004 C 
ATOM     69  C   UNL     1       9.985   6.074  24.225  0.00  0.00    -0.003 C 
ENDBRANCH  67  69
ENDBRANCH  66  67
ENDBRANCH  65  66
ENDBRANCH  64  65
ENDBRANCH  63  64
ENDBRANCH  60  63
ENDBRANCH  59  60
ENDBRANCH  57  59
ENDBRANCH  56  57
ENDBRANCH  55  56
ENDBRANCH  54  55
ENDBRANCH  50  54
ENDBRANCH  49  52
ENDBRANCH  48  49
ENDBRANCH  44  48
ENDBRANCH  43  46
BRANCH  43  70
ATOM     70  O   UNL     1       7.608   1.691  28.149  0.00  0.00    -0.382 OA
ATOM     71  H   UNL     1       7.715   1.277  29.022  0.00  0.00    +0.210 HD
ENDBRANCH  43  70
ENDBRANCH  40  43
ENDBRANCH  39  40
ENDBRANCH  38  39
ENDBRANCH   1  38
TORSDOF 35
ENDMDL
MODEL 6
REMARK VINA RESULT:      -5.4      3.199      7.476
REMARK  Name = 
REMARK  38 active torsions:
REMARK  status: ('A' for Active; 'I' for Inactive)
REMARK    1  A    between atoms: C_1  and  C_2
REMARK    2  A    between atoms: C_2  and  C_3
REMARK    3  A    between atoms: C_3  and  C_4
REMARK    4  A    between atoms: C_4  and  C_5
REMARK    5  A    between atoms: C_5  and  C_6
REMARK    6  A    between atoms: C_6  and  C_7
REMARK    7  A    between atoms: C_7  and  C_8
REMARK    8  A    between atoms: C_8  and  O_10
REMARK    9  A    between atoms: C_8  and  C_11
REMARK   10  A    between atoms: C_11  and  C_12
REMARK   11  A    between atoms: C_12  and  S_14
REMARK   12  A    between atoms: S_14  and  C_15
REMARK   13  A    between atoms: C_15  and  C_16
REMARK   14  A    between atoms: C_16  and  N_17
REMARK   15  A    between atoms: C_18  and  C_20
REMARK   16  A    between atoms: C_20  and  C_21
REMARK   17  A    between atoms: C_21  and  N_22
REMARK   18  A    between atoms: C_23  and  C_25
REMARK   19  A    between atoms: C_25  and  O_27
REMARK   20  A    between atoms: C_25  and  C_28
REMARK   21  A    between atoms: C_28  and  C_29
REMARK   22  A    between atoms: C_28  and  C_30
REMARK   23  A    between atoms: C_28  and  C_31
REMARK   24  A    between atoms: C_31  and  O_32
REMARK   25  A    between atoms: O_32  and  P_33
REMARK   26  A    between atoms: P_33  and  O_34
REMARK   27  A    between atoms: P_33  and  O_36
REMARK   28  A    between atoms: O_36  and  P_37
REMARK   29  A    between atoms: P_37  and  O_38
REMARK   30  A    between atoms: P_37  and  O_40
REMARK   31  A    between atoms: O_40  and  C_41
REMARK   32  A    between atoms: C_41  and  C_42
REMARK   33  A    between atoms: C_45  and  N_57
REMARK   34  A    between atoms: C_47  and  O_49
REMARK   35  A    between atoms: C_50  and  O_52
REMARK   36  A    between atoms: O_52  and  P_53
REMARK   37  A    between atoms: P_53  and  O_54
REMARK   38  A    between atoms: P_53  and  O_55
REMARK                            x       y       z     vdW  Elec       q    Type
REMARK                         _______ _______ _______ _____ _____    ______ ____
ROOT
ATOM      1  P   UNL     1       6.262   0.796  27.558  0.00  0.00    +0.483 P 
ATOM      2  O   UNL     1       6.703   0.963  26.100  0.00  0.00    -0.227 OA
ENDROOT
BRANCH   1   3
ATOM      3  O   UNL     1       7.855   0.214  27.905  0.00  0.00    -0.302 OA
ATOM      4  H   UNL     1       7.733  -0.270  28.746  0.00  0.00    +0.222 HD
ENDBRANCH   1   3
BRANCH   1   5
ATOM      5  O   UNL     1       4.671   1.377  27.211  0.00  0.00    -0.186 OA
BRANCH   5   6
ATOM      6  P   UNL     1       3.502   0.332  27.942  0.00  0.00    +0.483 P 
ATOM      7  O   UNL     1       2.498   1.478  28.022  0.00  0.00    -0.227 OA
BRANCH   6   8
ATOM      8  O   UNL     1       4.400   0.331  29.301  0.00  0.00    -0.302 OA
ATOM      9  H   UNL     1       3.887   0.050  30.082  0.00  0.00    +0.222 HD
ENDBRANCH   6   8
BRANCH   6  10
ATOM     10  O   UNL     1       2.334  -0.714  28.673  0.00  0.00    -0.284 OA
BRANCH  10  11
ATOM     11  C   UNL     1       2.942  -1.697  29.575  0.00  0.00    +0.206 C 
BRANCH  11  12
ATOM     12  C   UNL     1       3.122  -3.133  29.086  0.00  0.00    +0.179 C 
ATOM     13  C   UNL     1       2.401  -3.417  27.762  0.00  0.00    +0.194 C 
ATOM     14  C   UNL     1       3.543  -3.574  26.765  0.00  0.00    +0.196 C 
ATOM     15  C   UNL     1       4.826  -3.254  27.557  0.00  0.00    +0.253 C 
ATOM     16  O   UNL     1       4.513  -3.381  28.941  0.00  0.00    -0.346 OA
BRANCH  15  17
ATOM     17  N   UNL     1       5.931  -4.140  27.271  0.00  0.00    -0.286 N 
ATOM     18  C   UNL     1       7.114  -3.756  26.709  0.00  0.00    +0.167 A 
ATOM     19  N   UNL     1       7.482  -2.515  26.350  0.00  0.00    -0.216 NA
ATOM     20  C   UNL     1       8.714  -2.540  25.795  0.00  0.00    +0.225 A 
ATOM     21  N   UNL     1       9.512  -3.605  25.560  0.00  0.00    -0.219 NA
ATOM     22  C   UNL     1       9.068  -4.834  25.913  0.00  0.00    +0.147 A 
ATOM     23  N   UNL     1       9.855  -5.937  25.622  0.00  0.00    -0.341 N 
ATOM     24  H   UNL     1       9.625  -6.766  26.159  0.00  0.00    +0.144 HD
ATOM     25  H   UNL     1      10.827  -5.711  25.472  0.00  0.00    +0.144 HD
ATOM     26  C   UNL     1       7.825  -4.934  26.553  0.00  0.00    +0.147 A 
ATOM     27  N   UNL     1       7.130  -6.005  27.075  0.00  0.00    -0.231 NA
ATOM     28  C   UNL     1       6.004  -5.487  27.517  0.00  0.00    +0.203 A 
ENDBRANCH  15  17
BRANCH  14  29
ATOM     29  O   UNL     1       3.367  -2.642  25.686  0.00  0.00    -0.385 OA
ATOM     30  H   UNL     1       2.665  -3.013  25.112  0.00  0.00    +0.210 HD
ENDBRANCH  14  29
BRANCH  13  31
ATOM     31  O   UNL     1       1.567  -4.615  27.811  0.00  0.00    -0.278 OA
BRANCH  31  32
ATOM     32  P   UNL     1       2.258  -5.889  26.865  0.00  0.00    +0.473 P 
ATOM     33  O   UNL     1       2.877  -7.028  26.020  0.00  0.00    -0.228 OA
BRANCH  32  34
ATOM     34  O   UNL     1       0.743  -6.498  26.819  0.00  0.00    -0.303 OA
ATOM     35  H   UNL     1       0.758  -7.298  27.378  0.00  0.00    +0.222 HD
ENDBRANCH  32  34
BRANCH  32  36
ATOM     36  O   UNL     1       2.615  -6.602  28.294  0.00  0.00    -0.303 OA
ATOM     37  H   UNL     1       1.843  -7.096  28.626  0.00  0.00    +0.222 HD
ENDBRANCH  32  36
ENDBRANCH  31  32
ENDBRANCH  13  31
ENDBRANCH  11  12
ENDBRANCH  10  11
ENDBRANCH   6  10
ENDBRANCH   5   6
ENDBRANCH   1   5
BRANCH   1  38
ATOM     38  O   UNL     1       6.633   2.237  28.320  0.00  0.00    -0.286 OA
BRANCH  38  39
ATOM     39  C   UNL     1       6.377   3.455  27.614  0.00  0.00    +0.181 C 
BRANCH  39  40
ATOM     40  C   UNL     1       6.065   4.653  28.506  0.00  0.00    +0.024 C 
ATOM     41  C   UNL     1       6.996   4.560  29.740  0.00  0.00    +0.016 C 
ATOM     42  C   UNL     1       6.435   5.945  27.750  0.00  0.00    +0.016 C 
BRANCH  40  43
ATOM     43  C   UNL     1       4.563   4.650  28.883  0.00  0.00    +0.208 C 
BRANCH  43  46
ATOM     44  N   UNL     1       3.458   3.963  26.771  0.00  0.00    -0.313 N 
ATOM     45  H   UNL     1       3.611   3.013  27.105  0.00  0.00    +0.149 HD
ATOM     46  C   UNL     1       3.652   4.988  27.673  0.00  0.00    +0.242 C 
ATOM     47  O   UNL     1       3.197   6.115  27.491  0.00  0.00    -0.273 OA
BRANCH  44  48
ATOM     48  C   UNL     1       2.550   4.112  25.639  0.00  0.00    +0.113 C 
BRANCH  48  49
ATOM     49  C   UNL     1       3.218   4.632  24.365  0.00  0.00    +0.114 C 
BRANCH  49  52
ATOM     50  N   UNL     1       5.330   4.269  23.214  0.00  0.00    -0.314 N 
ATOM     51  H   UNL     1       5.401   5.284  23.238  0.00  0.00    +0.149 HD
ATOM     52  C   UNL     1       4.287   3.670  23.896  0.00  0.00    +0.215 C 
ATOM     53  O   UNL     1       4.246   2.469  24.127  0.00  0.00    -0.276 OA
BRANCH  50  54
ATOM     54  C   UNL     1       6.509   3.518  22.812  0.00  0.00    +0.115 C 
BRANCH  54  55
ATOM     55  C   UNL     1       7.823   4.251  23.099  0.00  0.00    +0.096 C 
BRANCH  55  56
ATOM     56  S   UNL     1       8.672   3.566  24.561  0.00  0.00    -0.087 S 
BRANCH  56  57
ATOM     57  C   UNL     1       9.979   2.688  23.756  0.00  0.00    +0.192 C 
ATOM     58  O   UNL     1      11.021   3.242  23.417  0.00  0.00    -0.285 OA
BRANCH  57  59
ATOM     59  C   UNL     1       9.697   1.212  23.568  0.00  0.00    +0.117 C 
BRANCH  59  60
ATOM     60  C   UNL     1       9.147   0.905  22.171  0.00  0.00    +0.122 C 
BRANCH  60  61
ATOM     61  O   UNL     1       9.501   1.967  21.279  0.00  0.00    -0.391 OA
ATOM     62  H   UNL     1       9.410   1.617  20.370  0.00  0.00    +0.210 HD
ENDBRANCH  60  61
BRANCH  60  63
ATOM     63  C   UNL     1       9.716  -0.387  21.555  0.00  0.00    +0.032 C 
BRANCH  63  64
ATOM     64  C   UNL     1       9.241  -1.667  22.244  0.00  0.00    +0.003 C 
BRANCH  64  65
ATOM     65  C   UNL     1       7.723  -1.702  22.443  0.00  0.00    +0.000 C 
BRANCH  65  66
ATOM     66  C   UNL     1       7.258  -3.142  22.676  0.00  0.00    -0.000 C 
BRANCH  66  67
ATOM     67  C   UNL     1       6.120  -3.544  21.739  0.00  0.00    -0.000 C 
BRANCH  67  69
ATOM     68  C   UNL     1       6.950  -5.916  21.526  0.00  0.00    +0.004 C 
ATOM     69  C   UNL     1       5.778  -5.026  21.904  0.00  0.00    -0.003 C 
ENDBRANCH  67  69
ENDBRANCH  66  67
ENDBRANCH  65  66
ENDBRANCH  64  65
ENDBRANCH  63  64
ENDBRANCH  60  63
ENDBRANCH  59  60
ENDBRANCH  57  59
ENDBRANCH  56  57
ENDBRANCH  55  56
ENDBRANCH  54  55
ENDBRANCH  50  54
ENDBRANCH  49  52
ENDBRANCH  48  49
ENDBRANCH  44  48
ENDBRANCH  43  46
BRANCH  43  70
ATOM     70  O   UNL     1       4.212   3.368  29.405  0.00  0.00    -0.382 OA
ATOM     71  H   UNL     1       4.019   2.797  28.641  0.00  0.00    +0.210 HD
ENDBRANCH  43  70
ENDBRANCH  40  43
ENDBRANCH  39  40
ENDBRANCH  38  39
ENDBRANCH   1  38
TORSDOF 35
ENDMDL
MODEL 7
REMARK VINA RESULT:      -5.3      3.762      7.971
REMARK  Name = 
REMARK  38 active torsions:
REMARK  status: ('A' for Active; 'I' for Inactive)
REMARK    1  A    between atoms: C_1  and  C_2
REMARK    2  A    between atoms: C_2  and  C_3
REMARK    3  A    between atoms: C_3  and  C_4
REMARK    4  A    between atoms: C_4  and  C_5
REMARK    5  A    between atoms: C_5  and  C_6
REMARK    6  A    between atoms: C_6  and  C_7
REMARK    7  A    between atoms: C_7  and  C_8
REMARK    8  A    between atoms: C_8  and  O_10
REMARK    9  A    between atoms: C_8  and  C_11
REMARK   10  A    between atoms: C_11  and  C_12
REMARK   11  A    between atoms: C_12  and  S_14
REMARK   12  A    between atoms: S_14  and  C_15
REMARK   13  A    between atoms: C_15  and  C_16
REMARK   14  A    between atoms: C_16  and  N_17
REMARK   15  A    between atoms: C_18  and  C_20
REMARK   16  A    between atoms: C_20  and  C_21
REMARK   17  A    between atoms: C_21  and  N_22
REMARK   18  A    between atoms: C_23  and  C_25
REMARK   19  A    between atoms: C_25  and  O_27
REMARK   20  A    between atoms: C_25  and  C_28
REMARK   21  A    between atoms: C_28  and  C_29
REMARK   22  A    between atoms: C_28  and  C_30
REMARK   23  A    between atoms: C_28  and  C_31
REMARK   24  A    between atoms: C_31  and  O_32
REMARK   25  A    between atoms: O_32  and  P_33
REMARK   26  A    between atoms: P_33  and  O_34
REMARK   27  A    between atoms: P_33  and  O_36
REMARK   28  A    between atoms: O_36  and  P_37
REMARK   29  A    between atoms: P_37  and  O_38
REMARK   30  A    between atoms: P_37  and  O_40
REMARK   31  A    between atoms: O_40  and  C_41
REMARK   32  A    between atoms: C_41  and  C_42
REMARK   33  A    between atoms: C_45  and  N_57
REMARK   34  A    between atoms: C_47  and  O_49
REMARK   35  A    between atoms: C_50  and  O_52
REMARK   36  A    between atoms: O_52  and  P_53
REMARK   37  A    between atoms: P_53  and  O_54
REMARK   38  A    between atoms: P_53  and  O_55
REMARK                            x       y       z     vdW  Elec       q    Type
REMARK                         _______ _______ _______ _____ _____    ______ ____
ROOT
ATOM      1  P   UNL     1      10.346   2.694  23.527  0.00  0.00    +0.483 P 
ATOM      2  O   UNL     1      10.553   1.637  22.436  0.00  0.00    -0.227 OA
ENDROOT
BRANCH   1   3
ATOM      3  O   UNL     1      11.368   3.747  22.610  0.00  0.00    -0.302 OA
ATOM      4  H   UNL     1      12.098   3.940  23.232  0.00  0.00    +0.222 HD
ENDBRANCH   1   3
BRANCH   1   5
ATOM      5  O   UNL     1       9.324   1.640  24.442  0.00  0.00    -0.186 OA
BRANCH   5   6
ATOM      6  P   UNL     1       9.215   0.108  23.647  0.00  0.00    +0.483 P 
ATOM      7  O   UNL     1       7.738  -0.001  24.017  0.00  0.00    -0.227 OA
BRANCH   6   8
ATOM      8  O   UNL     1      10.101  -0.543  24.848  0.00  0.00    -0.302 OA
ATOM      9  H   UNL     1      10.272   0.092  25.568  0.00  0.00    +0.222 HD
ENDBRANCH   6   8
BRANCH   6  10
ATOM     10  O   UNL     1       9.106  -1.425  22.851  0.00  0.00    -0.284 OA
BRANCH  10  11
ATOM     11  C   UNL     1       9.064  -2.548  23.793  0.00  0.00    +0.206 C 
BRANCH  11  12
ATOM     12  C   UNL     1       7.817  -3.430  23.831  0.00  0.00    +0.179 C 
ATOM     13  C   UNL     1       8.138  -4.931  23.836  0.00  0.00    +0.194 C 
ATOM     14  C   UNL     1       7.755  -5.369  25.244  0.00  0.00    +0.196 C 
ATOM     15  C   UNL     1       7.356  -4.076  25.983  0.00  0.00    +0.253 C 
ATOM     16  O   UNL     1       7.071  -3.092  24.992  0.00  0.00    -0.346 OA
BRANCH  15  17
ATOM     17  N   UNL     1       6.186  -4.212  26.819  0.00  0.00    -0.286 N 
ATOM     18  C   UNL     1       6.050  -5.121  27.829  0.00  0.00    +0.167 A 
ATOM     19  N   UNL     1       6.958  -6.017  28.247  0.00  0.00    -0.216 NA
ATOM     20  C   UNL     1       6.443  -6.767  29.247  0.00  0.00    +0.225 A 
ATOM     21  N   UNL     1       5.203  -6.720  29.783  0.00  0.00    -0.219 NA
ATOM     22  C   UNL     1       4.323  -5.817  29.292  0.00  0.00    +0.147 A 
ATOM     23  N   UNL     1       3.031  -5.803  29.796  0.00  0.00    -0.341 N 
ATOM     24  H   UNL     1       2.525  -4.943  29.618  0.00  0.00    +0.144 HD
ATOM     25  H   UNL     1       2.948  -6.236  30.704  0.00  0.00    +0.144 HD
ATOM     26  C   UNL     1       4.756  -4.940  28.289  0.00  0.00    +0.147 A 
ATOM     27  N   UNL     1       4.139  -3.896  27.633  0.00  0.00    -0.231 NA
ATOM     28  C   UNL     1       5.035  -3.468  26.770  0.00  0.00    +0.203 A 
ENDBRANCH  15  17
BRANCH  14  29
ATOM     29  O   UNL     1       8.887  -5.986  25.877  0.00  0.00    -0.385 OA
ATOM     30  H   UNL     1       9.459  -5.255  26.194  0.00  0.00    +0.210 HD
ENDBRANCH  14  29
BRANCH  13  31
ATOM     31  O   UNL     1       7.393  -5.677  22.824  0.00  0.00    -0.278 OA
BRANCH  31  32
ATOM     32  P   UNL     1       5.763  -5.107  22.710  0.00  0.00    +0.473 P 
ATOM     33  O   UNL     1       4.305  -4.598  22.608  0.00  0.00    -0.228 OA
BRANCH  32  34
ATOM     34  O   UNL     1       5.346  -6.684  22.801  0.00  0.00    -0.303 OA
ATOM     35  H   UNL     1       6.090  -7.134  23.245  0.00  0.00    +0.222 HD
ENDBRANCH  32  34
BRANCH  32  36
ATOM     36  O   UNL     1       5.982  -5.149  21.089  0.00  0.00    -0.303 OA
ATOM     37  H   UNL     1       5.740  -6.026  20.739  0.00  0.00    +0.222 HD
ENDBRANCH  32  36
ENDBRANCH  31  32
ENDBRANCH  13  31
ENDBRANCH  11  12
ENDBRANCH  10  11
ENDBRANCH   6  10
ENDBRANCH   5   6
ENDBRANCH   1   5
BRANCH   1  38
ATOM     38  O   UNL     1       9.015   3.590  23.055  0.00  0.00    -0.286 OA
BRANCH  38  39
ATOM     39  C   UNL     1       8.819   4.870  23.662  0.00  0.00    +0.181 C 
BRANCH  39  40
ATOM     40  C   UNL     1       7.493   5.024  24.402  0.00  0.00    +0.024 C 
ATOM     41  C   UNL     1       7.825   5.214  25.903  0.00  0.00    +0.016 C 
ATOM     42  C   UNL     1       6.803   6.316  23.920  0.00  0.00    +0.016 C 
BRANCH  40  43
ATOM     43  C   UNL     1       6.595   3.792  24.135  0.00  0.00    +0.208 C 
BRANCH  43  46
ATOM     44  N   UNL     1       6.956   2.168  25.975  0.00  0.00    -0.313 N 
ATOM     45  H   UNL     1       7.936   2.210  25.700  0.00  0.00    +0.149 HD
ATOM     46  C   UNL     1       6.111   3.121  25.448  0.00  0.00    +0.242 C 
ATOM     47  O   UNL     1       5.013   3.368  25.942  0.00  0.00    -0.273 OA
BRANCH  44  48
ATOM     48  C   UNL     1       6.671   1.527  27.254  0.00  0.00    +0.113 C 
BRANCH  48  49
ATOM     49  C   UNL     1       6.065   0.127  27.131  0.00  0.00    +0.114 C 
BRANCH  49  52
ATOM     50  N   UNL     1       3.728   0.801  27.112  0.00  0.00    -0.314 N 
ATOM     51  H   UNL     1       3.939   1.140  26.175  0.00  0.00    +0.149 HD
ATOM     52  C   UNL     1       4.700   0.081  27.781  0.00  0.00    +0.215 C 
ATOM     53  O   UNL     1       4.470  -0.565  28.795  0.00  0.00    -0.276 OA
BRANCH  50  54
ATOM     54  C   UNL     1       2.332   0.756  27.516  0.00  0.00    +0.115 C 
BRANCH  54  55
ATOM     55  C   UNL     1       1.858   2.035  28.211  0.00  0.00    +0.096 C 
BRANCH  55  56
ATOM     56  S   UNL     1       0.444   2.791  27.342  0.00  0.00    -0.087 S 
BRANCH  56  57
ATOM     57  C   UNL     1       1.310   3.647  26.060  0.00  0.00    +0.192 C 
ATOM     58  O   UNL     1       2.069   4.582  26.300  0.00  0.00    -0.285 OA
BRANCH  57  59
ATOM     59  C   UNL     1       1.049   3.096  24.674  0.00  0.00    +0.117 C 
BRANCH  59  60
ATOM     60  C   UNL     1       2.083   3.587  23.655  0.00  0.00    +0.122 C 
BRANCH  60  61
ATOM     61  O   UNL     1       3.119   2.608  23.524  0.00  0.00    -0.391 OA
ATOM     62  H   UNL     1       3.404   2.620  22.587  0.00  0.00    +0.210 HD
ENDBRANCH  60  61
BRANCH  60  63
ATOM     63  C   UNL     1       1.503   3.797  22.243  0.00  0.00    +0.032 C 
BRANCH  63  64
ATOM     64  C   UNL     1       1.191   2.499  21.498  0.00  0.00    +0.003 C 
BRANCH  64  65
ATOM     65  C   UNL     1       1.417   2.615  19.988  0.00  0.00    +0.000 C 
BRANCH  65  66
ATOM     66  C   UNL     1       1.847   4.039  19.630  0.00  0.00    -0.000 C 
BRANCH  66  67
ATOM     67  C   UNL     1       0.818   4.754  18.754  0.00  0.00    -0.000 C 
BRANCH  67  69
ATOM     68  C   UNL     1       1.930   6.276  17.078  0.00  0.00    +0.004 C 
ATOM     69  C   UNL     1       1.333   4.900  17.320  0.00  0.00    -0.003 C 
ENDBRANCH  67  69
ENDBRANCH  66  67
ENDBRANCH  65  66
ENDBRANCH  64  65
ENDBRANCH  63  64
ENDBRANCH  60  63
ENDBRANCH  59  60
ENDBRANCH  57  59
ENDBRANCH  56  57
ENDBRANCH  55  56
ENDBRANCH  54  55
ENDBRANCH  50  54
ENDBRANCH  49  52
ENDBRANCH  48  49
ENDBRANCH  44  48
ENDBRANCH  43  46
BRANCH  43  70
ATOM     70  O   UNL     1       5.467   4.193  23.357  0.00  0.00    -0.382 OA
ATOM     71  H   UNL     1       5.663   3.957  22.433  0.00  0.00    +0.210 HD
ENDBRANCH  43  70
ENDBRANCH  40  43
ENDBRANCH  39  40
ENDBRANCH  38  39
ENDBRANCH   1  38
TORSDOF 35
ENDMDL
MODEL 8
REMARK VINA RESULT:      -5.3      2.829      7.916
REMARK  Name = 
REMARK  38 active torsions:
REMARK  status: ('A' for Active; 'I' for Inactive)
REMARK    1  A    between atoms: C_1  and  C_2
REMARK    2  A    between atoms: C_2  and  C_3
REMARK    3  A    between atoms: C_3  and  C_4
REMARK    4  A    between atoms: C_4  and  C_5
REMARK    5  A    between atoms: C_5  and  C_6
REMARK    6  A    between atoms: C_6  and  C_7
REMARK    7  A    between atoms: C_7  and  C_8
REMARK    8  A    between atoms: C_8  and  O_10
REMARK    9  A    between atoms: C_8  and  C_11
REMARK   10  A    between atoms: C_11  and  C_12
REMARK   11  A    between atoms: C_12  and  S_14
REMARK   12  A    between atoms: S_14  and  C_15
REMARK   13  A    between atoms: C_15  and  C_16
REMARK   14  A    between atoms: C_16  and  N_17
REMARK   15  A    between atoms: C_18  and  C_20
REMARK   16  A    between atoms: C_20  and  C_21
REMARK   17  A    between atoms: C_21  and  N_22
REMARK   18  A    between atoms: C_23  and  C_25
REMARK   19  A    between atoms: C_25  and  O_27
REMARK   20  A    between atoms: C_25  and  C_28
REMARK   21  A    between atoms: C_28  and  C_29
REMARK   22  A    between atoms: C_28  and  C_30
REMARK   23  A    between atoms: C_28  and  C_31
REMARK   24  A    between atoms: C_31  and  O_32
REMARK   25  A    between atoms: O_32  and  P_33
REMARK   26  A    between atoms: P_33  and  O_34
REMARK   27  A    between atoms: P_33  and  O_36
REMARK   28  A    between atoms: O_36  and  P_37
REMARK   29  A    between atoms: P_37  and  O_38
REMARK   30  A    between atoms: P_37  and  O_40
REMARK   31  A    between atoms: O_40  and  C_41
REMARK   32  A    between atoms: C_41  and  C_42
REMARK   33  A    between atoms: C_45  and  N_57
REMARK   34  A    between atoms: C_47  and  O_49
REMARK   35  A    between atoms: C_50  and  O_52
REMARK   36  A    between atoms: O_52  and  P_53
REMARK   37  A    between atoms: P_53  and  O_54
REMARK   38  A    between atoms: P_53  and  O_55
REMARK                            x       y       z     vdW  Elec       q    Type
REMARK                         _______ _______ _______ _____ _____    ______ ____
ROOT
ATOM      1  P   UNL     1       8.259  -3.577  23.398  0.00  0.00    +0.483 P 
ATOM      2  O   UNL     1       6.998  -4.225  23.981  0.00  0.00    -0.227 OA
ENDROOT
BRANCH   1   3
ATOM      3  O   UNL     1       7.301  -3.082  22.044  0.00  0.00    -0.302 OA
ATOM      4  H   UNL     1       7.063  -2.160  22.269  0.00  0.00    +0.222 HD
ENDBRANCH   1   3
BRANCH   1   5
ATOM      5  O   UNL     1       9.216  -4.071  24.751  0.00  0.00    -0.186 OA
BRANCH   5   6
ATOM      6  P   UNL     1       8.192  -4.309  26.125  0.00  0.00    +0.483 P 
ATOM      7  O   UNL     1       9.165  -3.534  27.009  0.00  0.00    -0.227 OA
BRANCH   6   8
ATOM      8  O   UNL     1       8.621  -5.880  26.132  0.00  0.00    -0.302 OA
ATOM      9  H   UNL     1       7.959  -6.447  25.694  0.00  0.00    +0.222 HD
ENDBRANCH   6   8
BRANCH   6  10
ATOM     10  O   UNL     1       7.168  -4.548  27.499  0.00  0.00    -0.284 OA
BRANCH  10  11
ATOM     11  C   UNL     1       6.833  -5.959  27.715  0.00  0.00    +0.206 C 
BRANCH  11  12
ATOM     12  C   UNL     1       5.384  -6.408  27.534  0.00  0.00    +0.179 C 
ATOM     13  C   UNL     1       4.370  -5.458  28.185  0.00  0.00    +0.194 C 
ATOM     14  C   UNL     1       3.683  -4.804  26.992  0.00  0.00    +0.196 C 
ATOM     15  C   UNL     1       4.426  -5.333  25.749  0.00  0.00    +0.253 C 
ATOM     16  O   UNL     1       5.123  -6.512  26.142  0.00  0.00    -0.346 OA
BRANCH  15  17
ATOM     17  N   UNL     1       3.559  -5.678  24.647  0.00  0.00    -0.286 N 
ATOM     18  C   UNL     1       2.840  -6.835  24.552  0.00  0.00    +0.167 A 
ATOM     19  N   UNL     1       2.779  -7.833  25.449  0.00  0.00    -0.216 NA
ATOM     20  C   UNL     1       1.990  -8.826  24.983  0.00  0.00    +0.225 A 
ATOM     21  N   UNL     1       1.351  -8.908  23.795  0.00  0.00    -0.219 NA
ATOM     22  C   UNL     1       1.481  -7.884  22.920  0.00  0.00    +0.147 A 
ATOM     23  N   UNL     1       0.878  -7.987  21.676  0.00  0.00    -0.341 N 
ATOM     24  H   UNL     1       0.757  -7.102  21.198  0.00  0.00    +0.144 HD
ATOM     25  H   UNL     1       0.126  -8.660  21.648  0.00  0.00    +0.144 HD
ATOM     26  C   UNL     1       2.230  -6.766  23.311  0.00  0.00    +0.147 A 
ATOM     27  N   UNL     1       2.503  -5.565  22.691  0.00  0.00    -0.231 NA
ATOM     28  C   UNL     1       3.289  -4.927  23.532  0.00  0.00    +0.203 A 
ENDBRANCH  15  17
BRANCH  14  29
ATOM     29  O   UNL     1       3.810  -3.377  27.091  0.00  0.00    -0.385 OA
ATOM     30  H   UNL     1       4.490  -3.114  26.436  0.00  0.00    +0.210 HD
ENDBRANCH  14  29
BRANCH  13  31
ATOM     31  O   UNL     1       3.409  -6.148  29.042  0.00  0.00    -0.278 OA
BRANCH  31  32
ATOM     32  P   UNL     1       1.845  -6.197  28.304  0.00  0.00    +0.473 P 
ATOM     33  O   UNL     1       0.446  -6.240  27.643  0.00  0.00    -0.228 OA
BRANCH  32  34
ATOM     34  O   UNL     1       1.268  -6.118  29.830  0.00  0.00    -0.303 OA
ATOM     35  H   UNL     1       1.562  -5.257  30.185  0.00  0.00    +0.222 HD
ENDBRANCH  32  34
BRANCH  32  36
ATOM     36  O   UNL     1       2.006  -7.824  28.335  0.00  0.00    -0.303 OA
ATOM     37  H   UNL     1       2.581  -8.092  29.076  0.00  0.00    +0.222 HD
ENDBRANCH  32  36
ENDBRANCH  31  32
ENDBRANCH  13  31
ENDBRANCH  11  12
ENDBRANCH  10  11
ENDBRANCH   6  10
ENDBRANCH   5   6
ENDBRANCH   1   5
BRANCH   1  38
ATOM     38  O   UNL     1       8.267  -2.000  23.955  0.00  0.00    -0.286 OA
BRANCH  38  39
ATOM     39  C   UNL     1       9.405  -1.187  23.652  0.00  0.00    +0.181 C 
BRANCH  39  40
ATOM     40  C   UNL     1       9.519   0.083  24.490  0.00  0.00    +0.024 C 
ATOM     41  C   UNL     1       8.832  -0.201  25.849  0.00  0.00    +0.016 C 
ATOM     42  C   UNL     1      11.010   0.353  24.780  0.00  0.00    +0.016 C 
BRANCH  40  43
ATOM     43  C   UNL     1       8.884   1.274  23.731  0.00  0.00    +0.208 C 
BRANCH  43  46
ATOM     44  N   UNL     1      10.391   3.244  23.799  0.00  0.00    -0.313 N 
ATOM     45  H   UNL     1      10.274   3.185  24.809  0.00  0.00    +0.149 HD
ATOM     46  C   UNL     1       9.950   2.173  23.050  0.00  0.00    +0.242 C 
ATOM     47  O   UNL     1      10.320   1.986  21.893  0.00  0.00    -0.273 OA
BRANCH  44  48
ATOM     48  C   UNL     1      11.458   4.115  23.320  0.00  0.00    +0.113 C 
BRANCH  48  49
ATOM     49  C   UNL     1      11.225   5.601  23.597  0.00  0.00    +0.114 C 
BRANCH  49  52
ATOM     50  N   UNL     1       9.076   6.131  22.588  0.00  0.00    -0.314 N 
ATOM     51  H   UNL     1       9.553   5.931  21.711  0.00  0.00    +0.149 HD
ATOM     52  C   UNL     1       9.748   5.883  23.770  0.00  0.00    +0.215 C 
ATOM     53  O   UNL     1       9.193   5.862  24.860  0.00  0.00    -0.276 OA
BRANCH  50  54
ATOM     54  C   UNL     1       7.630   6.285  22.551  0.00  0.00    +0.115 C 
BRANCH  54  55
ATOM     55  C   UNL     1       6.877   4.952  22.567  0.00  0.00    +0.096 C 
BRANCH  55  56
ATOM     56  S   UNL     1       5.363   5.045  23.581  0.00  0.00    -0.087 S 
BRANCH  56  57
ATOM     57  C   UNL     1       5.064   3.319  23.820  0.00  0.00    +0.192 C 
ATOM     58  O   UNL     1       5.664   2.460  23.180  0.00  0.00    -0.285 OA
BRANCH  57  59
ATOM     59  C   UNL     1       4.041   3.020  24.896  0.00  0.00    +0.117 C 
BRANCH  59  60
ATOM     60  C   UNL     1       4.217   3.920  26.124  0.00  0.00    +0.122 C 
BRANCH  60  61
ATOM     61  O   UNL     1       3.063   3.808  26.962  0.00  0.00    -0.391 OA
ATOM     62  H   UNL     1       3.049   2.891  27.306  0.00  0.00    +0.210 HD
ENDBRANCH  60  61
BRANCH  60  63
ATOM     63  C   UNL     1       5.427   3.537  26.998  0.00  0.00    +0.032 C 
BRANCH  63  64
ATOM     64  C   UNL     1       5.109   3.432  28.490  0.00  0.00    +0.003 C 
BRANCH  64  65
ATOM     65  C   UNL     1       5.327   2.021  29.043  0.00  0.00    +0.000 C 
BRANCH  65  66
ATOM     66  C   UNL     1       6.219   1.218  28.093  0.00  0.00    -0.000 C 
BRANCH  66  67
ATOM     67  C   UNL     1       5.617  -0.142  27.742  0.00  0.00    -0.000 C 
BRANCH  67  69
ATOM     68  C   UNL     1       5.364  -0.766  25.311  0.00  0.00    +0.004 C 
ATOM     69  C   UNL     1       4.740  -0.042  26.493  0.00  0.00    -0.003 C 
ENDBRANCH  67  69
ENDBRANCH  66  67
ENDBRANCH  65  66
ENDBRANCH  64  65
ENDBRANCH  63  64
ENDBRANCH  60  63
ENDBRANCH  59  60
ENDBRANCH  57  59
ENDBRANCH  56  57
ENDBRANCH  55  56
ENDBRANCH  54  55
ENDBRANCH  50  54
ENDBRANCH  49  52
ENDBRANCH  48  49
ENDBRANCH  44  48
ENDBRANCH  43  46
BRANCH  43  70
ATOM     70  O   UNL     1       7.979   0.773  22.746  0.00  0.00    -0.382 OA
ATOM     71  H   UNL     1       7.080   0.949  23.074  0.00  0.00    +0.210 HD
ENDBRANCH  43  70
ENDBRANCH  40  43
ENDBRANCH  39  40
ENDBRANCH  38  39
ENDBRANCH   1  38
TORSDOF 35
ENDMDL
MODEL 9
REMARK VINA RESULT:      -5.3      3.269      7.315
REMARK  Name = 
REMARK  38 active torsions:
REMARK  status: ('A' for Active; 'I' for Inactive)
REMARK    1  A    between atoms: C_1  and  C_2
REMARK    2  A    between atoms: C_2  and  C_3
REMARK    3  A    between atoms: C_3  and  C_4
REMARK    4  A    between atoms: C_4  and  C_5
REMARK    5  A    between atoms: C_5  and  C_6
REMARK    6  A    between atoms: C_6  and  C_7
REMARK    7  A    between atoms: C_7  and  C_8
REMARK    8  A    between atoms: C_8  and  O_10
REMARK    9  A    between atoms: C_8  and  C_11
REMARK   10  A    between atoms: C_11  and  C_12
REMARK   11  A    between atoms: C_12  and  S_14
REMARK   12  A    between atoms: S_14  and  C_15
REMARK   13  A    between atoms: C_15  and  C_16
REMARK   14  A    between atoms: C_16  and  N_17
REMARK   15  A    between atoms: C_18  and  C_20
REMARK   16  A    between atoms: C_20  and  C_21
REMARK   17  A    between atoms: C_21  and  N_22
REMARK   18  A    between atoms: C_23  and  C_25
REMARK   19  A    between atoms: C_25  and  O_27
REMARK   20  A    between atoms: C_25  and  C_28
REMARK   21  A    between atoms: C_28  and  C_29
REMARK   22  A    between atoms: C_28  and  C_30
REMARK   23  A    between atoms: C_28  and  C_31
REMARK   24  A    between atoms: C_31  and  O_32
REMARK   25  A    between atoms: O_32  and  P_33
REMARK   26  A    between atoms: P_33  and  O_34
REMARK   27  A    between atoms: P_33  and  O_36
REMARK   28  A    between atoms: O_36  and  P_37
REMARK   29  A    between atoms: P_37  and  O_38
REMARK   30  A    between atoms: P_37  and  O_40
REMARK   31  A    between atoms: O_40  and  C_41
REMARK   32  A    between atoms: C_41  and  C_42
REMARK   33  A    between atoms: C_45  and  N_57
REMARK   34  A    between atoms: C_47  and  O_49
REMARK   35  A    between atoms: C_50  and  O_52
REMARK   36  A    between atoms: O_52  and  P_53
REMARK   37  A    between atoms: P_53  and  O_54
REMARK   38  A    between atoms: P_53  and  O_55
REMARK                            x       y       z     vdW  Elec       q    Type
REMARK                         _______ _______ _______ _____ _____    ______ ____
ROOT
ATOM      1  P   UNL     1       6.942  -4.589  22.087  0.00  0.00    +0.483 P 
ATOM      2  O   UNL     1       7.451  -6.017  21.861  0.00  0.00    -0.227 OA
ENDROOT
BRANCH   1   3
ATOM      3  O   UNL     1       5.693  -4.921  20.937  0.00  0.00    -0.302 OA
ATOM      4  H   UNL     1       4.876  -4.714  21.435  0.00  0.00    +0.222 HD
ENDBRANCH   1   3
BRANCH   1   5
ATOM      5  O   UNL     1       8.191  -4.258  23.238  0.00  0.00    -0.186 OA
BRANCH   5   6
ATOM      6  P   UNL     1       8.773  -2.645  23.009  0.00  0.00    +0.483 P 
ATOM      7  O   UNL     1       9.629  -2.754  24.268  0.00  0.00    -0.227 OA
BRANCH   6   8
ATOM      8  O   UNL     1       7.301  -2.088  23.429  0.00  0.00    -0.302 OA
ATOM      9  H   UNL     1       6.778  -1.804  22.656  0.00  0.00    +0.222 HD
ENDBRANCH   6   8
BRANCH   6  10
ATOM     10  O   UNL     1       9.354  -1.031  22.781  0.00  0.00    -0.284 OA
BRANCH  10  11
ATOM     11  C   UNL     1       8.271  -0.067  22.563  0.00  0.00    +0.206 C 
BRANCH  11  12
ATOM     12  C   UNL     1       7.974   0.964  23.650  0.00  0.00    +0.179 C 
ATOM     13  C   UNL     1       8.421   2.384  23.277  0.00  0.00    +0.194 C 
ATOM     14  C   UNL     1       7.105   3.123  23.061  0.00  0.00    +0.196 C 
ATOM     15  C   UNL     1       6.004   2.053  23.207  0.00  0.00    +0.253 C 
ATOM     16  O   UNL     1       6.576   0.949  23.903  0.00  0.00    -0.346 OA
BRANCH  15  17
ATOM     17  N   UNL     1       4.849   2.495  23.952  0.00  0.00    -0.286 N 
ATOM     18  C   UNL     1       3.878   3.325  23.468  0.00  0.00    +0.167 A 
ATOM     19  N   UNL     1       3.797   3.852  22.235  0.00  0.00    -0.216 NA
ATOM     20  C   UNL     1       2.711   4.653  22.145  0.00  0.00    +0.225 A 
ATOM     21  N   UNL     1       1.813   4.966  23.105  0.00  0.00    -0.219 NA
ATOM     22  C   UNL     1       1.972   4.429  24.337  0.00  0.00    +0.147 A 
ATOM     23  N   UNL     1       1.088   4.792  25.342  0.00  0.00    -0.341 N 
ATOM     24  H   UNL     1       1.070   4.154  26.129  0.00  0.00    +0.144 HD
ATOM     25  H   UNL     1       0.216   5.163  24.997  0.00  0.00    +0.144 HD
ATOM     26  C   UNL     1       3.030   3.534  24.542  0.00  0.00    +0.147 A 
ATOM     27  N   UNL     1       3.424   2.792  25.636  0.00  0.00    -0.231 NA
ATOM     28  C   UNL     1       4.510   2.164  25.239  0.00  0.00    +0.203 A 
ENDBRANCH  15  17
BRANCH  14  29
ATOM     29  O   UNL     1       7.088   3.691  21.742  0.00  0.00    -0.385 OA
ATOM     30  H   UNL     1       7.732   4.430  21.751  0.00  0.00    +0.210 HD
ENDBRANCH  14  29
BRANCH  13  31
ATOM     31  O   UNL     1       9.225   3.021  24.317  0.00  0.00    -0.278 OA
BRANCH  31  32
ATOM     32  P   UNL     1      10.726   3.595  23.674  0.00  0.00    +0.473 P 
ATOM     33  O   UNL     1      12.068   4.108  23.099  0.00  0.00    -0.228 OA
BRANCH  32  34
ATOM     34  O   UNL     1       9.911   4.975  23.360  0.00  0.00    -0.303 OA
ATOM     35  H   UNL     1       9.736   5.388  24.228  0.00  0.00    +0.222 HD
ENDBRANCH  32  34
BRANCH  32  36
ATOM     36  O   UNL     1      10.268   2.881  22.275  0.00  0.00    -0.303 OA
ATOM     37  H   UNL     1      10.568   3.411  21.513  0.00  0.00    +0.222 HD
ENDBRANCH  32  36
ENDBRANCH  31  32
ENDBRANCH  13  31
ENDBRANCH  11  12
ENDBRANCH  10  11
ENDBRANCH   6  10
ENDBRANCH   5   6
ENDBRANCH   1   5
BRANCH   1  38
ATOM     38  O   UNL     1       5.819  -4.690  23.322  0.00  0.00    -0.286 OA
BRANCH  38  39
ATOM     39  C   UNL     1       5.295  -5.981  23.649  0.00  0.00    +0.181 C 
BRANCH  39  40
ATOM     40  C   UNL     1       3.860  -5.971  24.168  0.00  0.00    +0.024 C 
ATOM     41  C   UNL     1       3.526  -4.512  24.565  0.00  0.00    +0.016 C 
ATOM     42  C   UNL     1       2.913  -6.360  23.015  0.00  0.00    +0.016 C 
BRANCH  40  43
ATOM     43  C   UNL     1       3.722  -6.963  25.349  0.00  0.00    +0.208 C 
BRANCH  43  46
ATOM     44  N   UNL     1       3.042  -6.039  27.549  0.00  0.00    -0.313 N 
ATOM     45  H   UNL     1       3.986  -5.660  27.581  0.00  0.00    +0.149 HD
ATOM     46  C   UNL     1       2.605  -6.544  26.342  0.00  0.00    +0.242 C 
ATOM     47  O   UNL     1       1.414  -6.722  26.098  0.00  0.00    -0.273 OA
BRANCH  44  48
ATOM     48  C   UNL     1       2.103  -5.518  28.536  0.00  0.00    +0.113 C 
BRANCH  48  49
ATOM     49  C   UNL     1       1.795  -4.027  28.382  0.00  0.00    +0.114 C 
BRANCH  49  52
ATOM     50  N   UNL     1       2.780  -1.830  28.724  0.00  0.00    -0.314 N 
ATOM     51  H   UNL     1       1.851  -1.489  28.483  0.00  0.00    +0.149 HD
ATOM     52  C   UNL     1       2.957  -3.192  28.873  0.00  0.00    +0.215 C 
ATOM     53  O   UNL     1       3.955  -3.682  29.385  0.00  0.00    -0.276 OA
BRANCH  50  54
ATOM     54  C   UNL     1       3.732  -0.873  29.266  0.00  0.00    +0.115 C 
BRANCH  54  55
ATOM     55  C   UNL     1       3.645   0.508  28.610  0.00  0.00    +0.096 C 
BRANCH  55  56
ATOM     56  S   UNL     1       4.134   1.834  29.763  0.00  0.00    -0.087 S 
BRANCH  56  57
ATOM     57  C   UNL     1       5.550   2.460  28.908  0.00  0.00    +0.192 C 
ATOM     58  O   UNL     1       5.556   3.573  28.390  0.00  0.00    -0.285 OA
BRANCH  57  59
ATOM     59  C   UNL     1       6.733   1.516  28.915  0.00  0.00    +0.117 C 
BRANCH  59  60
ATOM     60  C   UNL     1       7.095   1.037  27.505  0.00  0.00    +0.122 C 
BRANCH  60  61
ATOM     61  O   UNL     1       7.568   2.147  26.735  0.00  0.00    -0.391 OA
ATOM     62  H   UNL     1       7.992   2.768  27.362  0.00  0.00    +0.210 HD
ENDBRANCH  60  61
BRANCH  60  63
ATOM     63  C   UNL     1       8.219  -0.017  27.483  0.00  0.00    +0.032 C 
BRANCH  63  64
ATOM     64  C   UNL     1       7.855  -1.300  26.735  0.00  0.00    +0.003 C 
BRANCH  64  65
ATOM     65  C   UNL     1       6.347  -1.564  26.714  0.00  0.00    +0.000 C 
BRANCH  65  66
ATOM     66  C   UNL     1       6.080  -3.070  26.651  0.00  0.00    -0.000 C 
BRANCH  66  67
ATOM     67  C   UNL     1       7.370  -3.890  26.668  0.00  0.00    -0.000 C 
BRANCH  67  69
ATOM     68  C   UNL     1       6.488  -5.742  28.135  0.00  0.00    +0.004 C 
ATOM     69  C   UNL     1       7.063  -5.385  26.775  0.00  0.00    -0.003 C 
ENDBRANCH  67  69
ENDBRANCH  66  67
ENDBRANCH  65  66
ENDBRANCH  64  65
ENDBRANCH  63  64
ENDBRANCH  60  63
ENDBRANCH  59  60
ENDBRANCH  57  59
ENDBRANCH  56  57
ENDBRANCH  55  56
ENDBRANCH  54  55
ENDBRANCH  50  54
ENDBRANCH  49  52
ENDBRANCH  48  49
ENDBRANCH  44  48
ENDBRANCH  43  46
BRANCH  43  70
ATOM     70  O   UNL     1       3.443  -8.267  24.836  0.00  0.00    -0.382 OA
ATOM     71  H   UNL     1       3.445  -8.875  25.596  0.00  0.00    +0.210 HD
ENDBRANCH  43  70
ENDBRANCH  40  43
ENDBRANCH  39  40
ENDBRANCH  38  39
ENDBRANCH   1  38
TORSDOF 35
ENDMDL
