MODEL 1
REMARK VINA RESULT:      -6.5      0.000      0.000
REMARK  Name = 
REMARK  6 active torsions:
REMARK  status: ('A' for Active; 'I' for Inactive)
REMARK    1  A    between atoms: O_1  and  C_2
REMARK    2  A    between atoms: C_2  and  C_4
REMARK    3  A    between atoms: C_5  and  C_18
REMARK    4  A    between atoms: C_7  and  C_12
REMARK    5  A    between atoms: C_8  and  C_9
REMARK    6  A    between atoms: C_9  and  O_10
REMARK                            x       y       z     vdW  Elec       q    Type
REMARK                         _______ _______ _______ _____ _____    ______ ____
ROOT
ATOM      1  C   UNL     1       8.811   1.022  22.942  0.00  0.00    +0.119 A 
ATOM      2  C   UNL     1       8.620  -0.402  22.964  0.00  0.00    +0.119 A 
ATOM      3  C   UNL     1       7.254  -0.610  23.090  0.00  0.00    +0.150 A 
ATOM      4  O   UNL     1       6.614   0.599  23.190  0.00  0.00    -0.453 OA
ATOM      5  C   UNL     1       7.562   1.591  23.131  0.00  0.00    +0.150 A 
ENDROOT
BRANCH   3   6
ATOM      6  C   UNL     1       6.409  -1.800  23.237  0.00  0.00    +0.018 A 
ATOM      7  C   UNL     1       5.649  -1.991  24.404  0.00  0.00    +0.011 A 
ATOM      8  C   UNL     1       4.817  -3.103  24.559  0.00  0.00    +0.001 A 
ATOM      9  C   UNL     1       4.727  -4.049  23.545  0.00  0.00    +0.000 A 
ATOM     10  C   UNL     1       5.486  -3.890  22.385  0.00  0.00    +0.001 A 
ATOM     11  C   UNL     1       6.322  -2.775  22.232  0.00  0.00    +0.011 A 
ENDBRANCH   3   6
BRANCH   5  12
ATOM     12  C   UNL     1       7.074   2.969  23.283  0.00  0.00    +0.018 A 
ATOM     13  C   UNL     1       6.540   3.432  24.494  0.00  0.00    +0.011 A 
ATOM     14  C   UNL     1       6.209   4.787  24.669  0.00  0.00    +0.001 A 
ATOM     15  C   UNL     1       6.405   5.698  23.634  0.00  0.00    +0.000 A 
ATOM     16  C   UNL     1       6.900   5.254  22.414  0.00  0.00    +0.001 A 
ATOM     17  C   UNL     1       7.214   3.900  22.238  0.00  0.00    +0.011 A 
ENDBRANCH   5  12
BRANCH   1  18
ATOM     18  C   UNL     1      10.062   1.745  22.830  0.00  0.00    +0.341 C 
ATOM     19  O   UNL     1      10.864   1.861  23.742  0.00  0.00    -0.245 OA
BRANCH  18  20
ATOM     20  O   UNL     1      10.337   2.218  21.591  0.00  0.00    -0.477 OA
ATOM     21  H   UNL     1      10.230   1.584  20.855  0.00  0.00    +0.295 HD
ENDBRANCH  18  20
ENDBRANCH   1  18
BRANCH   2  22
ATOM     22  C   UNL     1       9.623  -1.447  22.877  0.00  0.00    +0.341 C 
ATOM     23  O   UNL     1       9.908  -2.191  23.800  0.00  0.00    -0.245 OA
BRANCH  22  24
ATOM     24  O   UNL     1      10.198  -1.593  21.658  0.00  0.00    -0.477 OA
ATOM     25  H   UNL     1      11.117  -1.276  21.566  0.00  0.00    +0.295 HD
ENDBRANCH  22  24
ENDBRANCH   2  22
TORSDOF 6
ENDMDL
MODEL 2
REMARK VINA RESULT:      -6.4      2.087      6.597
REMARK  Name = 
REMARK  6 active torsions:
REMARK  status: ('A' for Active; 'I' for Inactive)
REMARK    1  A    between atoms: O_1  and  C_2
REMARK    2  A    between atoms: C_2  and  C_4
REMARK    3  A    between atoms: C_5  and  C_18
REMARK    4  A    between atoms: C_7  and  C_12
REMARK    5  A    between atoms: C_8  and  C_9
REMARK    6  A    between atoms: C_9  and  O_10
REMARK                            x       y       z     vdW  Elec       q    Type
REMARK                         _______ _______ _______ _____ _____    ______ ____
ROOT
ATOM      1  C   UNL     1       8.309  -2.597  24.640  0.00  0.00    +0.119 A 
ATOM      2  C   UNL     1       8.525  -1.175  24.650  0.00  0.00    +0.119 A 
ATOM      3  C   UNL     1       7.614  -0.637  23.752  0.00  0.00    +0.150 A 
ATOM      4  O   UNL     1       6.893  -1.648  23.169  0.00  0.00    -0.453 OA
ATOM      5  C   UNL     1       7.335  -2.841  23.685  0.00  0.00    +0.150 A 
ENDROOT
BRANCH   3   6
ATOM      6  C   UNL     1       7.351   0.715  23.247  0.00  0.00    +0.018 A 
ATOM      7  C   UNL     1       8.169   1.271  22.248  0.00  0.00    +0.011 A 
ATOM      8  C   UNL     1       7.926   2.547  21.733  0.00  0.00    +0.001 A 
ATOM      9  C   UNL     1       6.854   3.294  22.207  0.00  0.00    +0.000 A 
ATOM     10  C   UNL     1       6.040   2.770  23.211  0.00  0.00    +0.001 A 
ATOM     11  C   UNL     1       6.286   1.491  23.729  0.00  0.00    +0.011 A 
ENDBRANCH   3   6
BRANCH   5  12
ATOM     12  C   UNL     1       6.719  -4.058  23.136  0.00  0.00    +0.018 A 
ATOM     13  C   UNL     1       5.412  -4.437  23.473  0.00  0.00    +0.011 A 
ATOM     14  C   UNL     1       4.785  -5.522  22.835  0.00  0.00    +0.001 A 
ATOM     15  C   UNL     1       5.458  -6.244  21.853  0.00  0.00    +0.000 A 
ATOM     16  C   UNL     1       6.767  -5.906  21.529  0.00  0.00    +0.001 A 
ATOM     17  C   UNL     1       7.393  -4.835  22.178  0.00  0.00    +0.011 A 
ENDBRANCH   5  12
BRANCH   1  18
ATOM     18  C   UNL     1       9.016  -3.604  25.406  0.00  0.00    +0.341 C 
ATOM     19  O   UNL     1       8.778  -3.861  26.574  0.00  0.00    -0.245 OA
BRANCH  18  20
ATOM     20  O   UNL     1       9.917  -4.326  24.698  0.00  0.00    -0.477 OA
ATOM     21  H   UNL     1      10.735  -4.576  25.171  0.00  0.00    +0.295 HD
ENDBRANCH  18  20
ENDBRANCH   1  18
BRANCH   2  22
ATOM     22  C   UNL     1       9.490  -0.416  25.423  0.00  0.00    +0.341 C 
ATOM     23  O   UNL     1      10.454   0.150  24.935  0.00  0.00    -0.245 OA
BRANCH  22  24
ATOM     24  O   UNL     1       9.217  -0.318  26.747  0.00  0.00    -0.477 OA
ATOM     25  H   UNL     1       8.280  -0.405  27.009  0.00  0.00    +0.295 HD
ENDBRANCH  22  24
ENDBRANCH   2  22
TORSDOF 6
ENDMDL
MODEL 3
REMARK VINA RESULT:      -6.4      1.979      3.137
REMARK  Name = 
REMARK  6 active torsions:
REMARK  status: ('A' for Active; 'I' for Inactive)
REMARK    1  A    between atoms: O_1  and  C_2
REMARK    2  A    between atoms: C_2  and  C_4
REMARK    3  A    between atoms: C_5  and  C_18
REMARK    4  A    between atoms: C_7  and  C_12
REMARK    5  A    between atoms: C_8  and  C_9
REMARK    6  A    between atoms: C_9  and  O_10
REMARK                            x       y       z     vdW  Elec       q    Type
REMARK                         _______ _______ _______ _____ _____    ______ ____
ROOT
ATOM      1  C   UNL     1       8.657  -1.081  24.472  0.00  0.00    +0.119 A 
ATOM      2  C   UNL     1       8.434  -2.500  24.414  0.00  0.00    +0.119 A 
ATOM      3  C   UNL     1       7.440  -2.700  23.465  0.00  0.00    +0.150 A 
ATOM      4  O   UNL     1       7.019  -1.488  22.981  0.00  0.00    -0.453 OA
ATOM      5  C   UNL     1       7.736  -0.502  23.613  0.00  0.00    +0.150 A 
ENDROOT
BRANCH   3   6
ATOM      6  C   UNL     1       6.712  -3.876  22.978  0.00  0.00    +0.018 A 
ATOM      7  C   UNL     1       7.339  -4.790  22.113  0.00  0.00    +0.011 A 
ATOM      8  C   UNL     1       6.675  -5.932  21.654  0.00  0.00    +0.001 A 
ATOM      9  C   UNL     1       5.369  -6.183  22.054  0.00  0.00    +0.000 A 
ATOM     10  C   UNL     1       4.721  -5.280  22.897  0.00  0.00    +0.001 A 
ATOM     11  C   UNL     1       5.386  -4.135  23.356  0.00  0.00    +0.011 A 
ENDBRANCH   3   6
BRANCH   5  12
ATOM     12  C   UNL     1       7.385   0.884  23.269  0.00  0.00    +0.018 A 
ATOM     13  C   UNL     1       8.169   1.645  22.391  0.00  0.00    +0.011 A 
ATOM     14  C   UNL     1       7.749   2.915  21.960  0.00  0.00    +0.001 A 
ATOM     15  C   UNL     1       6.539   3.443  22.403  0.00  0.00    +0.000 A 
ATOM     16  C   UNL     1       5.763   2.720  23.301  0.00  0.00    +0.001 A 
ATOM     17  C   UNL     1       6.192   1.462  23.741  0.00  0.00    +0.011 A 
ENDBRANCH   5  12
BRANCH   1  18
ATOM     18  C   UNL     1       9.594  -0.367  25.315  0.00  0.00    +0.341 C 
ATOM     19  O   UNL     1      10.535   0.282  24.889  0.00  0.00    -0.245 OA
BRANCH  18  20
ATOM     20  O   UNL     1       9.299  -0.388  26.637  0.00  0.00    -0.477 OA
ATOM     21  H   UNL     1       9.128  -1.268  27.026  0.00  0.00    +0.295 HD
ENDBRANCH  18  20
ENDBRANCH   1  18
BRANCH   2  22
ATOM     22  C   UNL     1       9.089  -3.547  25.175  0.00  0.00    +0.341 C 
ATOM     23  O   UNL     1       9.885  -4.336  24.695  0.00  0.00    -0.245 OA
BRANCH  22  24
ATOM     24  O   UNL     1       8.806  -3.558  26.500  0.00  0.00    -0.477 OA
ATOM     25  H   UNL     1       7.974  -3.125  26.774  0.00  0.00    +0.295 HD
ENDBRANCH  22  24
ENDBRANCH   2  22
TORSDOF 6
ENDMDL
MODEL 4
REMARK VINA RESULT:      -6.4      0.255      5.905
REMARK  Name = 
REMARK  6 active torsions:
REMARK  status: ('A' for Active; 'I' for Inactive)
REMARK    1  A    between atoms: O_1  and  C_2
REMARK    2  A    between atoms: C_2  and  C_4
REMARK    3  A    between atoms: C_5  and  C_18
REMARK    4  A    between atoms: C_7  and  C_12
REMARK    5  A    between atoms: C_8  and  C_9
REMARK    6  A    between atoms: C_9  and  O_10
REMARK                            x       y       z     vdW  Elec       q    Type
REMARK                         _______ _______ _______ _____ _____    ______ ____
ROOT
ATOM      1  C   UNL     1       8.712  -0.473  23.070  0.00  0.00    +0.119 A 
ATOM      2  C   UNL     1       8.880   0.955  23.092  0.00  0.00    +0.119 A 
ATOM      3  C   UNL     1       7.630   1.489  23.374  0.00  0.00    +0.150 A 
ATOM      4  O   UNL     1       6.712   0.476  23.479  0.00  0.00    -0.453 OA
ATOM      5  C   UNL     1       7.362  -0.714  23.264  0.00  0.00    +0.150 A 
ENDROOT
BRANCH   3   6
ATOM      6  C   UNL     1       7.099   2.853  23.472  0.00  0.00    +0.018 A 
ATOM      7  C   UNL     1       7.098   3.697  22.347  0.00  0.00    +0.011 A 
ATOM      8  C   UNL     1       6.575   4.992  22.408  0.00  0.00    +0.001 A 
ATOM      9  C   UNL     1       6.039   5.468  23.598  0.00  0.00    +0.000 A 
ATOM     10  C   UNL     1       6.047   4.656  24.732  0.00  0.00    +0.001 A 
ATOM     11  C   UNL     1       6.573   3.358  24.670  0.00  0.00    +0.011 A 
ENDBRANCH   3   6
BRANCH   5  12
ATOM     12  C   UNL     1       6.528  -1.925  23.277  0.00  0.00    +0.018 A 
ATOM     13  C   UNL     1       5.638  -2.195  24.327  0.00  0.00    +0.011 A 
ATOM     14  C   UNL     1       4.746  -3.279  24.260  0.00  0.00    +0.001 A 
ATOM     15  C   UNL     1       4.733  -4.110  23.143  0.00  0.00    +0.000 A 
ATOM     16  C   UNL     1       5.630  -3.882  22.107  0.00  0.00    +0.001 A 
ATOM     17  C   UNL     1       6.528  -2.810  22.184  0.00  0.00    +0.011 A 
ENDBRANCH   5  12
BRANCH   1  18
ATOM     18  C   UNL     1       9.724  -1.478  22.813  0.00  0.00    +0.341 C 
ATOM     19  O   UNL     1      10.114  -2.278  23.646  0.00  0.00    -0.245 OA
BRANCH  18  20
ATOM     20  O   UNL     1      10.154  -1.536  21.530  0.00  0.00    -0.477 OA
ATOM     21  H   UNL     1       9.487  -1.339  20.843  0.00  0.00    +0.295 HD
ENDBRANCH  18  20
ENDBRANCH   1  18
BRANCH   2  22
ATOM     22  C   UNL     1      10.090   1.723  22.869  0.00  0.00    +0.341 C 
ATOM     23  O   UNL     1      10.932   1.925  23.727  0.00  0.00    -0.245 OA
BRANCH  22  24
ATOM     24  O   UNL     1      10.265   2.164  21.599  0.00  0.00    -0.477 OA
ATOM     25  H   UNL     1      10.262   1.487  20.896  0.00  0.00    +0.295 HD
ENDBRANCH  22  24
ENDBRANCH   2  22
TORSDOF 6
ENDMDL
MODEL 5
REMARK VINA RESULT:      -6.4      1.991      3.243
REMARK  Name = 
REMARK  6 active torsions:
REMARK  status: ('A' for Active; 'I' for Inactive)
REMARK    1  A    between atoms: O_1  and  C_2
REMARK    2  A    between atoms: C_2  and  C_4
REMARK    3  A    between atoms: C_5  and  C_18
REMARK    4  A    between atoms: C_7  and  C_12
REMARK    5  A    between atoms: C_8  and  C_9
REMARK    6  A    between atoms: C_9  and  O_10
REMARK                            x       y       z     vdW  Elec       q    Type
REMARK                         _______ _______ _______ _____ _____    ______ ____
ROOT
ATOM      1  C   UNL     1       8.325  -2.026  22.979  0.00  0.00    +0.119 A 
ATOM      2  C   UNL     1       7.480  -3.161  23.230  0.00  0.00    +0.119 A 
ATOM      3  C   UNL     1       6.239  -2.652  23.587  0.00  0.00    +0.150 A 
ATOM      4  O   UNL     1       6.297  -1.281  23.609  0.00  0.00    -0.453 OA
ATOM      5  C   UNL     1       7.571  -0.901  23.270  0.00  0.00    +0.150 A 
ENDROOT
BRANCH   3   6
ATOM      6  C   UNL     1       4.973  -3.250  24.025  0.00  0.00    +0.018 A 
ATOM      7  C   UNL     1       4.348  -4.238  23.243  0.00  0.00    +0.011 A 
ATOM      8  C   UNL     1       3.155  -4.842  23.649  0.00  0.00    +0.001 A 
ATOM      9  C   UNL     1       2.563  -4.470  24.850  0.00  0.00    +0.000 A 
ATOM     10  C   UNL     1       3.156  -3.479  25.633  0.00  0.00    +0.001 A 
ATOM     11  C   UNL     1       4.352  -2.873  25.223  0.00  0.00    +0.011 A 
ENDBRANCH   3   6
BRANCH   5  12
ATOM     12  C   UNL     1       7.851   0.542  23.296  0.00  0.00    +0.018 A 
ATOM     13  C   UNL     1       8.496   1.147  24.384  0.00  0.00    +0.011 A 
ATOM     14  C   UNL     1       8.883   2.498  24.337  0.00  0.00    +0.001 A 
ATOM     15  C   UNL     1       8.628   3.263  23.202  0.00  0.00    +0.000 A 
ATOM     16  C   UNL     1       7.958   2.693  22.126  0.00  0.00    +0.001 A 
ATOM     17  C   UNL     1       7.560   1.351  22.183  0.00  0.00    +0.011 A 
ENDBRANCH   5  12
BRANCH   1  18
ATOM     18  C   UNL     1       9.719  -2.033  22.582  0.00  0.00    +0.341 C 
ATOM     19  O   UNL     1      10.609  -2.557  23.230  0.00  0.00    -0.245 OA
BRANCH  18  20
ATOM     20  O   UNL     1       9.966  -1.486  21.367  0.00  0.00    -0.477 OA
ATOM     21  H   UNL     1      10.511  -2.020  20.758  0.00  0.00    +0.295 HD
ENDBRANCH  18  20
ENDBRANCH   1  18
BRANCH   2  22
ATOM     22  C   UNL     1       7.814  -4.570  23.144  0.00  0.00    +0.341 C 
ATOM     23  O   UNL     1       7.377  -5.319  22.285  0.00  0.00    -0.245 OA
BRANCH  22  24
ATOM     24  O   UNL     1       8.713  -5.006  24.060  0.00  0.00    -0.477 OA
ATOM     25  H   UNL     1       8.352  -5.340  24.903  0.00  0.00    +0.295 HD
ENDBRANCH  22  24
ENDBRANCH   2  22
TORSDOF 6
ENDMDL
MODEL 6
REMARK VINA RESULT:      -6.4      4.229      6.017
REMARK  Name = 
REMARK  6 active torsions:
REMARK  status: ('A' for Active; 'I' for Inactive)
REMARK    1  A    between atoms: O_1  and  C_2
REMARK    2  A    between atoms: C_2  and  C_4
REMARK    3  A    between atoms: C_5  and  C_18
REMARK    4  A    between atoms: C_7  and  C_12
REMARK    5  A    between atoms: C_8  and  C_9
REMARK    6  A    between atoms: C_9  and  O_10
REMARK                            x       y       z     vdW  Elec       q    Type
REMARK                         _______ _______ _______ _____ _____    ______ ____
ROOT
ATOM      1  C   UNL     1       7.948  -4.268  25.472  0.00  0.00    +0.119 A 
ATOM      2  C   UNL     1       6.654  -4.637  25.979  0.00  0.00    +0.119 A 
ATOM      3  C   UNL     1       5.744  -3.770  25.391  0.00  0.00    +0.150 A 
ATOM      4  O   UNL     1       6.413  -2.874  24.597  0.00  0.00    -0.453 OA
ATOM      5  C   UNL     1       7.755  -3.156  24.669  0.00  0.00    +0.150 A 
ENDROOT
BRANCH   3   6
ATOM      6  C   UNL     1       4.298  -3.561  25.522  0.00  0.00    +0.018 A 
ATOM      7  C   UNL     1       3.400  -4.305  24.737  0.00  0.00    +0.011 A 
ATOM      8  C   UNL     1       2.017  -4.143  24.860  0.00  0.00    +0.001 A 
ATOM      9  C   UNL     1       1.504  -3.231  25.775  0.00  0.00    +0.000 A 
ATOM     10  C   UNL     1       2.377  -2.468  26.551  0.00  0.00    +0.001 A 
ATOM     11  C   UNL     1       3.764  -2.631  26.425  0.00  0.00    +0.011 A 
ENDBRANCH   3   6
BRANCH   5  12
ATOM     12  C   UNL     1       8.651  -2.259  23.925  0.00  0.00    +0.018 A 
ATOM     13  C   UNL     1       8.683  -2.248  22.523  0.00  0.00    +0.011 A 
ATOM     14  C   UNL     1       9.439  -1.291  21.823  0.00  0.00    +0.001 A 
ATOM     15  C   UNL     1      10.174  -0.333  22.516  0.00  0.00    +0.000 A 
ATOM     16  C   UNL     1      10.184  -0.348  23.906  0.00  0.00    +0.001 A 
ATOM     17  C   UNL     1       9.443  -1.313  24.599  0.00  0.00    +0.011 A 
ENDBRANCH   5  12
BRANCH   1  18
ATOM     18  C   UNL     1       9.227  -4.871  25.790  0.00  0.00    +0.341 C 
ATOM     19  O   UNL     1      10.023  -5.259  24.952  0.00  0.00    -0.245 OA
BRANCH  18  20
ATOM     20  O   UNL     1       9.533  -4.892  27.110  0.00  0.00    -0.477 OA
ATOM     21  H   UNL     1       9.778  -4.034  27.509  0.00  0.00    +0.295 HD
ENDBRANCH  18  20
ENDBRANCH   1  18
BRANCH   2  22
ATOM     22  C   UNL     1       6.322  -5.692  26.918  0.00  0.00    +0.341 C 
ATOM     23  O   UNL     1       5.693  -6.693  26.617  0.00  0.00    -0.245 OA
BRANCH  22  24
ATOM     24  O   UNL     1       6.818  -5.527  28.168  0.00  0.00    -0.477 OA
ATOM     25  H   UNL     1       7.272  -6.295  28.565  0.00  0.00    +0.295 HD
ENDBRANCH  22  24
ENDBRANCH   2  22
TORSDOF 6
ENDMDL
MODEL 7
REMARK VINA RESULT:      -6.3      4.242      7.072
REMARK  Name = 
REMARK  6 active torsions:
REMARK  status: ('A' for Active; 'I' for Inactive)
REMARK    1  A    between atoms: O_1  and  C_2
REMARK    2  A    between atoms: C_2  and  C_4
REMARK    3  A    between atoms: C_5  and  C_18
REMARK    4  A    between atoms: C_7  and  C_12
REMARK    5  A    between atoms: C_8  and  C_9
REMARK    6  A    between atoms: C_9  and  O_10
REMARK                            x       y       z     vdW  Elec       q    Type
REMARK                         _______ _______ _______ _____ _____    ______ ____
ROOT
ATOM      1  C   UNL     1       6.631  -4.611  26.071  0.00  0.00    +0.119 A 
ATOM      2  C   UNL     1       7.903  -4.196  25.544  0.00  0.00    +0.119 A 
ATOM      3  C   UNL     1       7.664  -3.040  24.815  0.00  0.00    +0.150 A 
ATOM      4  O   UNL     1       6.321  -2.757  24.832  0.00  0.00    -0.453 OA
ATOM      5  C   UNL     1       5.689  -3.727  25.569  0.00  0.00    +0.150 A 
ENDROOT
BRANCH   3   6
ATOM      6  C   UNL     1       8.496  -2.164  23.983  0.00  0.00    +0.018 A 
ATOM      7  C   UNL     1       8.391  -2.206  22.582  0.00  0.00    +0.011 A 
ATOM      8  C   UNL     1       9.155  -1.365  21.768  0.00  0.00    +0.001 A 
ATOM      9  C   UNL     1      10.040  -0.461  22.342  0.00  0.00    +0.000 A 
ATOM     10  C   UNL     1      10.174  -0.414  23.730  0.00  0.00    +0.001 A 
ATOM     11  C   UNL     1       9.409  -1.260  24.545  0.00  0.00    +0.011 A 
ENDBRANCH   3   6
BRANCH   5  12
ATOM     12  C   UNL     1       4.225  -3.630  25.656  0.00  0.00    +0.018 A 
ATOM     13  C   UNL     1       3.597  -2.717  26.516  0.00  0.00    +0.011 A 
ATOM     14  C   UNL     1       2.204  -2.535  26.488  0.00  0.00    +0.001 A 
ATOM     15  C   UNL     1       1.418  -3.265  25.600  0.00  0.00    +0.000 A 
ATOM     16  C   UNL     1       2.015  -4.200  24.763  0.00  0.00    +0.001 A 
ATOM     17  C   UNL     1       3.402  -4.390  24.806  0.00  0.00    +0.011 A 
ENDBRANCH   5  12
BRANCH   1  18
ATOM     18  C   UNL     1       6.350  -5.768  26.897  0.00  0.00    +0.341 C 
ATOM     19  O   UNL     1       5.619  -6.684  26.558  0.00  0.00    -0.245 OA
BRANCH  18  20
ATOM     20  O   UNL     1       7.043  -5.817  28.060  0.00  0.00    -0.477 OA
ATOM     21  H   UNL     1       8.003  -5.647  27.997  0.00  0.00    +0.295 HD
ENDBRANCH  18  20
ENDBRANCH   1  18
BRANCH   2  22
ATOM     22  C   UNL     1       9.197  -4.829  25.713  0.00  0.00    +0.341 C 
ATOM     23  O   UNL     1       9.874  -5.245  24.788  0.00  0.00    -0.245 OA
BRANCH  22  24
ATOM     24  O   UNL     1       9.652  -4.878  26.989  0.00  0.00    -0.477 OA
ATOM     25  H   UNL     1       9.416  -4.127  27.567  0.00  0.00    +0.295 HD
ENDBRANCH  22  24
ENDBRANCH   2  22
TORSDOF 6
ENDMDL
MODEL 8
REMARK VINA RESULT:      -6.3      2.977      4.318
REMARK  Name = 
REMARK  6 active torsions:
REMARK  status: ('A' for Active; 'I' for Inactive)
REMARK    1  A    between atoms: O_1  and  C_2
REMARK    2  A    between atoms: C_2  and  C_4
REMARK    3  A    between atoms: C_5  and  C_18
REMARK    4  A    between atoms: C_7  and  C_12
REMARK    5  A    between atoms: C_8  and  C_9
REMARK    6  A    between atoms: C_9  and  O_10
REMARK                            x       y       z     vdW  Elec       q    Type
REMARK                         _______ _______ _______ _____ _____    ______ ____
ROOT
ATOM      1  C   UNL     1       7.959  -1.279  25.771  0.00  0.00    +0.119 A 
ATOM      2  C   UNL     1       7.298  -2.552  25.676  0.00  0.00    +0.119 A 
ATOM      3  C   UNL     1       7.367  -2.928  24.342  0.00  0.00    +0.150 A 
ATOM      4  O   UNL     1       7.988  -1.941  23.619  0.00  0.00    -0.453 OA
ATOM      5  C   UNL     1       8.322  -0.926  24.481  0.00  0.00    +0.150 A 
ENDROOT
BRANCH   3   6
ATOM      6  C   UNL     1       6.843  -4.059  23.568  0.00  0.00    +0.018 A 
ATOM      7  C   UNL     1       7.723  -4.950  22.929  0.00  0.00    +0.011 A 
ATOM      8  C   UNL     1       7.251  -6.050  22.207  0.00  0.00    +0.001 A 
ATOM      9  C   UNL     1       5.884  -6.281  22.111  0.00  0.00    +0.000 A 
ATOM     10  C   UNL     1       4.991  -5.400  22.722  0.00  0.00    +0.001 A 
ATOM     11  C   UNL     1       5.466  -4.297  23.444  0.00  0.00    +0.011 A 
ENDBRANCH   3   6
BRANCH   5  12
ATOM     12  C   UNL     1       8.950   0.260  23.881  0.00  0.00    +0.018 A 
ATOM     13  C   UNL     1       9.974   0.961  24.535  0.00  0.00    +0.011 A 
ATOM     14  C   UNL     1      10.662   2.005  23.892  0.00  0.00    +0.001 A 
ATOM     15  C   UNL     1      10.335   2.363  22.588  0.00  0.00    +0.000 A 
ATOM     16  C   UNL     1       9.300   1.705  21.933  0.00  0.00    +0.001 A 
ATOM     17  C   UNL     1       8.606   0.676  22.582  0.00  0.00    +0.011 A 
ENDBRANCH   5  12
BRANCH   1  18
ATOM     18  C   UNL     1       8.147  -0.467  26.956  0.00  0.00    +0.341 C 
ATOM     19  O   UNL     1       7.294   0.274  27.415  0.00  0.00    -0.245 OA
BRANCH  18  20
ATOM     20  O   UNL     1       9.327  -0.657  27.594  0.00  0.00    -0.477 OA
ATOM     21  H   UNL     1      10.125  -0.664  27.030  0.00  0.00    +0.295 HD
ENDBRANCH  18  20
ENDBRANCH   1  18
BRANCH   2  22
ATOM     22  C   UNL     1       6.670  -3.322  26.733  0.00  0.00    +0.341 C 
ATOM     23  O   UNL     1       7.219  -4.239  27.321  0.00  0.00    -0.245 OA
BRANCH  22  24
ATOM     24  O   UNL     1       5.425  -2.913  27.081  0.00  0.00    -0.477 OA
ATOM     25  H   UNL     1       4.963  -2.331  26.449  0.00  0.00    +0.295 HD
ENDBRANCH  22  24
ENDBRANCH   2  22
TORSDOF 6
ENDMDL
MODEL 9
REMARK VINA RESULT:      -6.3      2.832      7.109
REMARK  Name = 
REMARK  6 active torsions:
REMARK  status: ('A' for Active; 'I' for Inactive)
REMARK    1  A    between atoms: O_1  and  C_2
REMARK    2  A    between atoms: C_2  and  C_4
REMARK    3  A    between atoms: C_5  and  C_18
REMARK    4  A    between atoms: C_7  and  C_12
REMARK    5  A    between atoms: C_8  and  C_9
REMARK    6  A    between atoms: C_9  and  O_10
REMARK                            x       y       z     vdW  Elec       q    Type
REMARK                         _______ _______ _______ _____ _____    ______ ____
ROOT
ATOM      1  C   UNL     1       7.093  -2.492  25.774  0.00  0.00    +0.119 A 
ATOM      2  C   UNL     1       7.741  -1.211  25.862  0.00  0.00    +0.119 A 
ATOM      3  C   UNL     1       8.073  -0.853  24.563  0.00  0.00    +0.150 A 
ATOM      4  O   UNL     1       7.706  -1.857  23.703  0.00  0.00    -0.453 OA
ATOM      5  C   UNL     1       7.138  -2.866  24.441  0.00  0.00    +0.150 A 
ENDROOT
BRANCH   3   6
ATOM      6  C   UNL     1       8.796   0.275  23.965  0.00  0.00    +0.018 A 
ATOM      7  C   UNL     1      10.018   0.705  24.512  0.00  0.00    +0.011 A 
ATOM      8  C   UNL     1      10.738   1.761  23.947  0.00  0.00    +0.001 A 
ATOM      9  C   UNL     1      10.249   2.409  22.819  0.00  0.00    +0.000 A 
ATOM     10  C   UNL     1       9.029   2.012  22.270  0.00  0.00    +0.001 A 
ATOM     11  C   UNL     1       8.307   0.953  22.839  0.00  0.00    +0.011 A 
ENDBRANCH   3   6
BRANCH   5  12
ATOM     12  C   UNL     1       6.730  -4.067  23.698  0.00  0.00    +0.018 A 
ATOM     13  C   UNL     1       5.379  -4.413  23.544  0.00  0.00    +0.011 A 
ATOM     14  C   UNL     1       4.996  -5.482  22.716  0.00  0.00    +0.001 A 
ATOM     15  C   UNL     1       5.957  -6.221  22.032  0.00  0.00    +0.000 A 
ATOM     16  C   UNL     1       7.303  -5.917  22.198  0.00  0.00    +0.001 A 
ATOM     17  C   UNL     1       7.683  -4.862  23.037  0.00  0.00    +0.011 A 
ENDBRANCH   5  12
BRANCH   1  18
ATOM     18  C   UNL     1       6.564  -3.291  26.861  0.00  0.00    +0.341 C 
ATOM     19  O   UNL     1       5.431  -3.180  27.299  0.00  0.00    -0.245 OA
BRANCH  18  20
ATOM     20  O   UNL     1       7.397  -4.260  27.310  0.00  0.00    -0.477 OA
ATOM     21  H   UNL     1       7.237  -4.578  28.220  0.00  0.00    +0.295 HD
ENDBRANCH  18  20
ENDBRANCH   1  18
BRANCH   2  22
ATOM     22  C   UNL     1       8.015  -0.420  27.047  0.00  0.00    +0.341 C 
ATOM     23  O   UNL     1       7.207   0.336  27.558  0.00  0.00    -0.245 OA
BRANCH  22  24
ATOM     24  O   UNL     1       9.234  -0.622  27.604  0.00  0.00    -0.477 OA
ATOM     25  H   UNL     1       9.464  -1.542  27.835  0.00  0.00    +0.295 HD
ENDBRANCH  22  24
ENDBRANCH   2  22
TORSDOF 6
ENDMDL
