MODEL 1
REMARK VINA RESULT:      -5.0      0.000      0.000
REMARK  Name = 
REMARK  13 active torsions:
REMARK  status: ('A' for Active; 'I' for Inactive)
REMARK    1  A    between atoms: N_1  and  C_2
REMARK    2  A    between atoms: C_2  and  C_4
REMARK    3  A    between atoms: C_2  and  C_16
REMARK    4  A    between atoms: C_4  and  O_5
REMARK    5  A    between atoms: O_5  and  P_6
REMARK    6  A    between atoms: P_6  and  O_7
REMARK    7  A    between atoms: P_6  and  O_9
REMARK    8  A    between atoms: O_9  and  C_10
REMARK    9  A    between atoms: C_10  and  C_11
REMARK   10  A    between atoms: C_11  and  O_13
REMARK   11  A    between atoms: C_11  and  C_14
REMARK   12  A    between atoms: C_14  and  O_15
REMARK   13  A    between atoms: C_16  and  O_17
REMARK                            x       y       z     vdW  Elec       q    Type
REMARK                         _______ _______ _______ _____ _____    ______ ____
ROOT
ATOM      1  P   UNK     1       9.808  -1.745  22.742  0.00  0.00    +0.475 P 
ATOM      2  O   UNK     1       8.294  -1.793  22.532  0.00  0.00    -0.227 OA
ENDROOT
BRANCH   1   3
ATOM      3  O   UNK     1       9.910  -0.867  21.254  0.00  0.00    -0.302 OA
ATOM      4  H   UNK     1       8.966  -0.691  21.053  0.00  0.00    +0.222 HD
ENDBRANCH   1   3
BRANCH   1   5
ATOM      5  O   UNK     1      10.190  -0.370  23.542  0.00  0.00    -0.285 OA
BRANCH   5   6
ATOM      6  C   UNK     1       9.171   0.309  24.271  0.00  0.00    +0.202 C 
BRANCH   6   7
ATOM      7  C   UNK     1       8.808   1.587  23.514  0.00  0.00    +0.187 C 
BRANCH   7   8
ATOM      8  N   UNK     1       7.869   1.312  22.369  0.00  0.00    -0.317 NA
ATOM      9  H   UNK     1       7.259   0.542  22.676  0.00  0.00    +0.119 HD
ATOM     10  H   UNK     1       7.227   2.108  22.302  0.00  0.00    +0.119 HD
ENDBRANCH   7   8
BRANCH   7  11
ATOM     11  C   UNK     1      10.087   2.224  22.952  0.00  0.00    +0.324 C 
ATOM     12  O   UNK     1      10.912   2.848  23.599  0.00  0.00    -0.249 OA
BRANCH  11  13
ATOM     13  O   UNK     1      10.189   2.027  21.610  0.00  0.00    -0.479 OA
ATOM     14  H   UNK     1      11.158   2.093  21.410  0.00  0.00    +0.295 HD
ENDBRANCH  11  13
ENDBRANCH   7  11
ENDBRANCH   6   7
ENDBRANCH   5   6
ENDBRANCH   1   5
BRANCH   1  15
ATOM     15  O   UNK     1       9.706  -2.622  24.229  0.00  0.00    -0.284 OA
BRANCH  15  16
ATOM     16  C   UNK     1       8.650  -3.582  24.196  0.00  0.00    +0.206 C 
BRANCH  16  17
ATOM     17  C   UNK     1       9.053  -4.806  25.019  0.00  0.00    +0.166 C 
BRANCH  17  18
ATOM     18  O   UNK     1      10.462  -5.033  24.853  0.00  0.00    -0.387 OA
ATOM     19  H   UNK     1      10.884  -4.630  25.639  0.00  0.00    +0.210 HD
ENDBRANCH  17  18
BRANCH  17  20
ATOM     20  C   UNK     1       8.781  -4.591  26.508  0.00  0.00    +0.189 C 
BRANCH  20  21
ATOM     21  O   UNK     1       8.144  -5.745  27.059  0.00  0.00    -0.392 OA
ATOM     22  H   UNK     1       8.761  -6.482  26.876  0.00  0.00    +0.210 HD
ENDBRANCH  20  21
ENDBRANCH  17  20
ENDBRANCH  16  17
ENDBRANCH  15  16
ENDBRANCH   1  15
TORSDOF 13
ENDMDL
MODEL 2
REMARK VINA RESULT:      -4.7      2.032      2.615
REMARK  Name = 
REMARK  13 active torsions:
REMARK  status: ('A' for Active; 'I' for Inactive)
REMARK    1  A    between atoms: N_1  and  C_2
REMARK    2  A    between atoms: C_2  and  C_4
REMARK    3  A    between atoms: C_2  and  C_16
REMARK    4  A    between atoms: C_4  and  O_5
REMARK    5  A    between atoms: O_5  and  P_6
REMARK    6  A    between atoms: P_6  and  O_7
REMARK    7  A    between atoms: P_6  and  O_9
REMARK    8  A    between atoms: O_9  and  C_10
REMARK    9  A    between atoms: C_10  and  C_11
REMARK   10  A    between atoms: C_11  and  O_13
REMARK   11  A    between atoms: C_11  and  C_14
REMARK   12  A    between atoms: C_14  and  O_15
REMARK   13  A    between atoms: C_16  and  O_17
REMARK                            x       y       z     vdW  Elec       q    Type
REMARK                         _______ _______ _______ _____ _____    ______ ____
ROOT
ATOM      1  P   UNK     1       9.091   0.129  24.718  0.00  0.00    +0.475 P 
ATOM      2  O   UNK     1      10.198  -0.404  23.807  0.00  0.00    -0.227 OA
ENDROOT
BRANCH   1   3
ATOM      3  O   UNK     1       9.992   1.603  24.824  0.00  0.00    -0.302 OA
ATOM      4  H   UNK     1       9.283   2.280  24.805  0.00  0.00    +0.222 HD
ENDBRANCH   1   3
BRANCH   1   5
ATOM      5  O   UNK     1       7.982   0.910  23.804  0.00  0.00    -0.285 OA
BRANCH   5   6
ATOM      6  C   UNK     1       7.885   0.595  22.418  0.00  0.00    +0.202 C 
BRANCH   6   7
ATOM      7  C   UNK     1       8.383   1.797  21.614  0.00  0.00    +0.187 C 
BRANCH   7   8
ATOM      8  N   UNK     1       9.886   1.891  21.621  0.00  0.00    -0.317 NA
ATOM      9  H   UNK     1      10.166   2.089  20.650  0.00  0.00    +0.119 HD
ATOM     10  H   UNK     1      10.136   2.752  22.117  0.00  0.00    +0.119 HD
ENDBRANCH   7   8
BRANCH   7  11
ATOM     11  C   UNK     1       7.813   3.085  22.224  0.00  0.00    +0.324 C 
ATOM     12  O   UNK     1       6.682   3.509  22.055  0.00  0.00    -0.249 OA
BRANCH  11  13
ATOM     13  O   UNK     1       8.744   3.730  22.977  0.00  0.00    -0.479 OA
ATOM     14  H   UNK     1       8.311   4.578  23.256  0.00  0.00    +0.295 HD
ENDBRANCH  11  13
ENDBRANCH   7  11
ENDBRANCH   6   7
ENDBRANCH   5   6
ENDBRANCH   1   5
BRANCH   1  15
ATOM     15  O   UNK     1       8.190  -1.344  24.612  0.00  0.00    -0.284 OA
BRANCH  15  16
ATOM     16  C   UNK     1       8.631  -2.294  25.581  0.00  0.00    +0.206 C 
BRANCH  16  17
ATOM     17  C   UNK     1       8.991  -3.604  24.878  0.00  0.00    +0.166 C 
BRANCH  17  18
ATOM     18  O   UNK     1      10.155  -3.388  24.064  0.00  0.00    -0.387 OA
ATOM     19  H   UNK     1       9.875  -2.753  23.374  0.00  0.00    +0.210 HD
ENDBRANCH  17  18
BRANCH  17  20
ATOM     20  C   UNK     1       9.316  -4.706  25.886  0.00  0.00    +0.189 C 
BRANCH  20  21
ATOM     21  O   UNK     1      10.301  -5.588  25.345  0.00  0.00    -0.392 OA
ATOM     22  H   UNK     1       9.789  -6.276  24.874  0.00  0.00    +0.210 HD
ENDBRANCH  20  21
ENDBRANCH  17  20
ENDBRANCH  16  17
ENDBRANCH  15  16
ENDBRANCH   1  15
TORSDOF 13
ENDMDL
MODEL 3
REMARK VINA RESULT:      -4.6      3.200      5.665
REMARK  Name = 
REMARK  13 active torsions:
REMARK  status: ('A' for Active; 'I' for Inactive)
REMARK    1  A    between atoms: N_1  and  C_2
REMARK    2  A    between atoms: C_2  and  C_4
REMARK    3  A    between atoms: C_2  and  C_16
REMARK    4  A    between atoms: C_4  and  O_5
REMARK    5  A    between atoms: O_5  and  P_6
REMARK    6  A    between atoms: P_6  and  O_7
REMARK    7  A    between atoms: P_6  and  O_9
REMARK    8  A    between atoms: O_9  and  C_10
REMARK    9  A    between atoms: C_10  and  C_11
REMARK   10  A    between atoms: C_11  and  O_13
REMARK   11  A    between atoms: C_11  and  C_14
REMARK   12  A    between atoms: C_14  and  O_15
REMARK   13  A    between atoms: C_16  and  O_17
REMARK                            x       y       z     vdW  Elec       q    Type
REMARK                         _______ _______ _______ _____ _____    ______ ____
ROOT
ATOM      1  P   UNK     1       7.519  -1.524  25.601  0.00  0.00    +0.475 P 
ATOM      2  O   UNK     1       6.330  -1.834  24.690  0.00  0.00    -0.227 OA
ENDROOT
BRANCH   1   3
ATOM      3  O   UNK     1       6.712  -2.427  26.837  0.00  0.00    -0.302 OA
ATOM      4  H   UNK     1       6.316  -1.717  27.385  0.00  0.00    +0.222 HD
ENDBRANCH   1   3
BRANCH   1   5
ATOM      5  O   UNK     1       8.612  -2.735  25.475  0.00  0.00    -0.285 OA
BRANCH   5   6
ATOM      6  C   UNK     1       8.639  -3.747  26.477  0.00  0.00    +0.202 C 
BRANCH   6   7
ATOM      7  C   UNK     1       8.779  -5.105  25.786  0.00  0.00    +0.187 C 
BRANCH   7   8
ATOM      8  N   UNK     1      10.203  -5.386  25.386  0.00  0.00    -0.317 NA
ATOM      9  H   UNK     1      10.786  -5.121  26.193  0.00  0.00    +0.119 HD
ATOM     10  H   UNK     1      10.313  -6.404  25.341  0.00  0.00    +0.119 HD
ENDBRANCH   7   8
BRANCH   7  11
ATOM     11  C   UNK     1       7.907  -5.122  24.522  0.00  0.00    +0.324 C 
ATOM     12  O   UNK     1       8.312  -5.297  23.385  0.00  0.00    -0.249 OA
BRANCH  11  13
ATOM     13  O   UNK     1       6.600  -4.891  24.819  0.00  0.00    -0.479 OA
ATOM     14  H   UNK     1       6.451  -5.334  25.694  0.00  0.00    +0.295 HD
ENDBRANCH  11  13
ENDBRANCH   7  11
ENDBRANCH   6   7
ENDBRANCH   5   6
ENDBRANCH   1   5
BRANCH   1  15
ATOM     15  O   UNK     1       8.327  -0.622  24.365  0.00  0.00    -0.284 OA
BRANCH  15  16
ATOM     16  C   UNK     1       9.734  -0.860  24.382  0.00  0.00    +0.206 C 
BRANCH  16  17
ATOM     17  C   UNK     1      10.144  -1.559  23.085  0.00  0.00    +0.166 C 
BRANCH  17  18
ATOM     18  O   UNK     1      10.407  -2.942  23.366  0.00  0.00    -0.387 OA
ATOM     19  H   UNK     1      11.265  -2.953  23.837  0.00  0.00    +0.210 HD
ENDBRANCH  17  18
BRANCH  17  20
ATOM     20  C   UNK     1       9.031  -1.492  22.039  0.00  0.00    +0.189 C 
BRANCH  20  21
ATOM     21  O   UNK     1       8.104  -2.559  22.245  0.00  0.00    -0.392 OA
ATOM     22  H   UNK     1       8.391  -2.983  23.079  0.00  0.00    +0.210 HD
ENDBRANCH  20  21
ENDBRANCH  17  20
ENDBRANCH  16  17
ENDBRANCH  15  16
ENDBRANCH   1  15
TORSDOF 13
ENDMDL
MODEL 4
REMARK VINA RESULT:      -4.6      1.723      2.050
REMARK  Name = 
REMARK  13 active torsions:
REMARK  status: ('A' for Active; 'I' for Inactive)
REMARK    1  A    between atoms: N_1  and  C_2
REMARK    2  A    between atoms: C_2  and  C_4
REMARK    3  A    between atoms: C_2  and  C_16
REMARK    4  A    between atoms: C_4  and  O_5
REMARK    5  A    between atoms: O_5  and  P_6
REMARK    6  A    between atoms: P_6  and  O_7
REMARK    7  A    between atoms: P_6  and  O_9
REMARK    8  A    between atoms: O_9  and  C_10
REMARK    9  A    between atoms: C_10  and  C_11
REMARK   10  A    between atoms: C_11  and  O_13
REMARK   11  A    between atoms: C_11  and  C_14
REMARK   12  A    between atoms: C_14  and  O_15
REMARK   13  A    between atoms: C_16  and  O_17
REMARK                            x       y       z     vdW  Elec       q    Type
REMARK                         _______ _______ _______ _____ _____    ______ ____
ROOT
ATOM      1  P   UNK     1       7.681  -1.916  23.501  0.00  0.00    +0.475 P 
ATOM      2  O   UNK     1       7.521  -1.237  24.861  0.00  0.00    -0.227 OA
ENDROOT
BRANCH   1   3
ATOM      3  O   UNK     1       6.562  -0.754  22.874  0.00  0.00    -0.302 OA
ATOM      4  H   UNK     1       6.029  -1.295  22.253  0.00  0.00    +0.222 HD
ENDBRANCH   1   3
BRANCH   1   5
ATOM      5  O   UNK     1       8.875  -1.165  22.671  0.00  0.00    -0.285 OA
BRANCH   5   6
ATOM      6  C   UNK     1      10.205  -1.218  23.177  0.00  0.00    +0.202 C 
BRANCH   6   7
ATOM      7  C   UNK     1      10.567   0.164  23.726  0.00  0.00    +0.187 C 
BRANCH   7   8
ATOM      8  N   UNK     1      10.247   0.285  25.192  0.00  0.00    -0.317 NA
ATOM      9  H   UNK     1       9.500  -0.399  25.381  0.00  0.00    +0.119 HD
ATOM     10  H   UNK     1      11.046  -0.091  25.712  0.00  0.00    +0.119 HD
ENDBRANCH   7   8
BRANCH   7  11
ATOM     11  C   UNK     1       9.771   1.235  22.965  0.00  0.00    +0.324 C 
ATOM     12  O   UNK     1      10.150   1.821  21.965  0.00  0.00    -0.249 OA
BRANCH  11  13
ATOM     13  O   UNK     1       8.573   1.478  23.562  0.00  0.00    -0.479 OA
ATOM     14  H   UNK     1       7.893   1.127  22.931  0.00  0.00    +0.295 HD
ENDBRANCH  11  13
ENDBRANCH   7  11
ENDBRANCH   6   7
ENDBRANCH   5   6
ENDBRANCH   1   5
BRANCH   1  15
ATOM     15  O   UNK     1       8.800  -3.076  24.127  0.00  0.00    -0.284 OA
BRANCH  15  16
ATOM     16  C   UNK     1       8.240  -4.389  24.132  0.00  0.00    +0.206 C 
BRANCH  16  17
ATOM     17  C   UNK     1       8.944  -5.235  25.194  0.00  0.00    +0.166 C 
BRANCH  17  18
ATOM     18  O   UNK     1      10.362  -5.167  24.977  0.00  0.00    -0.387 OA
ATOM     19  H   UNK     1      10.584  -4.215  25.010  0.00  0.00    +0.210 HD
ENDBRANCH  17  18
BRANCH  17  20
ATOM     20  C   UNK     1       8.655  -4.714  26.602  0.00  0.00    +0.189 C 
BRANCH  20  21
ATOM     21  O   UNK     1       8.019  -5.730  27.378  0.00  0.00    -0.392 OA
ATOM     22  H   UNK     1       7.229  -5.294  27.760  0.00  0.00    +0.210 HD
ENDBRANCH  20  21
ENDBRANCH  17  20
ENDBRANCH  16  17
ENDBRANCH  15  16
ENDBRANCH   1  15
TORSDOF 13
ENDMDL
MODEL 5
REMARK VINA RESULT:      -4.5      2.521      5.808
REMARK  Name = 
REMARK  13 active torsions:
REMARK  status: ('A' for Active; 'I' for Inactive)
REMARK    1  A    between atoms: N_1  and  C_2
REMARK    2  A    between atoms: C_2  and  C_4
REMARK    3  A    between atoms: C_2  and  C_16
REMARK    4  A    between atoms: C_4  and  O_5
REMARK    5  A    between atoms: O_5  and  P_6
REMARK    6  A    between atoms: P_6  and  O_7
REMARK    7  A    between atoms: P_6  and  O_9
REMARK    8  A    between atoms: O_9  and  C_10
REMARK    9  A    between atoms: C_10  and  C_11
REMARK   10  A    between atoms: C_11  and  O_13
REMARK   11  A    between atoms: C_11  and  C_14
REMARK   12  A    between atoms: C_14  and  O_15
REMARK   13  A    between atoms: C_16  and  O_17
REMARK                            x       y       z     vdW  Elec       q    Type
REMARK                         _______ _______ _______ _____ _____    ______ ____
ROOT
ATOM      1  P   UNK     1       6.173  -3.063  22.860  0.00  0.00    +0.475 P 
ATOM      2  O   UNK     1       5.435  -3.202  21.528  0.00  0.00    -0.227 OA
ENDROOT
BRANCH   1   3
ATOM      3  O   UNK     1       5.417  -4.542  23.347  0.00  0.00    -0.302 OA
ATOM      4  H   UNK     1       4.506  -4.431  23.002  0.00  0.00    +0.222 HD
ENDBRANCH   1   3
BRANCH   1   5
ATOM      5  O   UNK     1       7.598  -3.860  22.763  0.00  0.00    -0.285 OA
BRANCH   5   6
ATOM      6  C   UNK     1       7.979  -4.725  23.829  0.00  0.00    +0.202 C 
BRANCH   6   7
ATOM      7  C   UNK     1       8.842  -3.930  24.810  0.00  0.00    +0.187 C 
BRANCH   7   8
ATOM      8  N   UNK     1      10.129  -3.470  24.177  0.00  0.00    -0.317 NA
ATOM      9  H   UNK     1      10.558  -4.306  23.758  0.00  0.00    +0.119 HD
ATOM     10  H   UNK     1       9.882  -2.899  23.362  0.00  0.00    +0.119 HD
ENDBRANCH   7   8
BRANCH   7  11
ATOM     11  C   UNK     1       9.185  -4.816  26.017  0.00  0.00    +0.324 C 
ATOM     12  O   UNK     1       8.543  -4.881  27.052  0.00  0.00    -0.249 OA
BRANCH  11  13
ATOM     13  O   UNK     1      10.327  -5.522  25.804  0.00  0.00    -0.479 OA
ATOM     14  H   UNK     1      10.344  -5.701  24.828  0.00  0.00    +0.295 HD
ENDBRANCH  11  13
ENDBRANCH   7  11
ENDBRANCH   6   7
ENDBRANCH   5   6
ENDBRANCH   1   5
BRANCH   1  15
ATOM     15  O   UNK     1       6.928  -1.585  22.374  0.00  0.00    -0.284 OA
BRANCH  15  16
ATOM     16  C   UNK     1       7.483  -0.892  23.492  0.00  0.00    +0.206 C 
BRANCH  16  17
ATOM     17  C   UNK     1       8.762  -0.175  23.057  0.00  0.00    +0.166 C 
BRANCH  17  18
ATOM     18  O   UNK     1       9.818  -0.516  23.970  0.00  0.00    -0.387 OA
ATOM     19  H   UNK     1      10.279  -1.277  23.561  0.00  0.00    +0.210 HD
ENDBRANCH  17  18
BRANCH  17  20
ATOM     20  C   UNK     1       9.193  -0.604  21.655  0.00  0.00    +0.189 C 
BRANCH  20  21
ATOM     21  O   UNK     1       9.776  -1.907  21.700  0.00  0.00    -0.392 OA
ATOM     22  H   UNK     1      10.337  -1.958  20.899  0.00  0.00    +0.210 HD
ENDBRANCH  20  21
ENDBRANCH  17  20
ENDBRANCH  16  17
ENDBRANCH  15  16
ENDBRANCH   1  15
TORSDOF 13
ENDMDL
MODEL 6
REMARK VINA RESULT:      -4.5      2.583      5.823
REMARK  Name = 
REMARK  13 active torsions:
REMARK  status: ('A' for Active; 'I' for Inactive)
REMARK    1  A    between atoms: N_1  and  C_2
REMARK    2  A    between atoms: C_2  and  C_4
REMARK    3  A    between atoms: C_2  and  C_16
REMARK    4  A    between atoms: C_4  and  O_5
REMARK    5  A    between atoms: O_5  and  P_6
REMARK    6  A    between atoms: P_6  and  O_7
REMARK    7  A    between atoms: P_6  and  O_9
REMARK    8  A    between atoms: O_9  and  C_10
REMARK    9  A    between atoms: C_10  and  C_11
REMARK   10  A    between atoms: C_11  and  O_13
REMARK   11  A    between atoms: C_11  and  C_14
REMARK   12  A    between atoms: C_14  and  O_15
REMARK   13  A    between atoms: C_16  and  O_17
REMARK                            x       y       z     vdW  Elec       q    Type
REMARK                         _______ _______ _______ _____ _____    ______ ____
ROOT
ATOM      1  P   UNK     1       9.474  -2.040  23.435  0.00  0.00    +0.475 P 
ATOM      2  O   UNK     1       9.119  -1.665  24.874  0.00  0.00    -0.227 OA
ENDROOT
BRANCH   1   3
ATOM      3  O   UNK     1      10.260  -3.443  24.074  0.00  0.00    -0.302 OA
ATOM      4  H   UNK     1       9.514  -3.926  24.489  0.00  0.00    +0.222 HD
ENDBRANCH   1   3
BRANCH   1   5
ATOM      5  O   UNK     1       8.301  -3.010  22.835  0.00  0.00    -0.285 OA
BRANCH   5   6
ATOM      6  C   UNK     1       7.782  -4.053  23.656  0.00  0.00    +0.202 C 
BRANCH   6   7
ATOM      7  C   UNK     1       6.259  -4.064  23.513  0.00  0.00    +0.187 C 
BRANCH   7   8
ATOM      8  N   UNK     1       5.732  -5.448  23.239  0.00  0.00    -0.317 NA
ATOM      9  H   UNK     1       5.310  -5.774  24.120  0.00  0.00    +0.119 HD
ATOM     10  H   UNK     1       4.926  -5.351  22.614  0.00  0.00    +0.119 HD
ENDBRANCH   7   8
BRANCH   7  11
ATOM     11  C   UNK     1       5.852  -3.151  22.348  0.00  0.00    +0.324 C 
ATOM     12  O   UNK     1       5.564  -3.523  21.223  0.00  0.00    -0.249 OA
BRANCH  11  13
ATOM     13  O   UNK     1       5.871  -1.841  22.716  0.00  0.00    -0.479 OA
ATOM     14  H   UNK     1       6.419  -1.386  22.026  0.00  0.00    +0.295 HD
ENDBRANCH  11  13
ENDBRANCH   7  11
ENDBRANCH   6   7
ENDBRANCH   5   6
ENDBRANCH   1   5
BRANCH   1  15
ATOM     15  O   UNK     1       8.688  -0.638  22.795  0.00  0.00    -0.284 OA
BRANCH  15  16
ATOM     16  C   UNK     1       9.527   0.052  21.870  0.00  0.00    +0.206 C 
BRANCH  16  17
ATOM     17  C   UNK     1      10.108   1.295  22.545  0.00  0.00    +0.166 C 
BRANCH  17  18
ATOM     18  O   UNK     1      10.218   2.344  21.569  0.00  0.00    -0.387 OA
ATOM     19  H   UNK     1      11.171   2.564  21.531  0.00  0.00    +0.210 HD
ENDBRANCH  17  18
BRANCH  17  20
ATOM     20  C   UNK     1       9.203   1.792  23.672  0.00  0.00    +0.189 C 
BRANCH  20  21
ATOM     21  O   UNK     1       9.702   1.345  24.933  0.00  0.00    -0.392 OA
ATOM     22  H   UNK     1       9.307   0.458  25.057  0.00  0.00    +0.210 HD
ENDBRANCH  20  21
ENDBRANCH  17  20
ENDBRANCH  16  17
ENDBRANCH  15  16
ENDBRANCH   1  15
TORSDOF 13
ENDMDL
MODEL 7
REMARK VINA RESULT:      -4.5      2.641      6.085
REMARK  Name = 
REMARK  13 active torsions:
REMARK  status: ('A' for Active; 'I' for Inactive)
REMARK    1  A    between atoms: N_1  and  C_2
REMARK    2  A    between atoms: C_2  and  C_4
REMARK    3  A    between atoms: C_2  and  C_16
REMARK    4  A    between atoms: C_4  and  O_5
REMARK    5  A    between atoms: O_5  and  P_6
REMARK    6  A    between atoms: P_6  and  O_7
REMARK    7  A    between atoms: P_6  and  O_9
REMARK    8  A    between atoms: O_9  and  C_10
REMARK    9  A    between atoms: C_10  and  C_11
REMARK   10  A    between atoms: C_11  and  O_13
REMARK   11  A    between atoms: C_11  and  C_14
REMARK   12  A    between atoms: C_14  and  O_15
REMARK   13  A    between atoms: C_16  and  O_17
REMARK                            x       y       z     vdW  Elec       q    Type
REMARK                         _______ _______ _______ _____ _____    ______ ____
ROOT
ATOM      1  P   UNK     1       6.855  -1.644  23.478  0.00  0.00    +0.475 P 
ATOM      2  O   UNK     1       7.334  -2.343  22.205  0.00  0.00    -0.227 OA
ENDROOT
BRANCH   1   3
ATOM      3  O   UNK     1       5.541  -2.769  23.511  0.00  0.00    -0.302 OA
ATOM      4  H   UNK     1       4.761  -2.175  23.477  0.00  0.00    +0.222 HD
ENDBRANCH   1   3
BRANCH   1   5
ATOM      5  O   UNK     1       7.498  -2.405  24.775  0.00  0.00    -0.285 OA
BRANCH   5   6
ATOM      6  C   UNK     1       8.847  -2.861  24.710  0.00  0.00    +0.202 C 
BRANCH   6   7
ATOM      7  C   UNK     1       8.923  -4.237  25.372  0.00  0.00    +0.187 C 
BRANCH   7   8
ATOM      8  N   UNK     1      10.142  -5.004  24.932  0.00  0.00    -0.317 NA
ATOM      9  H   UNK     1      10.497  -5.486  25.770  0.00  0.00    +0.119 HD
ATOM     10  H   UNK     1       9.821  -5.774  24.336  0.00  0.00    +0.119 HD
ENDBRANCH   7   8
BRANCH   7  11
ATOM     11  C   UNK     1       7.676  -5.050  24.995  0.00  0.00    +0.324 C 
ATOM     12  O   UNK     1       6.904  -5.570  25.783  0.00  0.00    -0.249 OA
BRANCH  11  13
ATOM     13  O   UNK     1       7.538  -5.147  23.645  0.00  0.00    -0.479 OA
ATOM     14  H   UNK     1       6.700  -5.659  23.505  0.00  0.00    +0.295 HD
ENDBRANCH  11  13
ENDBRANCH   7  11
ENDBRANCH   6   7
ENDBRANCH   5   6
ENDBRANCH   1   5
BRANCH   1  15
ATOM     15  O   UNK     1       8.169  -0.519  23.445  0.00  0.00    -0.284 OA
BRANCH  15  16
ATOM     16  C   UNK     1       7.929   0.535  22.513  0.00  0.00    +0.206 C 
BRANCH  16  17
ATOM     17  C   UNK     1       9.090   0.608  21.521  0.00  0.00    +0.166 C 
BRANCH  17  18
ATOM     18  O   UNK     1       9.543   1.968  21.435  0.00  0.00    -0.387 OA
ATOM     19  H   UNK     1      10.373   1.933  20.918  0.00  0.00    +0.210 HD
ENDBRANCH  17  18
BRANCH  17  20
ATOM     20  C   UNK     1      10.268  -0.255  21.977  0.00  0.00    +0.189 C 
BRANCH  20  21
ATOM     21  O   UNK     1      10.119  -1.586  21.482  0.00  0.00    -0.392 OA
ATOM     22  H   UNK     1       9.177  -1.805  21.633  0.00  0.00    +0.210 HD
ENDBRANCH  20  21
ENDBRANCH  17  20
ENDBRANCH  16  17
ENDBRANCH  15  16
ENDBRANCH   1  15
TORSDOF 13
ENDMDL
MODEL 8
REMARK VINA RESULT:      -4.5      2.326      6.283
REMARK  Name = 
REMARK  13 active torsions:
REMARK  status: ('A' for Active; 'I' for Inactive)
REMARK    1  A    between atoms: N_1  and  C_2
REMARK    2  A    between atoms: C_2  and  C_4
REMARK    3  A    between atoms: C_2  and  C_16
REMARK    4  A    between atoms: C_4  and  O_5
REMARK    5  A    between atoms: O_5  and  P_6
REMARK    6  A    between atoms: P_6  and  O_7
REMARK    7  A    between atoms: P_6  and  O_9
REMARK    8  A    between atoms: O_9  and  C_10
REMARK    9  A    between atoms: C_10  and  C_11
REMARK   10  A    between atoms: C_11  and  O_13
REMARK   11  A    between atoms: C_11  and  C_14
REMARK   12  A    between atoms: C_14  and  O_15
REMARK   13  A    between atoms: C_16  and  O_17
REMARK                            x       y       z     vdW  Elec       q    Type
REMARK                         _______ _______ _______ _____ _____    ______ ____
ROOT
ATOM      1  P   UNK     1       8.161  -2.290  23.311  0.00  0.00    +0.475 P 
ATOM      2  O   UNK     1       8.829  -2.348  21.936  0.00  0.00    -0.227 OA
ENDROOT
BRANCH   1   3
ATOM      3  O   UNK     1       7.651  -3.923  23.049  0.00  0.00    -0.302 OA
ATOM      4  H   UNK     1       8.472  -4.427  23.235  0.00  0.00    +0.222 HD
ENDBRANCH   1   3
BRANCH   1   5
ATOM      5  O   UNK     1       9.216  -2.834  24.436  0.00  0.00    -0.285 OA
BRANCH   5   6
ATOM      6  C   UNK     1       8.744  -3.099  25.754  0.00  0.00    +0.202 C 
BRANCH   6   7
ATOM      7  C   UNK     1       9.109  -4.540  26.115  0.00  0.00    +0.187 C 
BRANCH   7   8
ATOM      8  N   UNK     1       9.899  -5.209  25.021  0.00  0.00    -0.317 NA
ATOM      9  H   UNK     1       9.591  -4.776  24.138  0.00  0.00    +0.119 HD
ATOM     10  H   UNK     1      10.871  -4.895  25.109  0.00  0.00    +0.119 HD
ENDBRANCH   7   8
BRANCH   7  11
ATOM     11  C   UNK     1       7.822  -5.346  26.346  0.00  0.00    +0.324 C 
ATOM     12  O   UNK     1       6.911  -5.471  25.544  0.00  0.00    -0.249 OA
BRANCH  11  13
ATOM     13  O   UNK     1       7.802  -5.900  27.587  0.00  0.00    -0.479 OA
ATOM     14  H   UNK     1       8.578  -5.504  28.062  0.00  0.00    +0.295 HD
ENDBRANCH  11  13
ENDBRANCH   7  11
ENDBRANCH   6   7
ENDBRANCH   5   6
ENDBRANCH   1   5
BRANCH   1  15
ATOM     15  O   UNK     1       8.671  -0.658  23.572  0.00  0.00    -0.284 OA
BRANCH  15  16
ATOM     16  C   UNK     1       9.937  -0.404  22.965  0.00  0.00    +0.206 C 
BRANCH  16  17
ATOM     17  C   UNK     1      10.100   1.100  22.744  0.00  0.00    +0.166 C 
BRANCH  17  18
ATOM     18  O   UNK     1       9.604   1.434  21.438  0.00  0.00    -0.387 OA
ATOM     19  H   UNK     1       9.518   2.409  21.434  0.00  0.00    +0.210 HD
ENDBRANCH  17  18
BRANCH  17  20
ATOM     20  C   UNK     1       9.304   1.904  23.772  0.00  0.00    +0.189 C 
BRANCH  20  21
ATOM     21  O   UNK     1       9.660   1.496  25.093  0.00  0.00    -0.392 OA
ATOM     22  H   UNK     1       9.172   0.659  25.236  0.00  0.00    +0.210 HD
ENDBRANCH  20  21
ENDBRANCH  17  20
ENDBRANCH  16  17
ENDBRANCH  15  16
ENDBRANCH   1  15
TORSDOF 13
ENDMDL
MODEL 9
REMARK VINA RESULT:      -4.5      2.438      3.514
REMARK  Name = 
REMARK  13 active torsions:
REMARK  status: ('A' for Active; 'I' for Inactive)
REMARK    1  A    between atoms: N_1  and  C_2
REMARK    2  A    between atoms: C_2  and  C_4
REMARK    3  A    between atoms: C_2  and  C_16
REMARK    4  A    between atoms: C_4  and  O_5
REMARK    5  A    between atoms: O_5  and  P_6
REMARK    6  A    between atoms: P_6  and  O_7
REMARK    7  A    between atoms: P_6  and  O_9
REMARK    8  A    between atoms: O_9  and  C_10
REMARK    9  A    between atoms: C_10  and  C_11
REMARK   10  A    between atoms: C_11  and  O_13
REMARK   11  A    between atoms: C_11  and  C_14
REMARK   12  A    between atoms: C_14  and  O_15
REMARK   13  A    between atoms: C_16  and  O_17
REMARK                            x       y       z     vdW  Elec       q    Type
REMARK                         _______ _______ _______ _____ _____    ______ ____
ROOT
ATOM      1  P   UNK     1       6.052  -4.151  23.228  0.00  0.00    +0.475 P 
ATOM      2  O   UNK     1       5.385  -2.776  23.181  0.00  0.00    -0.227 OA
ENDROOT
BRANCH   1   3
ATOM      3  O   UNK     1       5.613  -4.338  21.565  0.00  0.00    -0.302 OA
ATOM      4  H   UNK     1       5.133  -3.502  21.383  0.00  0.00    +0.222 HD
ENDBRANCH   1   3
BRANCH   1   5
ATOM      5  O   UNK     1       7.613  -4.000  22.766  0.00  0.00    -0.285 OA
BRANCH   5   6
ATOM      6  C   UNK     1       8.078  -2.733  22.309  0.00  0.00    +0.202 C 
BRANCH   6   7
ATOM      7  C   UNK     1       8.941  -2.111  23.408  0.00  0.00    +0.187 C 
BRANCH   7   8
ATOM      8  N   UNK     1       8.122  -1.286  24.364  0.00  0.00    -0.317 NA
ATOM      9  H   UNK     1       8.578  -1.374  25.283  0.00  0.00    +0.119 HD
ATOM     10  H   UNK     1       8.269  -0.301  24.123  0.00  0.00    +0.119 HD
ENDBRANCH   7   8
BRANCH   7  11
ATOM     11  C   UNK     1      10.000  -1.203  22.767  0.00  0.00    +0.324 C 
ATOM     12  O   UNK     1      10.562  -0.271  23.318  0.00  0.00    -0.249 OA
BRANCH  11  13
ATOM     13  O   UNK     1      10.232  -1.550  21.472  0.00  0.00    -0.479 OA
ATOM     14  H   UNK     1      10.381  -0.692  20.996  0.00  0.00    +0.295 HD
ENDBRANCH  11  13
ENDBRANCH   7  11
ENDBRANCH   6   7
ENDBRANCH   5   6
ENDBRANCH   1   5
BRANCH   1  15
ATOM     15  O   UNK     1       6.491  -3.965  24.891  0.00  0.00    -0.284 OA
BRANCH  15  16
ATOM     16  C   UNK     1       6.989  -5.185  25.438  0.00  0.00    +0.206 C 
BRANCH  16  17
ATOM     17  C   UNK     1       8.041  -4.870  26.502  0.00  0.00    +0.166 C 
BRANCH  17  18
ATOM     18  O   UNK     1       8.032  -5.915  27.487  0.00  0.00    -0.387 OA
ATOM     19  H   UNK     1       7.312  -6.521  27.217  0.00  0.00    +0.210 HD
ENDBRANCH  17  18
BRANCH  17  20
ATOM     20  C   UNK     1       9.444  -4.805  25.896  0.00  0.00    +0.189 C 
BRANCH  20  21
ATOM     21  O   UNK     1       9.718  -6.003  25.170  0.00  0.00    -0.392 OA
ATOM     22  H   UNK     1      10.262  -6.545  25.778  0.00  0.00    +0.210 HD
ENDBRANCH  20  21
ENDBRANCH  17  20
ENDBRANCH  16  17
ENDBRANCH  15  16
ENDBRANCH   1  15
TORSDOF 13
ENDMDL
