MODEL 1
REMARK VINA RESULT:      -5.0      0.000      0.000
REMARK  Name = 
REMARK  6 active torsions:
REMARK  status: ('A' for Active; 'I' for Inactive)
REMARK    1  A    between atoms: C_1  and  C_2
REMARK    2  A    between atoms: C_2  and  C_3
REMARK    3  A    between atoms: C_5  and  C_6
REMARK    4  A    between atoms: C_6  and  C_7
REMARK    5  A    between atoms: C_7  and  N_8
REMARK    6  A    between atoms: C_11  and  O_12
REMARK                            x       y       z     vdW  Elec       q    Type
REMARK                         _______ _______ _______ _____ _____    ______ ____
ROOT
ATOM      1  C   UNL     1       9.900   0.897  23.398  0.00  0.00    -0.006 A 
ATOM      2  C   UNL     1       9.686   0.887  22.015  0.00  0.00    +0.120 A 
ATOM      3  C   UNL     1       9.487  -0.308  21.325  0.00  0.00    +0.046 A 
ATOM      4  C   UNL     1       9.509  -1.519  22.017  0.00  0.00    +0.007 A 
ATOM      5  C   UNL     1       9.725  -1.542  23.400  0.00  0.00    -0.046 A 
ATOM      6  C   UNL     1       9.895  -0.327  24.085  0.00  0.00    +0.011 A 
ENDROOT
BRANCH   1   8
ATOM      7  C   UNL     1       8.872   2.803  24.693  0.00  0.00    +0.009 C 
ATOM      8  C   UNL     1      10.148   2.184  24.148  0.00  0.00    +0.035 C 
ENDBRANCH   1   8
BRANCH   2   9
ATOM      9  O   UNL     1       9.684   2.074  21.337  0.00  0.00    -0.506 OA
ATOM     10  H   UNL     1       8.839   2.525  21.499  0.00  0.00    +0.292 HD
ENDBRANCH   2   9
BRANCH   5  11
ATOM     11  C   UNL     1       9.798  -2.857  24.138  0.00  0.00    +0.050 C 
BRANCH  11  12
ATOM     12  C   UNL     1       8.536  -3.708  23.969  0.00  0.00    +0.082 C 
BRANCH  12  13
ATOM     13  N   UNL     1       8.824  -5.118  24.230  0.00  0.00    -0.330 NA
ATOM     14  H   UNL     1       8.643  -5.325  25.212  0.00  0.00    +0.118 HD
ATOM     15  H   UNL     1       8.184  -5.705  23.696  0.00  0.00    +0.118 HD
ENDBRANCH  12  13
ENDBRANCH  11  12
ENDBRANCH   5  11
TORSDOF 5
ENDMDL
MODEL 2
REMARK VINA RESULT:      -4.8      3.487      5.681
REMARK  Name = 
REMARK  6 active torsions:
REMARK  status: ('A' for Active; 'I' for Inactive)
REMARK    1  A    between atoms: C_1  and  C_2
REMARK    2  A    between atoms: C_2  and  C_3
REMARK    3  A    between atoms: C_5  and  C_6
REMARK    4  A    between atoms: C_6  and  C_7
REMARK    5  A    between atoms: C_7  and  N_8
REMARK    6  A    between atoms: C_11  and  O_12
REMARK                            x       y       z     vdW  Elec       q    Type
REMARK                         _______ _______ _______ _____ _____    ______ ____
ROOT
ATOM      1  C   UNL     1       7.740  -3.585  22.927  0.00  0.00    -0.006 A 
ATOM      2  C   UNL     1       8.586  -3.883  24.001  0.00  0.00    +0.120 A 
ATOM      3  C   UNL     1       9.687  -3.082  24.295  0.00  0.00    +0.046 A 
ATOM      4  C   UNL     1       9.963  -1.966  23.504  0.00  0.00    +0.007 A 
ATOM      5  C   UNL     1       9.138  -1.643  22.421  0.00  0.00    -0.046 A 
ATOM      6  C   UNL     1       8.016  -2.445  22.154  0.00  0.00    +0.011 A 
ENDROOT
BRANCH   1   8
ATOM      7  C   UNL     1       6.915  -5.553  21.581  0.00  0.00    +0.009 C 
ATOM      8  C   UNL     1       6.563  -4.466  22.581  0.00  0.00    +0.035 C 
ENDBRANCH   1   8
BRANCH   2   9
ATOM      9  O   UNL     1       8.325  -4.988  24.762  0.00  0.00    -0.506 OA
ATOM     10  H   UNL     1       7.860  -4.709  25.568  0.00  0.00    +0.292 HD
ENDBRANCH   2   9
BRANCH   5  11
ATOM     11  C   UNL     1       9.467  -0.464  21.536  0.00  0.00    +0.050 C 
BRANCH  11  12
ATOM     12  C   UNL     1       9.949   0.757  22.324  0.00  0.00    +0.082 C 
BRANCH  12  13
ATOM     13  N   UNL     1       9.811   1.975  21.526  0.00  0.00    -0.330 NA
ATOM     14  H   UNL     1       9.252   1.774  20.697  0.00  0.00    +0.118 HD
ATOM     15  H   UNL     1       9.290   2.675  22.054  0.00  0.00    +0.118 HD
ENDBRANCH  12  13
ENDBRANCH  11  12
ENDBRANCH   5  11
TORSDOF 5
ENDMDL
MODEL 3
REMARK VINA RESULT:      -4.7      1.940      3.168
REMARK  Name = 
REMARK  6 active torsions:
REMARK  status: ('A' for Active; 'I' for Inactive)
REMARK    1  A    between atoms: C_1  and  C_2
REMARK    2  A    between atoms: C_2  and  C_3
REMARK    3  A    between atoms: C_5  and  C_6
REMARK    4  A    between atoms: C_6  and  C_7
REMARK    5  A    between atoms: C_7  and  N_8
REMARK    6  A    between atoms: C_11  and  O_12
REMARK                            x       y       z     vdW  Elec       q    Type
REMARK                         _______ _______ _______ _____ _____    ______ ____
ROOT
ATOM      1  C   UNL     1       9.766  -0.842  23.950  0.00  0.00    -0.006 A 
ATOM      2  C   UNL     1       9.479  -0.196  25.157  0.00  0.00    +0.120 A 
ATOM      3  C   UNL     1       8.843  -0.867  26.200  0.00  0.00    +0.046 A 
ATOM      4  C   UNL     1       8.476  -2.203  26.043  0.00  0.00    +0.007 A 
ATOM      5  C   UNL     1       8.745  -2.876  24.846  0.00  0.00    -0.046 A 
ATOM      6  C   UNL     1       9.412  -2.195  23.814  0.00  0.00    +0.011 A 
ENDROOT
BRANCH   1   8
ATOM      7  C   UNL     1       9.502   0.065  21.610  0.00  0.00    +0.009 C 
ATOM      8  C   UNL     1      10.426  -0.115  22.803  0.00  0.00    +0.035 C 
ENDBRANCH   1   8
BRANCH   2   9
ATOM      9  O   UNL     1       9.822   1.119  25.302  0.00  0.00    -0.506 OA
ATOM     10  H   UNL     1       9.579   1.596  24.492  0.00  0.00    +0.292 HD
ENDBRANCH   2   9
BRANCH   5  11
ATOM     11  C   UNL     1       8.302  -4.308  24.659  0.00  0.00    +0.050 C 
BRANCH  11  12
ATOM     12  C   UNL     1       8.911  -5.261  25.692  0.00  0.00    +0.082 C 
BRANCH  12  13
ATOM     13  N   UNL     1      10.327  -5.494  25.407  0.00  0.00    -0.330 NA
ATOM     14  H   UNL     1      10.779  -4.605  25.192  0.00  0.00    +0.118 HD
ATOM     15  H   UNL     1      10.791  -5.851  26.242  0.00  0.00    +0.118 HD
ENDBRANCH  12  13
ENDBRANCH  11  12
ENDBRANCH   5  11
TORSDOF 5
ENDMDL
MODEL 4
REMARK VINA RESULT:      -4.7      4.219      6.519
REMARK  Name = 
REMARK  6 active torsions:
REMARK  status: ('A' for Active; 'I' for Inactive)
REMARK    1  A    between atoms: C_1  and  C_2
REMARK    2  A    between atoms: C_2  and  C_3
REMARK    3  A    between atoms: C_5  and  C_6
REMARK    4  A    between atoms: C_6  and  C_7
REMARK    5  A    between atoms: C_7  and  N_8
REMARK    6  A    between atoms: C_11  and  O_12
REMARK                            x       y       z     vdW  Elec       q    Type
REMARK                         _______ _______ _______ _____ _____    ______ ____
ROOT
ATOM      1  C   UNL     1       9.805   2.603  23.806  0.00  0.00    -0.006 A 
ATOM      2  C   UNL     1       8.732   3.050  24.583  0.00  0.00    +0.120 A 
ATOM      3  C   UNL     1       8.637   4.382  24.984  0.00  0.00    +0.046 A 
ATOM      4  C   UNL     1       9.631   5.289  24.613  0.00  0.00    +0.007 A 
ATOM      5  C   UNL     1      10.720   4.870  23.840  0.00  0.00    -0.046 A 
ATOM      6  C   UNL     1      10.786   3.531  23.421  0.00  0.00    +0.011 A 
ENDROOT
BRANCH   1   8
ATOM      7  C   UNL     1       9.960   0.972  21.887  0.00  0.00    +0.009 C 
ATOM      8  C   UNL     1       9.932   1.155  23.395  0.00  0.00    +0.035 C 
ENDBRANCH   1   8
BRANCH   2   9
ATOM      9  O   UNL     1       7.769   2.156  24.960  0.00  0.00    -0.506 OA
ATOM     10  H   UNL     1       6.994   2.271  24.387  0.00  0.00    +0.292 HD
ENDBRANCH   2   9
BRANCH   5  11
ATOM     11  C   UNL     1      11.820   5.842  23.483  0.00  0.00    +0.050 C 
BRANCH  11  12
ATOM     12  C   UNL     1      12.832   5.259  22.492  0.00  0.00    +0.082 C 
BRANCH  12  13
ATOM     13  N   UNL     1      14.153   5.145  23.111  0.00  0.00    -0.330 NA
ATOM     14  H   UNL     1      14.328   4.171  23.357  0.00  0.00    +0.118 HD
ATOM     15  H   UNL     1      14.873   5.397  22.434  0.00  0.00    +0.118 HD
ENDBRANCH  12  13
ENDBRANCH  11  12
ENDBRANCH   5  11
TORSDOF 5
ENDMDL
MODEL 5
REMARK VINA RESULT:      -4.6      4.055      6.627
REMARK  Name = 
REMARK  6 active torsions:
REMARK  status: ('A' for Active; 'I' for Inactive)
REMARK    1  A    between atoms: C_1  and  C_2
REMARK    2  A    between atoms: C_2  and  C_3
REMARK    3  A    between atoms: C_5  and  C_6
REMARK    4  A    between atoms: C_6  and  C_7
REMARK    5  A    between atoms: C_7  and  N_8
REMARK    6  A    between atoms: C_11  and  O_12
REMARK                            x       y       z     vdW  Elec       q    Type
REMARK                         _______ _______ _______ _____ _____    ______ ____
ROOT
ATOM      1  C   UNL     1       6.819  -5.200  25.523  0.00  0.00    -0.006 A 
ATOM      2  C   UNL     1       7.932  -5.216  26.372  0.00  0.00    +0.120 A 
ATOM      3  C   UNL     1       9.095  -4.519  26.049  0.00  0.00    +0.046 A 
ATOM      4  C   UNL     1       9.161  -3.797  24.858  0.00  0.00    +0.007 A 
ATOM      5  C   UNL     1       8.067  -3.765  23.986  0.00  0.00    -0.046 A 
ATOM      6  C   UNL     1       6.892  -4.450  24.338  0.00  0.00    +0.011 A 
ENDROOT
BRANCH   1   8
ATOM      7  C   UNL     1       4.849  -6.484  24.609  0.00  0.00    +0.009 C 
ATOM      8  C   UNL     1       5.567  -5.979  25.849  0.00  0.00    +0.035 C 
ENDBRANCH   1   8
BRANCH   2   9
ATOM      9  O   UNL     1       7.870  -5.940  27.530  0.00  0.00    -0.506 OA
ATOM     10  H   UNL     1       8.255  -5.412  28.248  0.00  0.00    +0.292 HD
ENDBRANCH   2   9
BRANCH   5  11
ATOM     11  C   UNL     1       8.159  -3.024  22.672  0.00  0.00    +0.050 C 
BRANCH  11  12
ATOM     12  C   UNL     1       8.980  -1.734  22.771  0.00  0.00    +0.082 C 
BRANCH  12  13
ATOM     13  N   UNL     1       9.968  -1.667  21.695  0.00  0.00    -0.330 NA
ATOM     14  H   UNL     1      10.858  -1.343  22.072  0.00  0.00    +0.118 HD
ATOM     15  H   UNL     1      10.142  -2.603  21.329  0.00  0.00    +0.118 HD
ENDBRANCH  12  13
ENDBRANCH  11  12
ENDBRANCH   5  11
TORSDOF 5
ENDMDL
MODEL 6
REMARK VINA RESULT:      -4.6      1.868      2.501
REMARK  Name = 
REMARK  6 active torsions:
REMARK  status: ('A' for Active; 'I' for Inactive)
REMARK    1  A    between atoms: C_1  and  C_2
REMARK    2  A    between atoms: C_2  and  C_3
REMARK    3  A    between atoms: C_5  and  C_6
REMARK    4  A    between atoms: C_6  and  C_7
REMARK    5  A    between atoms: C_7  and  N_8
REMARK    6  A    between atoms: C_11  and  O_12
REMARK                            x       y       z     vdW  Elec       q    Type
REMARK                         _______ _______ _______ _____ _____    ______ ____
ROOT
ATOM      1  C   UNL     1       9.686  -0.953  23.591  0.00  0.00    -0.006 A 
ATOM      2  C   UNL     1       9.215  -1.585  22.435  0.00  0.00    +0.120 A 
ATOM      3  C   UNL     1       8.431  -2.735  22.509  0.00  0.00    +0.046 A 
ATOM      4  C   UNL     1       8.114  -3.277  23.755  0.00  0.00    +0.007 A 
ATOM      5  C   UNL     1       8.573  -2.670  24.930  0.00  0.00    -0.046 A 
ATOM      6  C   UNL     1       9.338  -1.496  24.838  0.00  0.00    +0.011 A 
ENDROOT
BRANCH   1   8
ATOM      7  C   UNL     1      10.067   1.404  24.406  0.00  0.00    +0.009 C 
ATOM      8  C   UNL     1      10.562   0.275  23.518  0.00  0.00    +0.035 C 
ENDBRANCH   1   8
BRANCH   2   9
ATOM      9  O   UNL     1       9.543  -1.063  21.215  0.00  0.00    -0.506 OA
ATOM     10  H   UNL     1       8.726  -0.877  20.724  0.00  0.00    +0.292 HD
ENDBRANCH   2   9
BRANCH   5  11
ATOM     11  C   UNL     1       8.271  -3.287  26.275  0.00  0.00    +0.050 C 
BRANCH  11  12
ATOM     12  C   UNL     1       8.969  -4.635  26.484  0.00  0.00    +0.082 C 
BRANCH  12  13
ATOM     13  N   UNL     1       8.079  -5.578  27.161  0.00  0.00    -0.330 NA
ATOM     14  H   UNL     1       8.378  -6.532  26.956  0.00  0.00    +0.118 HD
ATOM     15  H   UNL     1       8.165  -5.467  28.171  0.00  0.00    +0.118 HD
ENDBRANCH  12  13
ENDBRANCH  11  12
ENDBRANCH   5  11
TORSDOF 5
ENDMDL
MODEL 7
REMARK VINA RESULT:      -4.5      5.910      7.290
REMARK  Name = 
REMARK  6 active torsions:
REMARK  status: ('A' for Active; 'I' for Inactive)
REMARK    1  A    between atoms: C_1  and  C_2
REMARK    2  A    between atoms: C_2  and  C_3
REMARK    3  A    between atoms: C_5  and  C_6
REMARK    4  A    between atoms: C_6  and  C_7
REMARK    5  A    between atoms: C_7  and  N_8
REMARK    6  A    between atoms: C_11  and  O_12
REMARK                            x       y       z     vdW  Elec       q    Type
REMARK                         _______ _______ _______ _____ _____    ______ ____
ROOT
ATOM      1  C   UNL     1       5.780  -5.410  23.585  0.00  0.00    -0.006 A 
ATOM      2  C   UNL     1       4.714  -6.211  24.007  0.00  0.00    +0.120 A 
ATOM      3  C   UNL     1       4.615  -6.641  25.329  0.00  0.00    +0.046 A 
ATOM      4  C   UNL     1       5.595  -6.277  26.251  0.00  0.00    +0.007 A 
ATOM      5  C   UNL     1       6.677  -5.479  25.859  0.00  0.00    -0.046 A 
ATOM      6  C   UNL     1       6.748  -5.031  24.530  0.00  0.00    +0.011 A 
ENDROOT
BRANCH   1   8
ATOM      7  C   UNL     1       6.844  -5.855  21.340  0.00  0.00    +0.009 C 
ATOM      8  C   UNL     1       5.914  -4.966  22.147  0.00  0.00    +0.035 C 
ENDBRANCH   1   8
BRANCH   2   9
ATOM      9  O   UNL     1       3.765  -6.583  23.096  0.00  0.00    -0.506 OA
ATOM     10  H   UNL     1       3.895  -6.070  22.282  0.00  0.00    +0.292 HD
ENDBRANCH   2   9
BRANCH   5  11
ATOM     11  C   UNL     1       7.764  -5.128  26.847  0.00  0.00    +0.050 C 
BRANCH  11  12
ATOM     12  C   UNL     1       8.986  -4.484  26.185  0.00  0.00    +0.082 C 
BRANCH  12  13
ATOM     13  N   UNL     1      10.006  -5.491  25.895  0.00  0.00    -0.330 NA
ATOM     14  H   UNL     1      10.840  -5.297  26.450  0.00  0.00    +0.118 HD
ATOM     15  H   UNL     1       9.677  -6.409  26.192  0.00  0.00    +0.118 HD
ENDBRANCH  12  13
ENDBRANCH  11  12
ENDBRANCH   5  11
TORSDOF 5
ENDMDL
MODEL 8
REMARK VINA RESULT:      -4.5      5.083      6.528
REMARK  Name = 
REMARK  6 active torsions:
REMARK  status: ('A' for Active; 'I' for Inactive)
REMARK    1  A    between atoms: C_1  and  C_2
REMARK    2  A    between atoms: C_2  and  C_3
REMARK    3  A    between atoms: C_5  and  C_6
REMARK    4  A    between atoms: C_6  and  C_7
REMARK    5  A    between atoms: C_7  and  N_8
REMARK    6  A    between atoms: C_11  and  O_12
REMARK                            x       y       z     vdW  Elec       q    Type
REMARK                         _______ _______ _______ _____ _____    ______ ____
ROOT
ATOM      1  C   UNL     1       7.633  -4.654  24.119  0.00  0.00    -0.006 A 
ATOM      2  C   UNL     1       8.775  -4.396  24.885  0.00  0.00    +0.120 A 
ATOM      3  C   UNL     1       8.813  -4.697  26.245  0.00  0.00    +0.046 A 
ATOM      4  C   UNL     1       7.695  -5.258  26.862  0.00  0.00    +0.007 A 
ATOM      5  C   UNL     1       6.537  -5.525  26.124  0.00  0.00    -0.046 A 
ATOM      6  C   UNL     1       6.523  -5.241  24.748  0.00  0.00    +0.011 A 
ENDROOT
BRANCH   1   8
ATOM      7  C   UNL     1       7.095  -5.458  21.788  0.00  0.00    +0.009 C 
ATOM      8  C   UNL     1       7.571  -4.302  22.651  0.00  0.00    +0.035 C 
ENDBRANCH   1   8
BRANCH   2   9
ATOM      9  O   UNL     1       9.862  -3.828  24.282  0.00  0.00    -0.506 OA
ATOM     10  H   UNL     1       9.553  -3.184  23.624  0.00  0.00    +0.292 HD
ENDBRANCH   2   9
BRANCH   5  11
ATOM     11  C   UNL     1       5.310  -6.085  26.804  0.00  0.00    +0.050 C 
BRANCH  11  12
ATOM     12  C   UNL     1       5.465  -6.185  28.325  0.00  0.00    +0.082 C 
BRANCH  12  13
ATOM     13  N   UNL     1       5.534  -7.584  28.746  0.00  0.00    -0.330 NA
ATOM     14  H   UNL     1       4.667  -7.838  29.220  0.00  0.00    +0.118 HD
ATOM     15  H   UNL     1       5.593  -8.188  27.926  0.00  0.00    +0.118 HD
ENDBRANCH  12  13
ENDBRANCH  11  12
ENDBRANCH   5  11
TORSDOF 5
ENDMDL
MODEL 9
REMARK VINA RESULT:      -4.5      5.186      6.942
REMARK  Name = 
REMARK  6 active torsions:
REMARK  status: ('A' for Active; 'I' for Inactive)
REMARK    1  A    between atoms: C_1  and  C_2
REMARK    2  A    between atoms: C_2  and  C_3
REMARK    3  A    between atoms: C_5  and  C_6
REMARK    4  A    between atoms: C_6  and  C_7
REMARK    5  A    between atoms: C_7  and  N_8
REMARK    6  A    between atoms: C_11  and  O_12
REMARK                            x       y       z     vdW  Elec       q    Type
REMARK                         _______ _______ _______ _____ _____    ______ ____
ROOT
ATOM      1  C   UNL     1       6.532  -5.434  25.758  0.00  0.00    -0.006 A 
ATOM      2  C   UNL     1       7.731  -5.392  26.479  0.00  0.00    +0.120 A 
ATOM      3  C   UNL     1       8.855  -4.745  25.971  0.00  0.00    +0.046 A 
ATOM      4  C   UNL     1       8.796  -4.133  24.719  0.00  0.00    +0.007 A 
ATOM      5  C   UNL     1       7.613  -4.162  23.971  0.00  0.00    -0.046 A 
ATOM      6  C   UNL     1       6.480  -4.794  24.510  0.00  0.00    +0.011 A 
ENDROOT
BRANCH   1   8
ATOM      7  C   UNL     1       4.544  -6.883  25.197  0.00  0.00    +0.009 C 
ATOM      8  C   UNL     1       5.318  -6.161  26.287  0.00  0.00    +0.035 C 
ENDBRANCH   1   8
BRANCH   2   9
ATOM      9  O   UNL     1       7.792  -6.009  27.698  0.00  0.00    -0.506 OA
ATOM     10  H   UNL     1       7.475  -5.391  28.376  0.00  0.00    +0.292 HD
ENDBRANCH   2   9
BRANCH   5  11
ATOM     11  C   UNL     1       7.565  -3.543  22.594  0.00  0.00    +0.050 C 
BRANCH  11  12
ATOM     12  C   UNL     1       6.168  -3.047  22.211  0.00  0.00    +0.082 C 
BRANCH  12  13
ATOM     13  N   UNL     1       5.637  -3.817  21.086  0.00  0.00    -0.330 NA
ATOM     14  H   UNL     1       6.102  -4.724  21.048  0.00  0.00    +0.118 HD
ATOM     15  H   UNL     1       4.648  -4.013  21.239  0.00  0.00    +0.118 HD
ENDBRANCH  12  13
ENDBRANCH  11  12
ENDBRANCH   5  11
TORSDOF 5
ENDMDL
