MODEL 1
REMARK VINA RESULT:      -6.9      0.000      0.000
REMARK  Name = 
REMARK  7 active torsions:
REMARK  status: ('A' for Active; 'I' for Inactive)
REMARK    1  A    between atoms: C_1  and  N_2
REMARK    2  A    between atoms: C_9  and  O_11
REMARK    3  A    between atoms: O_11  and  C_12
REMARK    4  A    between atoms: C_12  and  C_14
REMARK    5  A    between atoms: C_14  and  O_15
REMARK    6  A    between atoms: C_14  and  C_16
REMARK    7  A    between atoms: C_14  and  C_22
REMARK                            x       y       z     vdW  Elec       q    Type
REMARK                         _______ _______ _______ _____ _____    ______ ____
ROOT
ATOM      1  C   UNL     1       8.582  -4.069  24.729  0.00  0.00    +0.213 C 
ENDROOT
BRANCH   1   2
ATOM      2  C   UNL     1       9.032  -2.595  24.739  0.00  0.00    -0.001 A 
ATOM      3  C   UNL     1       9.889  -2.043  23.771  0.00  0.00    +0.007 A 
ATOM      4  C   UNL     1      10.258  -0.691  23.815  0.00  0.00    +0.000 A 
ATOM      5  C   UNL     1       9.791   0.135  24.839  0.00  0.00    +0.000 A 
ATOM      6  C   UNL     1       8.975  -0.397  25.829  0.00  0.00    +0.000 A 
ATOM      7  C   UNL     1       8.610  -1.745  25.785  0.00  0.00    +0.007 A 
ENDBRANCH   1   2
BRANCH   1   8
ATOM      8  C   UNL     1       7.720  -4.405  23.497  0.00  0.00    -0.001 A 
ATOM      9  C   UNL     1       7.729  -5.696  22.930  0.00  0.00    +0.007 A 
ATOM     10  C   UNL     1       6.958  -6.007  21.807  0.00  0.00    +0.000 A 
ATOM     11  C   UNL     1       6.160  -5.034  21.225  0.00  0.00    +0.000 A 
ATOM     12  C   UNL     1       6.131  -3.746  21.760  0.00  0.00    +0.000 A 
ATOM     13  C   UNL     1       6.908  -3.435  22.883  0.00  0.00    +0.007 A 
ENDBRANCH   1   8
BRANCH   1  14
ATOM     14  C   UNL     1       7.848  -4.529  26.060  0.00  0.00    +0.349 C 
ATOM     15  O   UNL     1       8.365  -4.915  27.098  0.00  0.00    -0.247 OA
BRANCH  14  16
ATOM     16  O   UNL     1       6.489  -4.433  25.894  0.00  0.00    -0.453 OA
BRANCH  16  20
ATOM     17  C   UNL     1       1.982  -5.000  27.851  0.00  0.00    +0.192 C 
ATOM     18  N   UNL     1       3.018  -5.376  26.803  0.00  0.00    +0.244 N 
ATOM     19  C   UNL     1       4.443  -5.098  27.362  0.00  0.00    +0.178 C 
ATOM     20  C   UNL     1       5.501  -5.431  26.281  0.00  0.00    +0.225 C 
ATOM     21  C   UNL     1       4.792  -5.978  25.023  0.00  0.00    +0.045 C 
ATOM     22  C   UNL     1       3.829  -4.912  24.483  0.00  0.00    +0.058 C 
ATOM     23  C   UNL     1       3.962  -7.214  25.415  0.00  0.00    +0.058 C 
ATOM     24  C   UNL     1       2.780  -4.543  25.532  0.00  0.00    +0.133 C 
ATOM     25  C   UNL     1       2.894  -6.863  26.452  0.00  0.00    +0.133 C 
ENDBRANCH  16  20
ENDBRANCH  14  16
ENDBRANCH   1  14
BRANCH   1  26
ATOM     26  O   UNL     1       9.797  -4.855  24.627  0.00  0.00    -0.370 OA
ATOM     27  H   UNL     1      10.398  -4.369  24.036  0.00  0.00    +0.212 HD
ENDBRANCH   1  26
TORSDOF 6
ENDMDL
MODEL 2
REMARK VINA RESULT:      -6.9      2.691      6.757
REMARK  Name = 
REMARK  7 active torsions:
REMARK  status: ('A' for Active; 'I' for Inactive)
REMARK    1  A    between atoms: C_1  and  N_2
REMARK    2  A    between atoms: C_9  and  O_11
REMARK    3  A    between atoms: O_11  and  C_12
REMARK    4  A    between atoms: C_12  and  C_14
REMARK    5  A    between atoms: C_14  and  O_15
REMARK    6  A    between atoms: C_14  and  C_16
REMARK    7  A    between atoms: C_14  and  C_22
REMARK                            x       y       z     vdW  Elec       q    Type
REMARK                         _______ _______ _______ _____ _____    ______ ____
ROOT
ATOM      1  C   UNL     1       6.175  -4.932  23.265  0.00  0.00    +0.213 C 
ENDROOT
BRANCH   1   2
ATOM      2  C   UNL     1       4.795  -5.423  23.743  0.00  0.00    -0.001 A 
ATOM      3  C   UNL     1       3.661  -4.594  23.811  0.00  0.00    +0.007 A 
ATOM      4  C   UNL     1       2.423  -5.091  24.240  0.00  0.00    +0.000 A 
ATOM      5  C   UNL     1       2.294  -6.427  24.627  0.00  0.00    +0.000 A 
ATOM      6  C   UNL     1       3.408  -7.255  24.606  0.00  0.00    +0.000 A 
ATOM      7  C   UNL     1       4.643  -6.758  24.180  0.00  0.00    +0.007 A 
ENDBRANCH   1   2
BRANCH   1   8
ATOM      8  C   UNL     1       7.188  -4.833  24.422  0.00  0.00    -0.001 A 
ATOM      9  C   UNL     1       8.510  -5.299  24.275  0.00  0.00    +0.007 A 
ATOM     10  C   UNL     1       9.433  -5.221  25.322  0.00  0.00    +0.000 A 
ATOM     11  C   UNL     1       9.054  -4.676  26.540  0.00  0.00    +0.000 A 
ATOM     12  C   UNL     1       7.752  -4.209  26.717  0.00  0.00    +0.000 A 
ATOM     13  C   UNL     1       6.828  -4.291  25.668  0.00  0.00    +0.007 A 
ENDBRANCH   1   8
BRANCH   1  14
ATOM     14  C   UNL     1       6.129  -3.569  22.451  0.00  0.00    +0.349 C 
ATOM     15  O   UNL     1       5.655  -3.383  21.339  0.00  0.00    -0.247 OA
BRANCH  14  16
ATOM     16  O   UNL     1       6.715  -2.571  23.188  0.00  0.00    -0.453 OA
BRANCH  16  20
ATOM     17  C   UNL     1       8.966   1.634  24.498  0.00  0.00    +0.192 C 
ATOM     18  N   UNL     1       8.934   0.365  23.661  0.00  0.00    +0.244 N 
ATOM     19  C   UNL     1       7.458  -0.091  23.470  0.00  0.00    +0.178 C 
ATOM     20  C   UNL     1       7.422  -1.411  22.662  0.00  0.00    +0.225 C 
ATOM     21  C   UNL     1       8.861  -1.811  22.269  0.00  0.00    +0.045 C 
ATOM     22  C   UNL     1       9.692  -2.015  23.541  0.00  0.00    +0.058 C 
ATOM     23  C   UNL     1       9.496  -0.661  21.464  0.00  0.00    +0.058 C 
ATOM     24  C   UNL     1       9.735  -0.736  24.377  0.00  0.00    +0.133 C 
ATOM     25  C   UNL     1       9.564   0.625  22.288  0.00  0.00    +0.133 C 
ENDBRANCH  16  20
ENDBRANCH  14  16
ENDBRANCH   1  14
BRANCH   1  26
ATOM     26  O   UNL     1       6.665  -5.948  22.354  0.00  0.00    -0.370 OA
ATOM     27  H   UNL     1       7.432  -5.567  21.893  0.00  0.00    +0.212 HD
ENDBRANCH   1  26
TORSDOF 6
ENDMDL
MODEL 3
REMARK VINA RESULT:      -6.8      4.219      7.415
REMARK  Name = 
REMARK  7 active torsions:
REMARK  status: ('A' for Active; 'I' for Inactive)
REMARK    1  A    between atoms: C_1  and  N_2
REMARK    2  A    between atoms: C_9  and  O_11
REMARK    3  A    between atoms: O_11  and  C_12
REMARK    4  A    between atoms: C_12  and  C_14
REMARK    5  A    between atoms: C_14  and  O_15
REMARK    6  A    between atoms: C_14  and  C_16
REMARK    7  A    between atoms: C_14  and  C_22
REMARK                            x       y       z     vdW  Elec       q    Type
REMARK                         _______ _______ _______ _____ _____    ______ ____
ROOT
ATOM      1  C   UNL     1       9.093   2.175  23.789  0.00  0.00    +0.213 C 
ENDROOT
BRANCH   1   2
ATOM      2  C   UNL     1       7.585   2.461  23.651  0.00  0.00    -0.001 A 
ATOM      3  C   UNL     1       6.991   2.919  22.461  0.00  0.00    +0.007 A 
ATOM      4  C   UNL     1       5.612   3.153  22.382  0.00  0.00    +0.000 A 
ATOM      5  C   UNL     1       4.796   2.949  23.497  0.00  0.00    +0.000 A 
ATOM      6  C   UNL     1       5.365   2.535  24.694  0.00  0.00    +0.000 A 
ATOM      7  C   UNL     1       6.740   2.305  24.773  0.00  0.00    +0.007 A 
ENDBRANCH   1   2
BRANCH   1   8
ATOM      8  C   UNL     1       9.936   3.464  23.737  0.00  0.00    -0.001 A 
ATOM      9  C   UNL     1      11.289   3.436  23.342  0.00  0.00    +0.007 A 
ATOM     10  C   UNL     1      12.063   4.599  23.301  0.00  0.00    +0.000 A 
ATOM     11  C   UNL     1      11.502   5.817  23.657  0.00  0.00    +0.000 A 
ATOM     12  C   UNL     1      10.167   5.877  24.056  0.00  0.00    +0.000 A 
ATOM     13  C   UNL     1       9.393   4.710  24.099  0.00  0.00    +0.007 A 
ENDBRANCH   1   8
BRANCH   1  14
ATOM     14  C   UNL     1       9.645   1.112  22.747  0.00  0.00    +0.349 C 
ATOM     15  O   UNL     1       9.798   1.260  21.543  0.00  0.00    -0.247 OA
BRANCH  14  16
ATOM     16  O   UNL     1       9.949  -0.058  23.398  0.00  0.00    -0.453 OA
BRANCH  16  20
ATOM     17  C   UNL     1       9.214  -4.594  25.229  0.00  0.00    +0.192 C 
ATOM     18  N   UNL     1       8.721  -3.409  24.412  0.00  0.00    +0.244 N 
ATOM     19  C   UNL     1       9.943  -2.622  23.856  0.00  0.00    +0.178 C 
ATOM     20  C   UNL     1       9.449  -1.385  23.065  0.00  0.00    +0.225 C 
ATOM     21  C   UNL     1       7.905  -1.372  23.048  0.00  0.00    +0.045 C 
ATOM     22  C   UNL     1       7.386  -1.296  24.489  0.00  0.00    +0.058 C 
ATOM     23  C   UNL     1       7.402  -2.689  22.429  0.00  0.00    +0.058 C 
ATOM     24  C   UNL     1       7.870  -2.493  25.307  0.00  0.00    +0.133 C 
ATOM     25  C   UNL     1       7.861  -3.899  23.242  0.00  0.00    +0.133 C 
ENDBRANCH  16  20
ENDBRANCH  14  16
ENDBRANCH   1  14
BRANCH   1  26
ATOM     26  O   UNL     1       9.270   1.601  25.108  0.00  0.00    -0.370 OA
ATOM     27  H   UNL     1      10.206   1.721  25.344  0.00  0.00    +0.212 HD
ENDBRANCH   1  26
TORSDOF 6
ENDMDL
MODEL 4
REMARK VINA RESULT:      -6.7      4.269      6.775
REMARK  Name = 
REMARK  7 active torsions:
REMARK  status: ('A' for Active; 'I' for Inactive)
REMARK    1  A    between atoms: C_1  and  N_2
REMARK    2  A    between atoms: C_9  and  O_11
REMARK    3  A    between atoms: O_11  and  C_12
REMARK    4  A    between atoms: C_12  and  C_14
REMARK    5  A    between atoms: C_14  and  O_15
REMARK    6  A    between atoms: C_14  and  C_16
REMARK    7  A    between atoms: C_14  and  C_22
REMARK                            x       y       z     vdW  Elec       q    Type
REMARK                         _______ _______ _______ _____ _____    ______ ____
ROOT
ATOM      1  C   UNL     1       9.670   2.409  23.002  0.00  0.00    +0.213 C 
ENDROOT
BRANCH   1   2
ATOM      2  C   UNL     1      10.405   3.707  23.388  0.00  0.00    -0.001 A 
ATOM      3  C   UNL     1       9.759   4.824  23.948  0.00  0.00    +0.007 A 
ATOM      4  C   UNL     1      10.475   5.978  24.295  0.00  0.00    +0.000 A 
ATOM      5  C   UNL     1      11.852   6.048  24.075  0.00  0.00    +0.000 A 
ATOM      6  C   UNL     1      12.506   4.973  23.487  0.00  0.00    +0.000 A 
ATOM      7  C   UNL     1      11.791   3.824  23.139  0.00  0.00    +0.007 A 
ENDBRANCH   1   2
BRANCH   1   8
ATOM      8  C   UNL     1       8.150   2.512  23.235  0.00  0.00    -0.001 A 
ATOM      9  C   UNL     1       7.264   2.753  22.165  0.00  0.00    +0.007 A 
ATOM     10  C   UNL     1       5.885   2.857  22.368  0.00  0.00    +0.000 A 
ATOM     11  C   UNL     1       5.361   2.724  23.645  0.00  0.00    +0.000 A 
ATOM     12  C   UNL     1       6.213   2.489  24.725  0.00  0.00    +0.000 A 
ATOM     13  C   UNL     1       7.594   2.388  24.520  0.00  0.00    +0.007 A 
ENDBRANCH   1   8
BRANCH   1  14
ATOM     14  C   UNL     1      10.249   1.107  23.702  0.00  0.00    +0.349 C 
ATOM     15  O   UNL     1      10.821   1.035  24.780  0.00  0.00    -0.247 OA
BRANCH  14  16
ATOM     16  O   UNL     1      10.018   0.013  22.907  0.00  0.00    -0.453 OA
BRANCH  16  20
ATOM     17  C   UNL     1       7.442  -2.277  26.455  0.00  0.00    +0.192 C 
ATOM     18  N   UNL     1       7.773  -2.089  24.982  0.00  0.00    +0.244 N 
ATOM     19  C   UNL     1       9.220  -1.533  24.845  0.00  0.00    +0.178 C 
ATOM     20  C   UNL     1       9.544  -1.291  23.350  0.00  0.00    +0.225 C 
ATOM     21  C   UNL     1       8.341  -1.730  22.487  0.00  0.00    +0.045 C 
ATOM     22  C   UNL     1       7.110  -0.904  22.882  0.00  0.00    +0.058 C 
ATOM     23  C   UNL     1       8.034  -3.211  22.776  0.00  0.00    +0.058 C 
ATOM     24  C   UNL     1       6.770  -1.103  24.359  0.00  0.00    +0.133 C 
ATOM     25  C   UNL     1       7.674  -3.430  24.246  0.00  0.00    +0.133 C 
ENDBRANCH  16  20
ENDBRANCH  14  16
ENDBRANCH   1  14
BRANCH   1  26
ATOM     26  O   UNL     1       9.874   2.245  21.576  0.00  0.00    -0.370 OA
ATOM     27  H   UNL     1       9.259   1.552  21.281  0.00  0.00    +0.212 HD
ENDBRANCH   1  26
TORSDOF 6
ENDMDL
MODEL 5
REMARK VINA RESULT:      -6.5      4.360      6.940
REMARK  Name = 
REMARK  7 active torsions:
REMARK  status: ('A' for Active; 'I' for Inactive)
REMARK    1  A    between atoms: C_1  and  N_2
REMARK    2  A    between atoms: C_9  and  O_11
REMARK    3  A    between atoms: O_11  and  C_12
REMARK    4  A    between atoms: C_12  and  C_14
REMARK    5  A    between atoms: C_14  and  O_15
REMARK    6  A    between atoms: C_14  and  C_16
REMARK    7  A    between atoms: C_14  and  C_22
REMARK                            x       y       z     vdW  Elec       q    Type
REMARK                         _______ _______ _______ _____ _____    ______ ____
ROOT
ATOM      1  C   UNL     1       9.413   2.492  23.080  0.00  0.00    +0.213 C 
ENDROOT
BRANCH   1   2
ATOM      2  C   UNL     1      10.235   3.748  23.429  0.00  0.00    -0.001 A 
ATOM      3  C   UNL     1       9.673   4.906  23.994  0.00  0.00    +0.007 A 
ATOM      4  C   UNL     1      10.466   6.019  24.307  0.00  0.00    +0.000 A 
ATOM      5  C   UNL     1      11.838   6.005  24.047  0.00  0.00    +0.000 A 
ATOM      6  C   UNL     1      12.409   4.887  23.453  0.00  0.00    +0.000 A 
ATOM      7  C   UNL     1      11.618   3.779  23.139  0.00  0.00    +0.007 A 
ENDBRANCH   1   2
BRANCH   1   8
ATOM      8  C   UNL     1       7.902   2.712  23.283  0.00  0.00    -0.001 A 
ATOM      9  C   UNL     1       7.054   2.997  22.194  0.00  0.00    +0.007 A 
ATOM     10  C   UNL     1       5.683   3.207  22.370  0.00  0.00    +0.000 A 
ATOM     11  C   UNL     1       5.130   3.140  23.640  0.00  0.00    +0.000 A 
ATOM     12  C   UNL     1       5.944   2.863  24.739  0.00  0.00    +0.000 A 
ATOM     13  C   UNL     1       7.318   2.656  24.561  0.00  0.00    +0.007 A 
ENDBRANCH   1   8
BRANCH   1  14
ATOM     14  C   UNL     1       9.888   1.180  23.837  0.00  0.00    +0.349 C 
ATOM     15  O   UNL     1      10.444   1.108  24.924  0.00  0.00    -0.247 OA
BRANCH  14  16
ATOM     16  O   UNL     1       9.580   0.074  23.084  0.00  0.00    -0.453 OA
BRANCH  16  20
ATOM     17  C   UNL     1       7.401  -4.305  22.347  0.00  0.00    +0.192 C 
ATOM     18  N   UNL     1       7.505  -3.001  23.124  0.00  0.00    +0.244 N 
ATOM     19  C   UNL     1       8.129  -1.905  22.212  0.00  0.00    +0.178 C 
ATOM     20  C   UNL     1       8.285  -0.589  23.013  0.00  0.00    +0.225 C 
ATOM     21  C   UNL     1       7.721  -0.786  24.436  0.00  0.00    +0.045 C 
ATOM     22  C   UNL     1       8.502  -1.904  25.138  0.00  0.00    +0.058 C 
ATOM     23  C   UNL     1       6.248  -1.225  24.333  0.00  0.00    +0.058 C 
ATOM     24  C   UNL     1       8.387  -3.217  24.365  0.00  0.00    +0.133 C 
ATOM     25  C   UNL     1       6.113  -2.547  23.577  0.00  0.00    +0.133 C 
ENDBRANCH  16  20
ENDBRANCH  14  16
ENDBRANCH   1  14
BRANCH   1  26
ATOM     26  O   UNL     1       9.625   2.259  21.665  0.00  0.00    -0.370 OA
ATOM     27  H   UNL     1       9.342   3.066  21.201  0.00  0.00    +0.212 HD
ENDBRANCH   1  26
TORSDOF 6
ENDMDL
MODEL 6
REMARK VINA RESULT:      -6.4      3.501      6.350
REMARK  Name = 
REMARK  7 active torsions:
REMARK  status: ('A' for Active; 'I' for Inactive)
REMARK    1  A    between atoms: C_1  and  N_2
REMARK    2  A    between atoms: C_9  and  O_11
REMARK    3  A    between atoms: O_11  and  C_12
REMARK    4  A    between atoms: C_12  and  C_14
REMARK    5  A    between atoms: C_14  and  O_15
REMARK    6  A    between atoms: C_14  and  C_16
REMARK    7  A    between atoms: C_14  and  C_22
REMARK                            x       y       z     vdW  Elec       q    Type
REMARK                         _______ _______ _______ _____ _____    ______ ____
ROOT
ATOM      1  C   UNL     1       9.192   1.277  23.544  0.00  0.00    +0.213 C 
ENDROOT
BRANCH   1   2
ATOM      2  C   UNL     1       8.656   0.704  24.871  0.00  0.00    -0.001 A 
ATOM      3  C   UNL     1       7.419   1.074  25.428  0.00  0.00    +0.007 A 
ATOM      4  C   UNL     1       6.969   0.514  26.632  0.00  0.00    +0.000 A 
ATOM      5  C   UNL     1       7.754  -0.417  27.315  0.00  0.00    +0.000 A 
ATOM      6  C   UNL     1       8.996  -0.769  26.804  0.00  0.00    +0.000 A 
ATOM      7  C   UNL     1       9.446  -0.209  25.606  0.00  0.00    +0.007 A 
ENDBRANCH   1   2
BRANCH   1   8
ATOM      8  C   UNL     1       8.720   2.724  23.304  0.00  0.00    -0.001 A 
ATOM      9  C   UNL     1       7.622   3.003  22.466  0.00  0.00    +0.007 A 
ATOM     10  C   UNL     1       7.193   4.313  22.235  0.00  0.00    +0.000 A 
ATOM     11  C   UNL     1       7.854   5.374  22.837  0.00  0.00    +0.000 A 
ATOM     12  C   UNL     1       8.946   5.130  23.669  0.00  0.00    +0.000 A 
ATOM     13  C   UNL     1       9.377   3.817  23.896  0.00  0.00    +0.007 A 
ENDBRANCH   1   8
BRANCH   1  14
ATOM     14  C   UNL     1       8.874   0.374  22.277  0.00  0.00    +0.349 C 
ATOM     15  O   UNL     1       9.438   0.391  21.192  0.00  0.00    -0.247 OA
BRANCH  14  16
ATOM     16  O   UNL     1       7.834  -0.474  22.563  0.00  0.00    -0.453 OA
BRANCH  16  20
ATOM     17  C   UNL     1       9.045  -4.684  24.861  0.00  0.00    +0.192 C 
ATOM     18  N   UNL     1       8.064  -3.876  24.025  0.00  0.00    +0.244 N 
ATOM     19  C   UNL     1       8.837  -2.782  23.234  0.00  0.00    +0.178 C 
ATOM     20  C   UNL     1       7.838  -1.924  22.420  0.00  0.00    +0.225 C 
ATOM     21  C   UNL     1       6.409  -2.472  22.624  0.00  0.00    +0.045 C 
ATOM     22  C   UNL     1       6.048  -2.399  24.113  0.00  0.00    +0.058 C 
ATOM     23  C   UNL     1       6.376  -3.951  22.198  0.00  0.00    +0.058 C 
ATOM     24  C   UNL     1       7.026  -3.220  24.952  0.00  0.00    +0.133 C 
ATOM     25  C   UNL     1       7.337  -4.795  23.037  0.00  0.00    +0.133 C 
ENDBRANCH  16  20
ENDBRANCH  14  16
ENDBRANCH   1  14
BRANCH   1  26
ATOM     26  O   UNL     1      10.635   1.314  23.681  0.00  0.00    -0.370 OA
ATOM     27  H   UNL     1      10.844   0.949  24.558  0.00  0.00    +0.212 HD
ENDBRANCH   1  26
TORSDOF 6
ENDMDL
MODEL 7
REMARK VINA RESULT:      -6.4      2.371      4.217
REMARK  Name = 
REMARK  7 active torsions:
REMARK  status: ('A' for Active; 'I' for Inactive)
REMARK    1  A    between atoms: C_1  and  N_2
REMARK    2  A    between atoms: C_9  and  O_11
REMARK    3  A    between atoms: O_11  and  C_12
REMARK    4  A    between atoms: C_12  and  C_14
REMARK    5  A    between atoms: C_14  and  O_15
REMARK    6  A    between atoms: C_14  and  C_16
REMARK    7  A    between atoms: C_14  and  C_22
REMARK                            x       y       z     vdW  Elec       q    Type
REMARK                         _______ _______ _______ _____ _____    ______ ____
ROOT
ATOM      1  C   UNL     1       7.999  -1.145  23.392  0.00  0.00    +0.213 C 
ENDROOT
BRANCH   1   2
ATOM      2  C   UNL     1       8.931   0.081  23.336  0.00  0.00    -0.001 A 
ATOM      3  C   UNL     1       9.554   0.630  24.471  0.00  0.00    +0.007 A 
ATOM      4  C   UNL     1      10.405   1.739  24.366  0.00  0.00    +0.000 A 
ATOM      5  C   UNL     1      10.639   2.335  23.125  0.00  0.00    +0.000 A 
ATOM      6  C   UNL     1      10.004   1.836  21.996  0.00  0.00    +0.000 A 
ATOM      7  C   UNL     1       9.154   0.731  22.102  0.00  0.00    +0.007 A 
ENDBRANCH   1   2
BRANCH   1   8
ATOM      8  C   UNL     1       7.156  -1.175  24.682  0.00  0.00    -0.001 A 
ATOM      9  C   UNL     1       5.973  -0.418  24.796  0.00  0.00    +0.007 A 
ATOM     10  C   UNL     1       5.207  -0.432  25.965  0.00  0.00    +0.000 A 
ATOM     11  C   UNL     1       5.609  -1.202  27.047  0.00  0.00    +0.000 A 
ATOM     12  C   UNL     1       6.777  -1.960  26.965  0.00  0.00    +0.000 A 
ATOM     13  C   UNL     1       7.545  -1.942  25.794  0.00  0.00    +0.007 A 
ENDBRANCH   1   8
BRANCH   1  14
ATOM     14  C   UNL     1       8.745  -2.532  23.186  0.00  0.00    +0.349 C 
ATOM     15  O   UNL     1       9.809  -2.884  23.676  0.00  0.00    -0.247 OA
BRANCH  14  16
ATOM     16  O   UNL     1       8.011  -3.331  22.347  0.00  0.00    -0.453 OA
BRANCH  16  20
ATOM     17  C   UNL     1       5.733  -5.686  26.052  0.00  0.00    +0.192 C 
ATOM     18  N   UNL     1       5.796  -5.295  24.583  0.00  0.00    +0.244 N 
ATOM     19  C   UNL     1       7.276  -5.023  24.185  0.00  0.00    +0.178 C 
ATOM     20  C   UNL     1       7.342  -4.575  22.704  0.00  0.00    +0.225 C 
ATOM     21  C   UNL     1       5.922  -4.596  22.099  0.00  0.00    +0.045 C 
ATOM     22  C   UNL     1       5.025  -3.631  22.884  0.00  0.00    +0.058 C 
ATOM     23  C   UNL     1       5.338  -6.014  22.245  0.00  0.00    +0.058 C 
ATOM     24  C   UNL     1       4.951  -4.031  24.357  0.00  0.00    +0.133 C 
ATOM     25  C   UNL     1       5.239  -6.427  23.714  0.00  0.00    +0.133 C 
ENDBRANCH  16  20
ENDBRANCH  14  16
ENDBRANCH   1  14
BRANCH   1  26
ATOM     26  O   UNL     1       7.078  -0.995  22.283  0.00  0.00    -0.370 OA
ATOM     27  H   UNL     1       6.288  -1.519  22.500  0.00  0.00    +0.212 HD
ENDBRANCH   1  26
TORSDOF 6
ENDMDL
MODEL 8
REMARK VINA RESULT:      -6.3      1.479      2.336
REMARK  Name = 
REMARK  7 active torsions:
REMARK  status: ('A' for Active; 'I' for Inactive)
REMARK    1  A    between atoms: C_1  and  N_2
REMARK    2  A    between atoms: C_9  and  O_11
REMARK    3  A    between atoms: O_11  and  C_12
REMARK    4  A    between atoms: C_12  and  C_14
REMARK    5  A    between atoms: C_14  and  O_15
REMARK    6  A    between atoms: C_14  and  C_16
REMARK    7  A    between atoms: C_14  and  C_22
REMARK                            x       y       z     vdW  Elec       q    Type
REMARK                         _______ _______ _______ _____ _____    ______ ____
ROOT
ATOM      1  C   UNL     1       8.870  -2.892  24.207  0.00  0.00    +0.213 C 
ENDROOT
BRANCH   1   2
ATOM      2  C   UNL     1       9.296  -1.606  23.471  0.00  0.00    -0.001 A 
ATOM      3  C   UNL     1       9.048  -1.380  22.106  0.00  0.00    +0.007 A 
ATOM      4  C   UNL     1       9.443  -0.187  21.485  0.00  0.00    +0.000 A 
ATOM      5  C   UNL     1      10.111   0.801  22.212  0.00  0.00    +0.000 A 
ATOM      6  C   UNL     1      10.403   0.583  23.552  0.00  0.00    +0.000 A 
ATOM      7  C   UNL     1      10.010  -0.607  24.170  0.00  0.00    +0.007 A 
ENDBRANCH   1   2
BRANCH   1   8
ATOM      8  C   UNL     1       7.756  -3.648  23.457  0.00  0.00    -0.001 A 
ATOM      9  C   UNL     1       6.506  -3.045  23.210  0.00  0.00    +0.007 A 
ATOM     10  C   UNL     1       5.486  -3.726  22.539  0.00  0.00    +0.000 A 
ATOM     11  C   UNL     1       5.693  -5.026  22.102  0.00  0.00    +0.000 A 
ATOM     12  C   UNL     1       6.918  -5.651  22.335  0.00  0.00    +0.000 A 
ATOM     13  C   UNL     1       7.938  -4.968  23.010  0.00  0.00    +0.007 A 
ENDBRANCH   1   8
BRANCH   1  14
ATOM     14  C   UNL     1       8.459  -2.661  25.723  0.00  0.00    +0.349 C 
ATOM     15  O   UNL     1       8.538  -1.624  26.365  0.00  0.00    -0.247 OA
BRANCH  14  16
ATOM     16  O   UNL     1       7.977  -3.831  26.254  0.00  0.00    -0.453 OA
BRANCH  16  20
ATOM     17  C   UNL     1       3.048  -3.428  26.336  0.00  0.00    +0.192 C 
ATOM     18  N   UNL     1       4.312  -4.189  26.705  0.00  0.00    +0.244 N 
ATOM     19  C   UNL     1       5.508  -3.196  26.785  0.00  0.00    +0.178 C 
ATOM     20  C   UNL     1       6.807  -3.973  27.111  0.00  0.00    +0.225 C 
ATOM     21  C   UNL     1       6.477  -5.469  27.299  0.00  0.00    +0.045 C 
ATOM     22  C   UNL     1       5.867  -6.017  26.002  0.00  0.00    +0.058 C 
ATOM     23  C   UNL     1       5.427  -5.612  28.416  0.00  0.00    +0.058 C 
ATOM     24  C   UNL     1       4.590  -5.261  25.637  0.00  0.00    +0.133 C 
ATOM     25  C   UNL     1       4.133  -4.876  28.063  0.00  0.00    +0.133 C 
ENDBRANCH  16  20
ENDBRANCH  14  16
ENDBRANCH   1  14
BRANCH   1  26
ATOM     26  O   UNL     1      10.038  -3.751  24.215  0.00  0.00    -0.370 OA
ATOM     27  H   UNL     1      10.769  -3.236  23.830  0.00  0.00    +0.212 HD
ENDBRANCH   1  26
TORSDOF 6
ENDMDL
MODEL 9
REMARK VINA RESULT:      -6.3      2.372      6.406
REMARK  Name = 
REMARK  7 active torsions:
REMARK  status: ('A' for Active; 'I' for Inactive)
REMARK    1  A    between atoms: C_1  and  N_2
REMARK    2  A    between atoms: C_9  and  O_11
REMARK    3  A    between atoms: O_11  and  C_12
REMARK    4  A    between atoms: C_12  and  C_14
REMARK    5  A    between atoms: C_14  and  O_15
REMARK    6  A    between atoms: C_14  and  C_16
REMARK    7  A    between atoms: C_14  and  C_22
REMARK                            x       y       z     vdW  Elec       q    Type
REMARK                         _______ _______ _______ _____ _____    ______ ____
ROOT
ATOM      1  C   UNL     1       7.889  -4.386  24.722  0.00  0.00    +0.213 C 
ENDROOT
BRANCH   1   2
ATOM      2  C   UNL     1       7.269  -4.621  23.331  0.00  0.00    -0.001 A 
ATOM      3  C   UNL     1       7.540  -5.756  22.546  0.00  0.00    +0.007 A 
ATOM      4  C   UNL     1       6.940  -5.930  21.291  0.00  0.00    +0.000 A 
ATOM      5  C   UNL     1       6.067  -4.964  20.785  0.00  0.00    +0.000 A 
ATOM      6  C   UNL     1       5.815  -3.816  21.524  0.00  0.00    +0.000 A 
ATOM      7  C   UNL     1       6.415  -3.642  22.774  0.00  0.00    +0.007 A 
ENDBRANCH   1   2
BRANCH   1   8
ATOM      8  C   UNL     1       7.069  -5.054  25.843  0.00  0.00    -0.001 A 
ATOM      9  C   UNL     1       5.728  -5.437  25.636  0.00  0.00    +0.007 A 
ATOM     10  C   UNL     1       4.975  -6.035  26.650  0.00  0.00    +0.000 A 
ATOM     11  C   UNL     1       5.544  -6.262  27.894  0.00  0.00    +0.000 A 
ATOM     12  C   UNL     1       6.868  -5.891  28.131  0.00  0.00    +0.000 A 
ATOM     13  C   UNL     1       7.620  -5.289  27.115  0.00  0.00    +0.007 A 
ENDBRANCH   1   8
BRANCH   1  14
ATOM     14  C   UNL     1       8.149  -2.857  25.063  0.00  0.00    +0.349 C 
ATOM     15  O   UNL     1       7.603  -2.184  25.925  0.00  0.00    -0.247 OA
BRANCH  14  16
ATOM     16  O   UNL     1       9.114  -2.355  24.227  0.00  0.00    -0.453 OA
BRANCH  16  20
ATOM     17  C   UNL     1       6.696   1.904  23.536  0.00  0.00    +0.192 C 
ATOM     18  N   UNL     1       7.988   1.103  23.493  0.00  0.00    +0.244 N 
ATOM     19  C   UNL     1       7.655  -0.405  23.304  0.00  0.00    +0.178 C 
ATOM     20  C   UNL     1       8.964  -1.232  23.311  0.00  0.00    +0.225 C 
ATOM     21  C   UNL     1      10.171  -0.279  23.452  0.00  0.00    +0.045 C 
ATOM     22  C   UNL     1      10.050   0.495  24.771  0.00  0.00    +0.058 C 
ATOM     23  C   UNL     1      10.141   0.739  22.298  0.00  0.00    +0.058 C 
ATOM     24  C   UNL     1       8.758   1.310  24.809  0.00  0.00    +0.133 C 
ATOM     25  C   UNL     1       8.862   1.578  22.327  0.00  0.00    +0.133 C 
ENDBRANCH  16  20
ENDBRANCH  14  16
ENDBRANCH   1  14
BRANCH   1  26
ATOM     26  O   UNL     1       9.185  -5.036  24.695  0.00  0.00    -0.370 OA
ATOM     27  H   UNL     1       9.830  -4.366  24.413  0.00  0.00    +0.212 HD
ENDBRANCH   1  26
TORSDOF 6
ENDMDL
