MODEL 1
REMARK VINA RESULT:      -7.2      0.000      0.000
REMARK  Name = 
REMARK  5 active torsions:
REMARK  status: ('A' for Active; 'I' for Inactive)
REMARK    1  A    between atoms: C_8  and  C_22
REMARK    2  A    between atoms: N_10  and  C_11
REMARK    3  A    between atoms: C_18  and  C_20
REMARK    4  A    between atoms: C_25  and  O_26
REMARK    5  A    between atoms: O_26  and  C_27
REMARK                            x       y       z     vdW  Elec       q    Type
REMARK                         _______ _______ _______ _____ _____    ______ ____
ROOT
ATOM      1  N   UNL     1      10.411  -1.931  23.223  0.00  0.00    -0.342 N 
ATOM      2  H   UNL     1       9.880  -2.312  22.449  0.00  0.00    +0.144 HD
ATOM      3  H   UNL     1      11.410  -1.869  23.038  0.00  0.00    +0.144 HD
ATOM      4  C   UNL     1       9.965  -0.676  23.619  0.00  0.00    +0.131 A 
ATOM      5  C   UNL     1       8.621  -0.279  23.753  0.00  0.00    +0.086 A 
ATOM      6  C   UNL     1       7.296  -0.832  23.692  0.00  0.00    +0.105 A 
ATOM      7  N   UNL     1       6.375   0.150  23.820  0.00  0.00    -0.168 NA
ATOM      8  N   UNL     1       7.081   1.281  24.011  0.00  0.00    -0.241 N 
ATOM      9  C   UNL     1       8.430   1.076  24.012  0.00  0.00    +0.164 A 
ATOM     10  N   UNL     1       9.373   2.016  24.194  0.00  0.00    -0.216 NA
ATOM     11  C   UNL     1      10.605   1.501  24.110  0.00  0.00    +0.225 A 
ATOM     12  N   UNL     1      10.943   0.232  23.823  0.00  0.00    -0.220 NA
ENDROOT
BRANCH   8  13
ATOM     13  C   UNL     1       6.401   2.570  24.112  0.00  0.00    +0.127 C 
ATOM     14  C   UNL     1       6.551   3.380  22.806  0.00  0.00    +0.135 C 
ATOM     15  N   UNL     1       5.742   4.615  22.821  0.00  0.00    -0.296 N 
ATOM     16  C   UNL     1       6.142   5.919  22.567  0.00  0.00    +0.239 C 
ATOM     17  O   UNL     1       5.355   6.864  22.617  0.00  0.00    -0.271 OA
ATOM     18  C   UNL     1       4.328   4.394  23.121  0.00  0.00    +0.108 C 
ATOM     19  C   UNL     1       4.194   3.761  24.499  0.00  0.00    +0.021 C 
ATOM     20  C   UNL     1       4.928   2.419  24.539  0.00  0.00    +0.030 C 
BRANCH  16  21
ATOM     21  C   UNL     1       7.568   6.185  22.235  0.00  0.00    +0.060 C 
ATOM     22  C   UNL     1       8.402   6.620  23.193  0.00  0.00    +0.013 C 
ENDBRANCH  16  21
ENDBRANCH   8  13
BRANCH   6  23
ATOM     23  C   UNL     1       6.817  -2.219  23.485  0.00  0.00    +0.003 A 
ATOM     24  C   UNL     1       7.082  -3.189  24.473  0.00  0.00    +0.014 A 
ATOM     25  C   UNL     1       6.643  -4.517  24.355  0.00  0.00    +0.047 A 
ATOM     26  C   UNL     1       5.925  -4.911  23.233  0.00  0.00    +0.128 A 
ATOM     27  C   UNL     1       5.668  -3.967  22.231  0.00  0.00    +0.047 A 
ATOM     28  C   UNL     1       6.129  -2.642  22.343  0.00  0.00    +0.014 A 
BRANCH  26  29
ATOM     29  O   UNL     1       5.342  -6.146  23.059  0.00  0.00    -0.456 OA
BRANCH  29  30
ATOM     30  C   UNL     1       4.136  -6.455  23.645  0.00  0.00    +0.128 A 
ATOM     31  C   UNL     1       2.909  -5.982  23.177  0.00  0.00    +0.046 A 
ATOM     32  C   UNL     1       1.746  -6.197  23.926  0.00  0.00    +0.004 A 
ATOM     33  C   UNL     1       1.809  -6.873  25.146  0.00  0.00    +0.000 A 
ATOM     34  C   UNL     1       3.031  -7.355  25.610  0.00  0.00    +0.004 A 
ATOM     35  C   UNL     1       4.193  -7.142  24.863  0.00  0.00    +0.046 A 
ENDBRANCH  29  30
ENDBRANCH  26  29
ENDBRANCH   6  23
TORSDOF 5
ENDMDL
MODEL 2
REMARK VINA RESULT:      -7.1      3.028      4.790
REMARK  Name = 
REMARK  5 active torsions:
REMARK  status: ('A' for Active; 'I' for Inactive)
REMARK    1  A    between atoms: C_8  and  C_22
REMARK    2  A    between atoms: N_10  and  C_11
REMARK    3  A    between atoms: C_18  and  C_20
REMARK    4  A    between atoms: C_25  and  O_26
REMARK    5  A    between atoms: O_26  and  C_27
REMARK                            x       y       z     vdW  Elec       q    Type
REMARK                         _______ _______ _______ _____ _____    ______ ____
ROOT
ATOM      1  N   UNL     1      11.271   3.762  23.346  0.00  0.00    -0.342 N 
ATOM      2  H   UNL     1      11.182   3.026  22.655  0.00  0.00    +0.144 HD
ATOM      3  H   UNL     1      12.024   4.417  23.146  0.00  0.00    +0.144 HD
ATOM      4  C   UNL     1      10.098   4.489  23.515  0.00  0.00    +0.131 A 
ATOM      5  C   UNL     1       8.797   3.958  23.585  0.00  0.00    +0.086 A 
ATOM      6  C   UNL     1       8.125   2.689  23.632  0.00  0.00    +0.105 A 
ATOM      7  N   UNL     1       6.785   2.869  23.589  0.00  0.00    -0.168 NA
ATOM      8  N   UNL     1       6.604   4.203  23.573  0.00  0.00    -0.241 N 
ATOM      9  C   UNL     1       7.774   4.903  23.601  0.00  0.00    +0.164 A 
ATOM     10  N   UNL     1       7.897   6.242  23.608  0.00  0.00    -0.216 NA
ATOM     11  C   UNL     1       9.180   6.620  23.609  0.00  0.00    +0.225 A 
ATOM     12  N   UNL     1      10.265   5.829  23.549  0.00  0.00    -0.220 NA
ENDROOT
BRANCH   8  13
ATOM     13  C   UNL     1       5.262   4.766  23.448  0.00  0.00    +0.127 C 
ATOM     14  C   UNL     1       4.235   3.673  23.079  0.00  0.00    +0.135 C 
ATOM     15  N   UNL     1       2.849   4.181  23.103  0.00  0.00    -0.296 N 
ATOM     16  C   UNL     1       1.877   4.103  22.116  0.00  0.00    +0.239 C 
ATOM     17  O   UNL     1       0.750   4.576  22.270  0.00  0.00    -0.271 OA
ATOM     18  C   UNL     1       2.474   4.824  24.362  0.00  0.00    +0.108 C 
ATOM     19  C   UNL     1       3.387   6.016  24.614  0.00  0.00    +0.021 C 
ATOM     20  C   UNL     1       4.844   5.560  24.701  0.00  0.00    +0.030 C 
BRANCH  16  21
ATOM     21  C   UNL     1       2.208   3.436  20.828  0.00  0.00    +0.060 C 
ATOM     22  C   UNL     1       1.479   2.386  20.418  0.00  0.00    +0.013 C 
ENDBRANCH  16  21
ENDBRANCH   8  13
BRANCH   6  23
ATOM     23  C   UNL     1       8.644   1.301  23.677  0.00  0.00    +0.003 A 
ATOM     24  C   UNL     1       9.026   0.754  24.918  0.00  0.00    +0.014 A 
ATOM     25  C   UNL     1       9.508  -0.559  25.041  0.00  0.00    +0.047 A 
ATOM     26  C   UNL     1       9.623  -1.362  23.913  0.00  0.00    +0.128 A 
ATOM     27  C   UNL     1       9.266  -0.831  22.668  0.00  0.00    +0.047 A 
ATOM     28  C   UNL     1       8.804   0.493  22.546  0.00  0.00    +0.014 A 
BRANCH  26  29
ATOM     29  O   UNL     1       9.967  -2.695  23.922  0.00  0.00    -0.456 OA
BRANCH  29  30
ATOM     30  C   UNL     1       9.074  -3.660  24.329  0.00  0.00    +0.128 A 
ATOM     31  C   UNL     1       7.858  -3.903  23.688  0.00  0.00    +0.046 A 
ATOM     32  C   UNL     1       6.929  -4.779  24.262  0.00  0.00    +0.004 A 
ATOM     33  C   UNL     1       7.208  -5.402  25.480  0.00  0.00    +0.000 A 
ATOM     34  C   UNL     1       8.425  -5.167  26.117  0.00  0.00    +0.004 A 
ATOM     35  C   UNL     1       9.354  -4.295  25.544  0.00  0.00    +0.046 A 
ENDBRANCH  29  30
ENDBRANCH  26  29
ENDBRANCH   6  23
TORSDOF 5
ENDMDL
MODEL 3
REMARK VINA RESULT:      -7.0      2.499      9.476
REMARK  Name = 
REMARK  5 active torsions:
REMARK  status: ('A' for Active; 'I' for Inactive)
REMARK    1  A    between atoms: C_8  and  C_22
REMARK    2  A    between atoms: N_10  and  C_11
REMARK    3  A    between atoms: C_18  and  C_20
REMARK    4  A    between atoms: C_25  and  O_26
REMARK    5  A    between atoms: O_26  and  C_27
REMARK                            x       y       z     vdW  Elec       q    Type
REMARK                         _______ _______ _______ _____ _____    ______ ____
ROOT
ATOM      1  N   UNL     1      10.098  -1.933  24.106  0.00  0.00    -0.342 N 
ATOM      2  H   UNL     1       9.830  -1.102  24.620  0.00  0.00    +0.144 HD
ATOM      3  H   UNL     1      11.033  -2.266  24.333  0.00  0.00    +0.144 HD
ATOM      4  C   UNL     1       9.209  -2.987  24.281  0.00  0.00    +0.131 A 
ATOM      5  C   UNL     1       7.804  -2.893  24.288  0.00  0.00    +0.086 A 
ATOM      6  C   UNL     1       6.762  -1.930  24.060  0.00  0.00    +0.105 A 
ATOM      7  N   UNL     1       5.556  -2.474  24.341  0.00  0.00    -0.168 NA
ATOM      8  N   UNL     1       5.810  -3.751  24.683  0.00  0.00    -0.241 N 
ATOM      9  C   UNL     1       7.137  -4.064  24.637  0.00  0.00    +0.164 A 
ATOM     10  N   UNL     1       7.678  -5.264  24.913  0.00  0.00    -0.216 NA
ATOM     11  C   UNL     1       9.011  -5.240  24.805  0.00  0.00    +0.225 A 
ATOM     12  N   UNL     1       9.790  -4.181  24.524  0.00  0.00    -0.220 NA
ENDROOT
BRANCH   8  13
ATOM     13  C   UNL     1       4.729  -4.627  25.130  0.00  0.00    +0.127 C 
ATOM     14  C   UNL     1       4.318  -5.613  24.014  0.00  0.00    +0.135 C 
ATOM     15  N   UNL     1       3.340  -6.612  24.488  0.00  0.00    -0.296 N 
ATOM     16  C   UNL     1       2.111  -6.951  23.942  0.00  0.00    +0.239 C 
ATOM     17  O   UNL     1       1.388  -7.812  24.446  0.00  0.00    -0.271 OA
ATOM     18  C   UNL     1       3.769  -7.345  25.678  0.00  0.00    +0.108 C 
ATOM     19  C   UNL     1       3.992  -6.366  26.823  0.00  0.00    +0.021 C 
ATOM     20  C   UNL     1       5.069  -5.347  26.448  0.00  0.00    +0.030 C 
BRANCH  16  21
ATOM     21  C   UNL     1       1.645  -6.247  22.717  0.00  0.00    +0.060 C 
ATOM     22  C   UNL     1       0.443  -5.648  22.712  0.00  0.00    +0.013 C 
ENDBRANCH  16  21
ENDBRANCH   8  13
BRANCH   6  23
ATOM     23  C   UNL     1       6.808  -0.514  23.628  0.00  0.00    +0.003 A 
ATOM     24  C   UNL     1       7.649  -0.152  22.556  0.00  0.00    +0.014 A 
ATOM     25  C   UNL     1       7.730   1.167  22.080  0.00  0.00    +0.047 A 
ATOM     26  C   UNL     1       6.966   2.164  22.673  0.00  0.00    +0.128 A 
ATOM     27  C   UNL     1       6.139   1.829  23.751  0.00  0.00    +0.047 A 
ATOM     28  C   UNL     1       6.078   0.510  24.240  0.00  0.00    +0.014 A 
BRANCH  26  29
ATOM     29  O   UNL     1       6.871   3.461  22.221  0.00  0.00    -0.456 OA
BRANCH  29  30
ATOM     30  C   UNL     1       7.630   4.468  22.774  0.00  0.00    +0.128 A 
ATOM     31  C   UNL     1       7.441   5.820  22.485  0.00  0.00    +0.046 A 
ATOM     32  C   UNL     1       8.361   6.767  22.949  0.00  0.00    +0.004 A 
ATOM     33  C   UNL     1       9.474   6.364  23.689  0.00  0.00    +0.000 A 
ATOM     34  C   UNL     1       9.659   5.015  23.986  0.00  0.00    +0.004 A 
ATOM     35  C   UNL     1       8.740   4.069  23.525  0.00  0.00    +0.046 A 
ENDBRANCH  29  30
ENDBRANCH  26  29
ENDBRANCH   6  23
TORSDOF 5
ENDMDL
MODEL 4
REMARK VINA RESULT:      -7.0      2.846      9.390
REMARK  Name = 
REMARK  5 active torsions:
REMARK  status: ('A' for Active; 'I' for Inactive)
REMARK    1  A    between atoms: C_8  and  C_22
REMARK    2  A    between atoms: N_10  and  C_11
REMARK    3  A    between atoms: C_18  and  C_20
REMARK    4  A    between atoms: C_25  and  O_26
REMARK    5  A    between atoms: O_26  and  C_27
REMARK                            x       y       z     vdW  Elec       q    Type
REMARK                         _______ _______ _______ _____ _____    ______ ____
ROOT
ATOM      1  N   UNL     1      10.079  -1.885  24.147  0.00  0.00    -0.342 N 
ATOM      2  H   UNL     1       9.797  -1.059  24.662  0.00  0.00    +0.144 HD
ATOM      3  H   UNL     1      11.020  -2.201  24.372  0.00  0.00    +0.144 HD
ATOM      4  C   UNL     1       9.209  -2.954  24.320  0.00  0.00    +0.131 A 
ATOM      5  C   UNL     1       7.803  -2.885  24.329  0.00  0.00    +0.086 A 
ATOM      6  C   UNL     1       6.743  -1.941  24.103  0.00  0.00    +0.105 A 
ATOM      7  N   UNL     1       5.547  -2.507  24.384  0.00  0.00    -0.168 NA
ATOM      8  N   UNL     1       5.825  -3.780  24.723  0.00  0.00    -0.241 N 
ATOM      9  C   UNL     1       7.157  -4.069  24.676  0.00  0.00    +0.164 A 
ATOM     10  N   UNL     1       7.719  -5.259  24.949  0.00  0.00    -0.216 NA
ATOM     11  C   UNL     1       9.052  -5.212  24.840  0.00  0.00    +0.225 A 
ATOM     12  N   UNL     1       9.811  -4.138  24.560  0.00  0.00    -0.220 NA
ENDROOT
BRANCH   8  13
ATOM     13  C   UNL     1       4.760  -4.676  25.169  0.00  0.00    +0.127 C 
ATOM     14  C   UNL     1       4.588  -4.613  26.702  0.00  0.00    +0.135 C 
ATOM     15  N   UNL     1       3.417  -5.385  27.163  0.00  0.00    -0.296 N 
ATOM     16  C   UNL     1       3.354  -6.367  28.140  0.00  0.00    +0.239 C 
ATOM     17  O   UNL     1       2.299  -6.937  28.426  0.00  0.00    -0.271 OA
ATOM     18  C   UNL     1       2.167  -5.020  26.498  0.00  0.00    +0.108 C 
ATOM     19  C   UNL     1       2.298  -5.265  25.001  0.00  0.00    +0.021 C 
ATOM     20  C   UNL     1       3.436  -4.422  24.423  0.00  0.00    +0.030 C 
BRANCH  16  21
ATOM     21  C   UNL     1       4.598  -6.754  28.858  0.00  0.00    +0.060 C 
ATOM     22  C   UNL     1       4.878  -6.195  30.047  0.00  0.00    +0.013 C 
ENDBRANCH  16  21
ENDBRANCH   8  13
BRANCH   6  23
ATOM     23  C   UNL     1       6.764  -0.523  23.673  0.00  0.00    +0.003 A 
ATOM     24  C   UNL     1       7.559  -0.153  22.570  0.00  0.00    +0.014 A 
ATOM     25  C   UNL     1       7.613   1.167  22.094  0.00  0.00    +0.047 A 
ATOM     26  C   UNL     1       6.868   2.158  22.720  0.00  0.00    +0.128 A 
ATOM     27  C   UNL     1       6.087   1.815  23.830  0.00  0.00    +0.047 A 
ATOM     28  C   UNL     1       6.053   0.495  24.317  0.00  0.00    +0.014 A 
BRANCH  26  29
ATOM     29  O   UNL     1       6.747   3.455  22.277  0.00  0.00    -0.456 OA
BRANCH  29  30
ATOM     30  C   UNL     1       7.532   4.463  22.791  0.00  0.00    +0.128 A 
ATOM     31  C   UNL     1       7.343   5.813  22.494  0.00  0.00    +0.046 A 
ATOM     32  C   UNL     1       8.285   6.759  22.915  0.00  0.00    +0.004 A 
ATOM     33  C   UNL     1       9.421   6.356  23.620  0.00  0.00    +0.000 A 
ATOM     34  C   UNL     1       9.607   5.009  23.925  0.00  0.00    +0.004 A 
ATOM     35  C   UNL     1       8.666   4.064  23.507  0.00  0.00    +0.046 A 
ENDBRANCH  29  30
ENDBRANCH  26  29
ENDBRANCH   6  23
TORSDOF 5
ENDMDL
MODEL 5
REMARK VINA RESULT:      -6.8      2.928      9.664
REMARK  Name = 
REMARK  5 active torsions:
REMARK  status: ('A' for Active; 'I' for Inactive)
REMARK    1  A    between atoms: C_8  and  C_22
REMARK    2  A    between atoms: N_10  and  C_11
REMARK    3  A    between atoms: C_18  and  C_20
REMARK    4  A    between atoms: C_25  and  O_26
REMARK    5  A    between atoms: O_26  and  C_27
REMARK                            x       y       z     vdW  Elec       q    Type
REMARK                         _______ _______ _______ _____ _____    ______ ____
ROOT
ATOM      1  N   UNL     1      10.575  -1.224  23.666  0.00  0.00    -0.342 N 
ATOM      2  H   UNL     1      10.678  -0.466  24.330  0.00  0.00    +0.144 HD
ATOM      3  H   UNL     1      11.391  -1.830  23.613  0.00  0.00    +0.144 HD
ATOM      4  C   UNL     1       9.462  -2.017  23.921  0.00  0.00    +0.131 A 
ATOM      5  C   UNL     1       8.183  -1.557  24.285  0.00  0.00    +0.086 A 
ATOM      6  C   UNL     1       7.456  -0.328  24.442  0.00  0.00    +0.105 A 
ATOM      7  N   UNL     1       6.223  -0.575  24.941  0.00  0.00    -0.168 NA
ATOM      8  N   UNL     1       6.143  -1.915  25.047  0.00  0.00    -0.241 N 
ATOM      9  C   UNL     1       7.276  -2.554  24.637  0.00  0.00    +0.164 A 
ATOM     10  N   UNL     1       7.474  -3.884  24.619  0.00  0.00    -0.216 NA
ATOM     11  C   UNL     1       8.702  -4.195  24.191  0.00  0.00    +0.225 A 
ATOM     12  N   UNL     1       9.692  -3.347  23.862  0.00  0.00    -0.220 NA
ENDROOT
BRANCH   8  13
ATOM     13  C   UNL     1       4.959  -2.541  25.632  0.00  0.00    +0.127 C 
ATOM     14  C   UNL     1       5.343  -3.787  26.460  0.00  0.00    +0.135 C 
ATOM     15  N   UNL     1       4.189  -4.346  27.191  0.00  0.00    -0.296 N 
ATOM     16  C   UNL     1       3.714  -5.649  27.199  0.00  0.00    +0.239 C 
ATOM     17  O   UNL     1       2.729  -5.981  27.860  0.00  0.00    -0.271 OA
ATOM     18  C   UNL     1       3.492  -3.374  28.032  0.00  0.00    +0.108 C 
ATOM     19  C   UNL     1       2.960  -2.242  27.164  0.00  0.00    +0.021 C 
ATOM     20  C   UNL     1       4.112  -1.542  26.441  0.00  0.00    +0.030 C 
BRANCH  16  21
ATOM     21  C   UNL     1       4.408  -6.677  26.375  0.00  0.00    +0.060 C 
ATOM     22  C   UNL     1       3.824  -7.134  25.256  0.00  0.00    +0.013 C 
ENDBRANCH  16  21
ENDBRANCH   8  13
BRANCH   6  23
ATOM     23  C   UNL     1       7.841   1.081  24.193  0.00  0.00    +0.003 A 
ATOM     24  C   UNL     1       7.856   1.563  22.869  0.00  0.00    +0.014 A 
ATOM     25  C   UNL     1       8.192   2.891  22.558  0.00  0.00    +0.047 A 
ATOM     26  C   UNL     1       8.526   3.776  23.576  0.00  0.00    +0.128 A 
ATOM     27  C   UNL     1       8.535   3.312  24.897  0.00  0.00    +0.047 A 
ATOM     28  C   UNL     1       8.220   1.974  25.201  0.00  0.00    +0.014 A 
BRANCH  26  29
ATOM     29  O   UNL     1       8.755   5.122  23.409  0.00  0.00    -0.456 OA
BRANCH  29  30
ATOM     30  C   UNL     1       9.917   5.710  23.856  0.00  0.00    +0.128 A 
ATOM     31  C   UNL     1      11.186   5.346  23.404  0.00  0.00    +0.046 A 
ATOM     32  C   UNL     1      12.325   5.865  24.030  0.00  0.00    +0.004 A 
ATOM     33  C   UNL     1      12.198   6.737  25.114  0.00  0.00    +0.000 A 
ATOM     34  C   UNL     1      10.931   7.108  25.560  0.00  0.00    +0.004 A 
ATOM     35  C   UNL     1       9.793   6.592  24.935  0.00  0.00    +0.046 A 
ENDBRANCH  29  30
ENDBRANCH  26  29
ENDBRANCH   6  23
TORSDOF 5
ENDMDL
MODEL 6
REMARK VINA RESULT:      -6.8      3.479      9.167
REMARK  Name = 
REMARK  5 active torsions:
REMARK  status: ('A' for Active; 'I' for Inactive)
REMARK    1  A    between atoms: C_8  and  C_22
REMARK    2  A    between atoms: N_10  and  C_11
REMARK    3  A    between atoms: C_18  and  C_20
REMARK    4  A    between atoms: C_25  and  O_26
REMARK    5  A    between atoms: O_26  and  C_27
REMARK                            x       y       z     vdW  Elec       q    Type
REMARK                         _______ _______ _______ _____ _____    ______ ____
ROOT
ATOM      1  N   UNL     1      10.196  -2.278  23.847  0.00  0.00    -0.342 N 
ATOM      2  H   UNL     1      10.323  -1.501  24.484  0.00  0.00    +0.144 HD
ATOM      3  H   UNL     1      10.986  -2.919  23.827  0.00  0.00    +0.144 HD
ATOM      4  C   UNL     1       9.048  -3.014  24.115  0.00  0.00    +0.131 A 
ATOM      5  C   UNL     1       7.785  -2.487  24.444  0.00  0.00    +0.086 A 
ATOM      6  C   UNL     1       7.109  -1.223  24.546  0.00  0.00    +0.105 A 
ATOM      7  N   UNL     1       5.860  -1.400  25.035  0.00  0.00    -0.168 NA
ATOM      8  N   UNL     1       5.722  -2.731  25.189  0.00  0.00    -0.241 N 
ATOM      9  C   UNL     1       6.832  -3.431  24.820  0.00  0.00    +0.164 A 
ATOM     10  N   UNL     1       6.973  -4.768  24.853  0.00  0.00    -0.216 NA
ATOM     11  C   UNL     1       8.193  -5.146  24.453  0.00  0.00    +0.225 A 
ATOM     12  N   UNL     1       9.222  -4.353  24.108  0.00  0.00    -0.220 NA
ENDROOT
BRANCH   8  13
ATOM     13  C   UNL     1       4.506  -3.284  25.780  0.00  0.00    +0.127 C 
ATOM     14  C   UNL     1       3.864  -2.284  26.766  0.00  0.00    +0.135 C 
ATOM     15  N   UNL     1       2.552  -2.751  27.256  0.00  0.00    -0.296 N 
ATOM     16  C   UNL     1       2.108  -2.878  28.565  0.00  0.00    +0.239 C 
ATOM     17  O   UNL     1       0.977  -3.286  28.834  0.00  0.00    -0.271 OA
ATOM     18  C   UNL     1       1.607  -3.090  26.193  0.00  0.00    +0.108 C 
ATOM     19  C   UNL     1       2.185  -4.211  25.340  0.00  0.00    +0.021 C 
ATOM     20  C   UNL     1       3.508  -3.771  24.711  0.00  0.00    +0.030 C 
BRANCH  16  21
ATOM     21  C   UNL     1       3.029  -2.521  29.678  0.00  0.00    +0.060 C 
ATOM     22  C   UNL     1       3.752  -3.482  30.274  0.00  0.00    +0.013 C 
ENDBRANCH  16  21
ENDBRANCH   8  13
BRANCH   6  23
ATOM     23  C   UNL     1       7.556   0.158  24.251  0.00  0.00    +0.003 A 
ATOM     24  C   UNL     1       7.431   0.653  22.937  0.00  0.00    +0.014 A 
ATOM     25  C   UNL     1       7.816   1.957  22.587  0.00  0.00    +0.047 A 
ATOM     26  C   UNL     1       8.343   2.805  23.553  0.00  0.00    +0.128 A 
ATOM     27  C   UNL     1       8.493   2.327  24.861  0.00  0.00    +0.047 A 
ATOM     28  C   UNL     1       8.127   1.011  25.201  0.00  0.00    +0.014 A 
BRANCH  26  29
ATOM     29  O   UNL     1       8.643   4.134  23.361  0.00  0.00    -0.456 OA
BRANCH  29  30
ATOM     30  C   UNL     1       9.876   4.644  23.697  0.00  0.00    +0.128 A 
ATOM     31  C   UNL     1      10.052   5.872  24.339  0.00  0.00    +0.046 A 
ATOM     32  C   UNL     1      11.339   6.401  24.490  0.00  0.00    +0.004 A 
ATOM     33  C   UNL     1      12.447   5.712  23.992  0.00  0.00    +0.000 A 
ATOM     34  C   UNL     1      12.274   4.483  23.360  0.00  0.00    +0.004 A 
ATOM     35  C   UNL     1      10.990   3.952  23.209  0.00  0.00    +0.046 A 
ENDBRANCH  29  30
ENDBRANCH  26  29
ENDBRANCH   6  23
TORSDOF 5
ENDMDL
MODEL 7
REMARK VINA RESULT:      -6.7      2.125      8.851
REMARK  Name = 
REMARK  5 active torsions:
REMARK  status: ('A' for Active; 'I' for Inactive)
REMARK    1  A    between atoms: C_8  and  C_22
REMARK    2  A    between atoms: N_10  and  C_11
REMARK    3  A    between atoms: C_18  and  C_20
REMARK    4  A    between atoms: C_25  and  O_26
REMARK    5  A    between atoms: O_26  and  C_27
REMARK                            x       y       z     vdW  Elec       q    Type
REMARK                         _______ _______ _______ _____ _____    ______ ____
ROOT
ATOM      1  N   UNL     1       9.899   1.462  23.748  0.00  0.00    -0.342 N 
ATOM      2  H   UNL     1       9.324   1.764  24.526  0.00  0.00    +0.144 HD
ATOM      3  H   UNL     1      10.895   1.599  23.904  0.00  0.00    +0.144 HD
ATOM      4  C   UNL     1       9.693   0.130  23.409  0.00  0.00    +0.131 A 
ATOM      5  C   UNL     1       8.448  -0.522  23.330  0.00  0.00    +0.086 A 
ATOM      6  C   UNL     1       7.043  -0.231  23.415  0.00  0.00    +0.105 A 
ATOM      7  N   UNL     1       6.325  -1.375  23.348  0.00  0.00    -0.168 NA
ATOM      8  N   UNL     1       7.231  -2.356  23.172  0.00  0.00    -0.241 N 
ATOM      9  C   UNL     1       8.514  -1.897  23.122  0.00  0.00    +0.164 A 
ATOM     10  N   UNL     1       9.617  -2.645  22.942  0.00  0.00    -0.216 NA
ATOM     11  C   UNL     1      10.728  -1.901  22.969  0.00  0.00    +0.225 A 
ATOM     12  N   UNL     1      10.822  -0.581  23.204  0.00  0.00    -0.220 NA
ENDROOT
BRANCH   8  13
ATOM     13  C   UNL     1       6.809  -3.754  23.135  0.00  0.00    +0.127 C 
ATOM     14  C   UNL     1       5.695  -4.025  24.169  0.00  0.00    +0.135 C 
ATOM     15  N   UNL     1       5.139  -5.387  24.045  0.00  0.00    -0.296 N 
ATOM     16  C   UNL     1       4.986  -6.356  25.026  0.00  0.00    +0.239 C 
ATOM     17  O   UNL     1       4.503  -7.462  24.780  0.00  0.00    -0.271 OA
ATOM     18  C   UNL     1       4.672  -5.716  22.699  0.00  0.00    +0.108 C 
ATOM     19  C   UNL     1       5.835  -5.622  21.721  0.00  0.00    +0.021 C 
ATOM     20  C   UNL     1       6.411  -4.205  21.717  0.00  0.00    +0.030 C 
BRANCH  16  21
ATOM     21  C   UNL     1       5.426  -6.054  26.415  0.00  0.00    +0.060 C 
ATOM     22  C   UNL     1       4.910  -6.750  27.440  0.00  0.00    +0.013 C 
ENDBRANCH  16  21
ENDBRANCH   8  13
BRANCH   6  23
ATOM     23  C   UNL     1       6.312   1.046  23.591  0.00  0.00    +0.003 A 
ATOM     24  C   UNL     1       6.449   2.054  22.615  0.00  0.00    +0.014 A 
ATOM     25  C   UNL     1       5.773   3.281  22.705  0.00  0.00    +0.047 A 
ATOM     26  C   UNL     1       4.936   3.532  23.785  0.00  0.00    +0.128 A 
ATOM     27  C   UNL     1       4.800   2.550  24.775  0.00  0.00    +0.047 A 
ATOM     28  C   UNL     1       5.498   1.331  24.692  0.00  0.00    +0.014 A 
BRANCH  26  29
ATOM     29  O   UNL     1       4.132   4.640  23.923  0.00  0.00    -0.456 OA
BRANCH  29  30
ATOM     30  C   UNL     1       3.223   4.989  22.949  0.00  0.00    +0.128 A 
ATOM     31  C   UNL     1       2.260   4.113  22.446  0.00  0.00    +0.046 A 
ATOM     32  C   UNL     1       1.489   4.485  21.339  0.00  0.00    +0.004 A 
ATOM     33  C   UNL     1       1.687   5.724  20.727  0.00  0.00    +0.000 A 
ATOM     34  C   UNL     1       2.642   6.603  21.233  0.00  0.00    +0.004 A 
ATOM     35  C   UNL     1       3.412   6.234  22.339  0.00  0.00    +0.046 A 
ENDBRANCH  29  30
ENDBRANCH  26  29
ENDBRANCH   6  23
TORSDOF 5
ENDMDL
MODEL 8
REMARK VINA RESULT:      -6.7      1.273      2.084
REMARK  Name = 
REMARK  5 active torsions:
REMARK  status: ('A' for Active; 'I' for Inactive)
REMARK    1  A    between atoms: C_8  and  C_22
REMARK    2  A    between atoms: N_10  and  C_11
REMARK    3  A    between atoms: C_18  and  C_20
REMARK    4  A    between atoms: C_25  and  O_26
REMARK    5  A    between atoms: O_26  and  C_27
REMARK                            x       y       z     vdW  Elec       q    Type
REMARK                         _______ _______ _______ _____ _____    ______ ____
ROOT
ATOM      1  N   UNL     1      10.089  -2.251  23.609  0.00  0.00    -0.342 N 
ATOM      2  H   UNL     1       9.653  -2.598  22.763  0.00  0.00    +0.144 HD
ATOM      3  H   UNL     1      11.100  -2.370  23.623  0.00  0.00    +0.144 HD
ATOM      4  C   UNL     1       9.807  -0.912  23.851  0.00  0.00    +0.131 A 
ATOM      5  C   UNL     1       8.554  -0.289  23.699  0.00  0.00    +0.086 A 
ATOM      6  C   UNL     1       7.187  -0.617  23.401  0.00  0.00    +0.105 A 
ATOM      7  N   UNL     1       6.448   0.511  23.300  0.00  0.00    -0.168 NA
ATOM      8  N   UNL     1       7.295   1.520  23.577  0.00  0.00    -0.241 N 
ATOM      9  C   UNL     1       8.561   1.095  23.854  0.00  0.00    +0.164 A 
ATOM     10  N   UNL     1       9.606   1.877  24.177  0.00  0.00    -0.216 NA
ATOM     11  C   UNL     1      10.720   1.161  24.363  0.00  0.00    +0.225 A 
ATOM     12  N   UNL     1      10.875  -0.165  24.205  0.00  0.00    -0.220 NA
ENDROOT
BRANCH   8  13
ATOM     13  C   UNL     1       6.848   2.908  23.484  0.00  0.00    +0.127 C 
ATOM     14  C   UNL     1       7.019   3.637  24.834  0.00  0.00    +0.135 C 
ATOM     15  N   UNL     1       6.726   5.080  24.728  0.00  0.00    -0.296 N 
ATOM     16  C   UNL     1       5.862   5.849  25.495  0.00  0.00    +0.239 C 
ATOM     17  O   UNL     1       5.711   7.055  25.295  0.00  0.00    -0.271 OA
ATOM     18  C   UNL     1       7.485   5.765  23.683  0.00  0.00    +0.108 C 
ATOM     19  C   UNL     1       7.158   5.147  22.331  0.00  0.00    +0.021 C 
ATOM     20  C   UNL     1       7.526   3.662  22.324  0.00  0.00    +0.030 C 
BRANCH  16  21
ATOM     21  C   UNL     1       5.087   5.197  26.585  0.00  0.00    +0.060 C 
ATOM     22  C   UNL     1       3.756   5.072  26.468  0.00  0.00    +0.013 C 
ENDBRANCH  16  21
ENDBRANCH   8  13
BRANCH   6  23
ATOM     23  C   UNL     1       6.517  -1.918  23.165  0.00  0.00    +0.003 A 
ATOM     24  C   UNL     1       5.579  -2.385  24.107  0.00  0.00    +0.014 A 
ATOM     25  C   UNL     1       4.890  -3.598  23.942  0.00  0.00    +0.047 A 
ATOM     26  C   UNL     1       5.130  -4.381  22.819  0.00  0.00    +0.128 A 
ATOM     27  C   UNL     1       6.072  -3.944  21.881  0.00  0.00    +0.047 A 
ATOM     28  C   UNL     1       6.776  -2.738  22.062  0.00  0.00    +0.014 A 
BRANCH  26  29
ATOM     29  O   UNL     1       4.436  -5.522  22.488  0.00  0.00    -0.456 OA
BRANCH  29  30
ATOM     30  C   UNL     1       3.420  -5.997  23.286  0.00  0.00    +0.128 A 
ATOM     31  C   UNL     1       2.123  -5.478  23.272  0.00  0.00    +0.046 A 
ATOM     32  C   UNL     1       1.195  -5.895  24.232  0.00  0.00    +0.004 A 
ATOM     33  C   UNL     1       1.562  -6.819  25.213  0.00  0.00    +0.000 A 
ATOM     34  C   UNL     1       2.853  -7.344  25.224  0.00  0.00    +0.004 A 
ATOM     35  C   UNL     1       3.781  -6.930  24.264  0.00  0.00    +0.046 A 
ENDBRANCH  29  30
ENDBRANCH  26  29
ENDBRANCH   6  23
TORSDOF 5
ENDMDL
MODEL 9
REMARK VINA RESULT:      -6.5      1.964      3.310
REMARK  Name = 
REMARK  5 active torsions:
REMARK  status: ('A' for Active; 'I' for Inactive)
REMARK    1  A    between atoms: C_8  and  C_22
REMARK    2  A    between atoms: N_10  and  C_11
REMARK    3  A    between atoms: C_18  and  C_20
REMARK    4  A    between atoms: C_25  and  O_26
REMARK    5  A    between atoms: O_26  and  C_27
REMARK                            x       y       z     vdW  Elec       q    Type
REMARK                         _______ _______ _______ _____ _____    ______ ____
ROOT
ATOM      1  N   UNL     1      10.945   0.750  23.973  0.00  0.00    -0.342 N 
ATOM      2  H   UNL     1      10.709  -0.009  23.344  0.00  0.00    +0.144 HD
ATOM      3  H   UNL     1      11.915   1.050  23.901  0.00  0.00    +0.144 HD
ATOM      4  C   UNL     1      10.133   1.865  23.802  0.00  0.00    +0.131 A 
ATOM      5  C   UNL     1       8.739   1.853  23.610  0.00  0.00    +0.086 A 
ATOM      6  C   UNL     1       7.634   0.934  23.604  0.00  0.00    +0.105 A 
ATOM      7  N   UNL     1       6.500   1.572  23.235  0.00  0.00    -0.168 NA
ATOM      8  N   UNL     1       6.853   2.860  23.065  0.00  0.00    -0.241 N 
ATOM      9  C   UNL     1       8.175   3.090  23.308  0.00  0.00    +0.164 A 
ATOM     10  N   UNL     1       8.800   4.278  23.231  0.00  0.00    -0.216 NA
ATOM     11  C   UNL     1      10.105   4.167  23.500  0.00  0.00    +0.225 A 
ATOM     12  N   UNL     1      10.793   3.042  23.762  0.00  0.00    -0.220 NA
ENDROOT
BRANCH   8  13
ATOM     13  C   UNL     1       5.878   3.837  22.584  0.00  0.00    +0.127 C 
ATOM     14  C   UNL     1       4.443   3.269  22.655  0.00  0.00    +0.135 C 
ATOM     15  N   UNL     1       3.426   4.287  22.326  0.00  0.00    -0.296 N 
ATOM     16  C   UNL     1       2.397   4.219  21.398  0.00  0.00    +0.239 C 
ATOM     17  O   UNL     1       1.613   5.152  21.224  0.00  0.00    -0.271 OA
ATOM     18  C   UNL     1       3.528   5.508  23.124  0.00  0.00    +0.108 C 
ATOM     19  C   UNL     1       4.888   6.152  22.894  0.00  0.00    +0.021 C 
ATOM     20  C   UNL     1       6.006   5.192  23.305  0.00  0.00    +0.030 C 
BRANCH  16  21
ATOM     21  C   UNL     1       2.242   2.985  20.581  0.00  0.00    +0.060 C 
ATOM     22  C   UNL     1       1.139   2.232  20.720  0.00  0.00    +0.013 C 
ENDBRANCH  16  21
ENDBRANCH   8  13
BRANCH   6  23
ATOM     23  C   UNL     1       7.561  -0.519  23.885  0.00  0.00    +0.003 A 
ATOM     24  C   UNL     1       8.240  -1.415  23.035  0.00  0.00    +0.014 A 
ATOM     25  C   UNL     1       8.232  -2.803  23.250  0.00  0.00    +0.047 A 
ATOM     26  C   UNL     1       7.535  -3.331  24.329  0.00  0.00    +0.128 A 
ATOM     27  C   UNL     1       6.838  -2.459  25.174  0.00  0.00    +0.047 A 
ATOM     28  C   UNL     1       6.831  -1.071  24.942  0.00  0.00    +0.014 A 
BRANCH  26  29
ATOM     29  O   UNL     1       7.550  -4.654  24.710  0.00  0.00    -0.456 OA
BRANCH  29  30
ATOM     30  C   UNL     1       6.383  -5.338  24.964  0.00  0.00    +0.128 A 
ATOM     31  C   UNL     1       6.056  -5.865  26.214  0.00  0.00    +0.046 A 
ATOM     32  C   UNL     1       4.938  -6.695  26.350  0.00  0.00    +0.004 A 
ATOM     33  C   UNL     1       4.154  -7.009  25.239  0.00  0.00    +0.000 A 
ATOM     34  C   UNL     1       4.473  -6.477  23.991  0.00  0.00    +0.004 A 
ATOM     35  C   UNL     1       5.589  -5.646  23.854  0.00  0.00    +0.046 A 
ENDBRANCH  29  30
ENDBRANCH  26  29
ENDBRANCH   6  23
TORSDOF 5
ENDMDL
