MODEL 1
REMARK VINA RESULT:      -6.4      0.000      0.000
REMARK  Name = 
REMARK  2 active torsions:
REMARK  status: ('A' for Active; 'I' for Inactive)
REMARK    1  A    between atoms: C_1  and  C_2
REMARK    2  A    between atoms: C_2  and  C_3
REMARK                            x       y       z     vdW  Elec       q    Type
REMARK                         _______ _______ _______ _____ _____    ______ ____
ROOT
ATOM      1  C   UNL     1       8.834   3.106  23.772  0.00  0.00    +0.011 C 
ATOM      2  C   UNL     1      10.154   2.370  23.456  0.00  0.00    -0.022 C 
ATOM      3  C   UNL     1      10.148   1.873  21.986  0.00  0.00    +0.087 C 
ATOM      4  C   UNL     1       9.131   0.770  21.716  0.00  0.00    +0.172 C 
ATOM      5  O   UNL     1       8.575   0.676  20.623  0.00  0.00    -0.291 OA
ATOM      6  C   UNL     1       8.977  -0.155  22.806  0.00  0.00    +0.079 A 
ATOM      7  S   UNL     1       8.082  -1.581  22.713  0.00  0.00    -0.049 S 
ATOM      8  C   UNL     1       8.555  -1.987  24.340  0.00  0.00    +0.162 A 
ATOM      9  N   UNL     1       8.141  -3.146  24.930  0.00  0.00    -0.305 N 
ATOM     10  C   UNL     1       8.168  -4.399  24.152  0.00  0.00    +0.135 C 
ATOM     11  C   UNL     1       7.255  -5.439  24.819  0.00  0.00    +0.179 C 
ATOM     12  O   UNL     1       7.637  -5.671  26.183  0.00  0.00    -0.377 OA
ATOM     13  C   UNL     1       7.574  -4.446  26.935  0.00  0.00    +0.179 C 
ATOM     14  C   UNL     1       8.498  -3.366  26.343  0.00  0.00    +0.135 C 
ATOM     15  N   UNL     1       9.273  -1.048  24.931  0.00  0.00    -0.229 NA
ATOM     16  C   UNL     1       9.527  -0.006  24.057  0.00  0.00    +0.062 A 
ATOM     17  C   UNL     1      10.358   1.177  24.443  0.00  0.00    +0.063 C 
ATOM     18  C   UNL     1      11.308   3.376  23.613  0.00  0.00    +0.011 C 
ENDROOT
TORSDOF 0
ENDMDL
MODEL 2
REMARK VINA RESULT:      -6.3      2.132      6.750
REMARK  Name = 
REMARK  2 active torsions:
REMARK  status: ('A' for Active; 'I' for Inactive)
REMARK    1  A    between atoms: C_1  and  C_2
REMARK    2  A    between atoms: C_2  and  C_3
REMARK                            x       y       z     vdW  Elec       q    Type
REMARK                         _______ _______ _______ _____ _____    ______ ____
ROOT
ATOM      1  C   UNL     1       5.301  -4.845  23.624  0.00  0.00    +0.011 C 
ATOM      2  C   UNL     1       6.371  -5.031  22.526  0.00  0.00    -0.022 C 
ATOM      3  C   UNL     1       7.659  -5.646  23.138  0.00  0.00    +0.087 C 
ATOM      4  C   UNL     1       8.387  -4.711  24.097  0.00  0.00    +0.172 C 
ATOM      5  O   UNL     1       9.004  -5.153  25.065  0.00  0.00    -0.291 OA
ATOM      6  C   UNL     1       8.348  -3.330  23.701  0.00  0.00    +0.079 A 
ATOM      7  S   UNL     1       9.235  -2.108  24.452  0.00  0.00    -0.049 S 
ATOM      8  C   UNL     1       8.631  -0.954  23.294  0.00  0.00    +0.162 A 
ATOM      9  N   UNL     1       9.012   0.356  23.333  0.00  0.00    -0.305 N 
ATOM     10  C   UNL     1      10.432   0.685  23.564  0.00  0.00    +0.135 C 
ATOM     11  C   UNL     1      10.552   2.145  24.026  0.00  0.00    +0.179 C 
ATOM     12  O   UNL     1       9.963   3.044  23.076  0.00  0.00    -0.377 OA
ATOM     13  C   UNL     1       8.572   2.730  22.886  0.00  0.00    +0.179 C 
ATOM     14  C   UNL     1       8.378   1.287  22.384  0.00  0.00    +0.135 C 
ATOM     15  N   UNL     1       7.747  -1.463  22.453  0.00  0.00    -0.229 NA
ATOM     16  C   UNL     1       7.590  -2.820  22.673  0.00  0.00    +0.062 A 
ATOM     17  C   UNL     1       6.682  -3.666  21.837  0.00  0.00    +0.063 C 
ATOM     18  C   UNL     1       5.818  -6.024  21.488  0.00  0.00    +0.011 C 
ENDROOT
TORSDOF 0
ENDMDL
MODEL 3
REMARK VINA RESULT:      -6.2      2.529      3.305
REMARK  Name = 
REMARK  2 active torsions:
REMARK  status: ('A' for Active; 'I' for Inactive)
REMARK    1  A    between atoms: C_1  and  C_2
REMARK    2  A    between atoms: C_2  and  C_3
REMARK                            x       y       z     vdW  Elec       q    Type
REMARK                         _______ _______ _______ _____ _____    ______ ____
ROOT
ATOM      1  C   UNL     1       8.890   2.489  22.278  0.00  0.00    +0.011 C 
ATOM      2  C   UNL     1       8.040   2.207  23.536  0.00  0.00    -0.022 C 
ATOM      3  C   UNL     1       8.961   1.805  24.720  0.00  0.00    +0.087 C 
ATOM      4  C   UNL     1       9.651   0.460  24.529  0.00  0.00    +0.172 C 
ATOM      5  O   UNL     1      10.774   0.254  24.987  0.00  0.00    -0.291 OA
ATOM      6  C   UNL     1       8.835  -0.521  23.866  0.00  0.00    +0.079 A 
ATOM      7  S   UNL     1       9.257  -2.145  23.705  0.00  0.00    -0.049 S 
ATOM      8  C   UNL     1       7.731  -2.468  22.928  0.00  0.00    +0.162 A 
ATOM      9  N   UNL     1       7.397  -3.725  22.516  0.00  0.00    -0.305 N 
ATOM     10  C   UNL     1       7.675  -4.870  23.404  0.00  0.00    +0.135 C 
ATOM     11  C   UNL     1       7.661  -6.171  22.586  0.00  0.00    +0.179 C 
ATOM     12  O   UNL     1       6.413  -6.342  21.899  0.00  0.00    -0.377 OA
ATOM     13  C   UNL     1       6.172  -5.233  21.014  0.00  0.00    +0.179 C 
ATOM     14  C   UNL     1       6.135  -3.896  21.776  0.00  0.00    +0.135 C 
ATOM     15  N   UNL     1       6.999  -1.385  22.732  0.00  0.00    -0.229 NA
ATOM     16  C   UNL     1       7.618  -0.273  23.276  0.00  0.00    +0.062 A 
ATOM     17  C   UNL     1       6.994   1.086  23.242  0.00  0.00    +0.063 C 
ATOM     18  C   UNL     1       7.314   3.509  23.919  0.00  0.00    +0.011 C 
ENDROOT
TORSDOF 0
ENDMDL
MODEL 4
REMARK VINA RESULT:      -6.1      2.473      7.021
REMARK  Name = 
REMARK  2 active torsions:
REMARK  status: ('A' for Active; 'I' for Inactive)
REMARK    1  A    between atoms: C_1  and  C_2
REMARK    2  A    between atoms: C_2  and  C_3
REMARK                            x       y       z     vdW  Elec       q    Type
REMARK                         _______ _______ _______ _____ _____    ______ ____
ROOT
ATOM      1  C   UNL     1       5.065  -5.359  25.016  0.00  0.00    +0.011 C 
ATOM      2  C   UNL     1       4.804  -5.254  23.498  0.00  0.00    -0.022 C 
ATOM      3  C   UNL     1       5.923  -5.991  22.713  0.00  0.00    +0.087 C 
ATOM      4  C   UNL     1       7.288  -5.322  22.821  0.00  0.00    +0.172 C 
ATOM      5  O   UNL     1       8.322  -5.988  22.807  0.00  0.00    -0.291 OA
ATOM      6  C   UNL     1       7.229  -3.885  22.841  0.00  0.00    +0.079 A 
ATOM      7  S   UNL     1       8.583  -2.884  22.747  0.00  0.00    -0.049 S 
ATOM      8  C   UNL     1       7.549  -1.482  22.752  0.00  0.00    +0.162 A 
ATOM      9  N   UNL     1       8.065  -0.221  22.672  0.00  0.00    -0.305 N 
ATOM     10  C   UNL     1       9.151   0.052  21.711  0.00  0.00    +0.135 C 
ATOM     11  C   UNL     1       9.873   1.350  22.107  0.00  0.00    +0.179 C 
ATOM     12  O   UNL     1       8.960   2.454  22.179  0.00  0.00    -0.377 OA
ATOM     13  C   UNL     1       7.925   2.186  23.142  0.00  0.00    +0.179 C 
ATOM     14  C   UNL     1       7.133   0.915  22.786  0.00  0.00    +0.135 C 
ATOM     15  N   UNL     1       6.268  -1.770  22.905  0.00  0.00    -0.229 NA
ATOM     16  C   UNL     1       6.078  -3.140  22.945  0.00  0.00    +0.062 A 
ATOM     17  C   UNL     1       4.720  -3.755  23.066  0.00  0.00    +0.063 C 
ATOM     18  C   UNL     1       3.469  -5.957  23.195  0.00  0.00    +0.011 C 
ENDROOT
TORSDOF 0
ENDMDL
MODEL 5
REMARK VINA RESULT:      -6.1      2.199      6.639
REMARK  Name = 
REMARK  2 active torsions:
REMARK  status: ('A' for Active; 'I' for Inactive)
REMARK    1  A    between atoms: C_1  and  C_2
REMARK    2  A    between atoms: C_2  and  C_3
REMARK                            x       y       z     vdW  Elec       q    Type
REMARK                         _______ _______ _______ _____ _____    ______ ____
ROOT
ATOM      1  C   UNL     1       5.227  -4.941  25.453  0.00  0.00    +0.011 C 
ATOM      2  C   UNL     1       5.252  -4.710  23.927  0.00  0.00    -0.022 C 
ATOM      3  C   UNL     1       6.462  -5.449  23.296  0.00  0.00    +0.087 C 
ATOM      4  C   UNL     1       7.812  -4.867  23.699  0.00  0.00    +0.172 C 
ATOM      5  O   UNL     1       8.802  -5.588  23.815  0.00  0.00    -0.291 OA
ATOM      6  C   UNL     1       7.811  -3.436  23.827  0.00  0.00    +0.079 A 
ATOM      7  S   UNL     1       9.200  -2.508  24.057  0.00  0.00    -0.049 S 
ATOM      8  C   UNL     1       8.243  -1.053  23.993  0.00  0.00    +0.162 A 
ATOM      9  N   UNL     1       8.817   0.179  24.110  0.00  0.00    -0.305 N 
ATOM     10  C   UNL     1      10.070   0.460  23.384  0.00  0.00    +0.135 C 
ATOM     11  C   UNL     1      10.762   1.682  24.007  0.00  0.00    +0.179 C 
ATOM     12  O   UNL     1       9.898   2.828  24.006  0.00  0.00    -0.377 OA
ATOM     13  C   UNL     1       8.696   2.548  24.745  0.00  0.00    +0.179 C 
ATOM     14  C   UNL     1       7.928   1.353  24.150  0.00  0.00    +0.135 C 
ATOM     15  N   UNL     1       6.944  -1.279  23.892  0.00  0.00    -0.229 NA
ATOM     16  C   UNL     1       6.693  -2.636  23.785  0.00  0.00    +0.062 A 
ATOM     17  C   UNL     1       5.310  -3.181  23.611  0.00  0.00    +0.063 C 
ATOM     18  C   UNL     1       3.965  -5.313  23.335  0.00  0.00    +0.011 C 
ENDROOT
TORSDOF 0
ENDMDL
MODEL 6
REMARK VINA RESULT:      -6.1      1.828      6.751
REMARK  Name = 
REMARK  2 active torsions:
REMARK  status: ('A' for Active; 'I' for Inactive)
REMARK    1  A    between atoms: C_1  and  C_2
REMARK    2  A    between atoms: C_2  and  C_3
REMARK                            x       y       z     vdW  Elec       q    Type
REMARK                         _______ _______ _______ _____ _____    ______ ____
ROOT
ATOM      1  C   UNL     1       6.894  -4.557  27.252  0.00  0.00    +0.011 C 
ATOM      2  C   UNL     1       6.629  -5.050  25.813  0.00  0.00    -0.022 C 
ATOM      3  C   UNL     1       7.914  -5.695  25.226  0.00  0.00    +0.087 C 
ATOM      4  C   UNL     1       9.044  -4.701  24.989  0.00  0.00    +0.172 C 
ATOM      5  O   UNL     1      10.221  -5.039  25.110  0.00  0.00    -0.291 OA
ATOM      6  C   UNL     1       8.596  -3.412  24.535  0.00  0.00    +0.079 A 
ATOM      7  S   UNL     1       9.627  -2.190  23.999  0.00  0.00    -0.049 S 
ATOM      8  C   UNL     1       8.250  -1.190  23.624  0.00  0.00    +0.162 A 
ATOM      9  N   UNL     1       8.403   0.054  23.085  0.00  0.00    -0.305 N 
ATOM     10  C   UNL     1       9.384   0.253  22.000  0.00  0.00    +0.135 C 
ATOM     11  C   UNL     1       9.721   1.746  21.879  0.00  0.00    +0.179 C 
ATOM     12  O   UNL     1       8.541   2.532  21.656  0.00  0.00    -0.377 OA
ATOM     13  C   UNL     1       7.609   2.352  22.738  0.00  0.00    +0.179 C 
ATOM     14  C   UNL     1       7.196   0.877  22.894  0.00  0.00    +0.135 C 
ATOM     15  N   UNL     1       7.095  -1.729  23.972  0.00  0.00    -0.229 NA
ATOM     16  C   UNL     1       7.285  -3.002  24.482  0.00  0.00    +0.062 A 
ATOM     17  C   UNL     1       6.144  -3.868  24.916  0.00  0.00    +0.063 C 
ATOM     18  C   UNL     1       5.539  -6.135  25.876  0.00  0.00    +0.011 C 
ENDROOT
TORSDOF 0
ENDMDL
MODEL 7
REMARK VINA RESULT:      -6.0      1.879      2.680
REMARK  Name = 
REMARK  2 active torsions:
REMARK  status: ('A' for Active; 'I' for Inactive)
REMARK    1  A    between atoms: C_1  and  C_2
REMARK    2  A    between atoms: C_2  and  C_3
REMARK                            x       y       z     vdW  Elec       q    Type
REMARK                         _______ _______ _______ _____ _____    ______ ____
ROOT
ATOM      1  C   UNL     1       8.653   1.472  21.283  0.00  0.00    +0.011 C 
ATOM      2  C   UNL     1       7.911   1.988  22.535  0.00  0.00    -0.022 C 
ATOM      3  C   UNL     1       8.931   2.336  23.653  0.00  0.00    +0.087 C 
ATOM      4  C   UNL     1       9.650   1.120  24.224  0.00  0.00    +0.172 C 
ATOM      5  O   UNL     1      10.811   1.202  24.623  0.00  0.00    -0.291 OA
ATOM      6  C   UNL     1       8.822  -0.050  24.324  0.00  0.00    +0.079 A 
ATOM      7  S   UNL     1       9.286  -1.471  25.103  0.00  0.00    -0.049 S 
ATOM      8  C   UNL     1       7.718  -2.161  24.786  0.00  0.00    +0.162 A 
ATOM      9  N   UNL     1       7.396  -3.417  25.210  0.00  0.00    -0.305 N 
ATOM     10  C   UNL     1       7.779  -3.836  26.572  0.00  0.00    +0.135 C 
ATOM     11  C   UNL     1       7.748  -5.369  26.667  0.00  0.00    +0.179 C 
ATOM     12  O   UNL     1       6.459  -5.888  26.312  0.00  0.00    -0.377 OA
ATOM     13  C   UNL     1       6.114  -5.498  24.971  0.00  0.00    +0.179 C 
ATOM     14  C   UNL     1       6.089  -3.967  24.812  0.00  0.00    +0.135 C 
ATOM     15  N   UNL     1       6.936  -1.383  24.057  0.00  0.00    -0.229 NA
ATOM     16  C   UNL     1       7.556  -0.172  23.801  0.00  0.00    +0.062 A 
ATOM     17  C   UNL     1       6.884   0.923  23.034  0.00  0.00    +0.063 C 
ATOM     18  C   UNL     1       7.171   3.281  22.148  0.00  0.00    +0.011 C 
ENDROOT
TORSDOF 0
ENDMDL
MODEL 8
REMARK VINA RESULT:      -5.9      1.683      6.505
REMARK  Name = 
REMARK  2 active torsions:
REMARK  status: ('A' for Active; 'I' for Inactive)
REMARK    1  A    between atoms: C_1  and  C_2
REMARK    2  A    between atoms: C_2  and  C_3
REMARK                            x       y       z     vdW  Elec       q    Type
REMARK                         _______ _______ _______ _____ _____    ______ ____
ROOT
ATOM      1  C   UNL     1       8.338  -5.542  26.180  0.00  0.00    +0.011 C 
ATOM      2  C   UNL     1       6.967  -4.868  25.956  0.00  0.00    -0.022 C 
ATOM      3  C   UNL     1       6.428  -5.215  24.541  0.00  0.00    +0.087 C 
ATOM      4  C   UNL     1       7.242  -4.600  23.409  0.00  0.00    +0.172 C 
ATOM      5  O   UNL     1       7.367  -5.180  22.332  0.00  0.00    -0.291 OA
ATOM      6  C   UNL     1       7.742  -3.284  23.703  0.00  0.00    +0.079 A 
ATOM      7  S   UNL     1       8.493  -2.286  22.571  0.00  0.00    -0.049 S 
ATOM      8  C   UNL     1       8.620  -1.023  23.765  0.00  0.00    +0.162 A 
ATOM      9  N   UNL     1       9.176   0.186  23.462  0.00  0.00    -0.305 N 
ATOM     10  C   UNL     1       8.827   0.838  22.186  0.00  0.00    +0.135 C 
ATOM     11  C   UNL     1       9.881   1.904  21.848  0.00  0.00    +0.179 C 
ATOM     12  O   UNL     1      10.004   2.869  22.903  0.00  0.00    -0.377 OA
ATOM     13  C   UNL     1      10.376   2.221  24.133  0.00  0.00    +0.179 C 
ATOM     14  C   UNL     1       9.340   1.163  24.553  0.00  0.00    +0.135 C 
ATOM     15  N   UNL     1       8.195  -1.384  24.964  0.00  0.00    -0.229 NA
ATOM     16  C   UNL     1       7.682  -2.669  24.932  0.00  0.00    +0.062 A 
ATOM     17  C   UNL     1       7.087  -3.322  26.139  0.00  0.00    +0.063 C 
ATOM     18  C   UNL     1       5.983  -5.439  26.992  0.00  0.00    +0.011 C 
ENDROOT
TORSDOF 0
ENDMDL
MODEL 9
REMARK VINA RESULT:      -5.8      1.898      6.967
REMARK  Name = 
REMARK  2 active torsions:
REMARK  status: ('A' for Active; 'I' for Inactive)
REMARK    1  A    between atoms: C_1  and  C_2
REMARK    2  A    between atoms: C_2  and  C_3
REMARK                            x       y       z     vdW  Elec       q    Type
REMARK                         _______ _______ _______ _____ _____    ______ ____
ROOT
ATOM      1  C   UNL     1       4.189  -4.449  25.302  0.00  0.00    +0.011 C 
ATOM      2  C   UNL     1       5.341  -5.193  24.592  0.00  0.00    -0.022 C 
ATOM      3  C   UNL     1       6.388  -5.671  25.634  0.00  0.00    +0.087 C 
ATOM      4  C   UNL     1       7.149  -4.532  26.303  0.00  0.00    +0.172 C 
ATOM      5  O   UNL     1       7.530  -4.625  27.469  0.00  0.00    -0.291 OA
ATOM      6  C   UNL     1       7.436  -3.432  25.423  0.00  0.00    +0.079 A 
ATOM      7  S   UNL     1       8.435  -2.136  25.829  0.00  0.00    -0.049 S 
ATOM      8  C   UNL     1       8.232  -1.475  24.230  0.00  0.00    +0.162 A 
ATOM      9  N   UNL     1       8.854  -0.319  23.856  0.00  0.00    -0.305 N 
ATOM     10  C   UNL     1      10.266  -0.109  24.229  0.00  0.00    +0.135 C 
ATOM     11  C   UNL     1      10.607   1.386  24.131  0.00  0.00    +0.179 C 
ATOM     12  O   UNL     1      10.340   1.897  22.817  0.00  0.00    -0.377 OA
ATOM     13  C   UNL     1       8.953   1.714  22.481  0.00  0.00    +0.179 C 
ATOM     14  C   UNL     1       8.549   0.229  22.523  0.00  0.00    +0.135 C 
ATOM     15  N   UNL     1       7.387  -2.159  23.478  0.00  0.00    -0.229 NA
ATOM     16  C   UNL     1       6.939  -3.284  24.150  0.00  0.00    +0.062 A 
ATOM     17  C   UNL     1       6.005  -4.270  23.522  0.00  0.00    +0.063 C 
ATOM     18  C   UNL     1       4.749  -6.439  23.907  0.00  0.00    +0.011 C 
ENDROOT
TORSDOF 0
ENDMDL
