MODEL 1
REMARK VINA RESULT:      -6.9      0.000      0.000
REMARK  Name = 
REMARK  7 active torsions:
REMARK  status: ('A' for Active; 'I' for Inactive)
REMARK    1  A    between atoms: C_1  and  N_2
REMARK    2  A    between atoms: N_2  and  C_3
REMARK    3  A    between atoms: N_6  and  C_7
REMARK    4  A    between atoms: C_7  and  C_8
REMARK    5  A    between atoms: C_8  and  O_9
REMARK    6  A    between atoms: C_8  and  C_10
REMARK    7  A    between atoms: C_8  and  C_16
REMARK                            x       y       z     vdW  Elec       q    Type
REMARK                         _______ _______ _______ _____ _____    ______ ____
ROOT
ATOM      1  C   UNL     1       8.459  -2.899  24.082  0.00  0.00    +0.106 C 
ENDROOT
BRANCH   1   2
ATOM      2  C   UNL     1       7.605  -3.802  23.180  0.00  0.00    -0.015 A 
ATOM      3  C   UNL     1       6.593  -3.286  22.348  0.00  0.00    +0.006 A 
ATOM      4  C   UNL     1       5.930  -4.096  21.421  0.00  0.00    +0.000 A 
ATOM      5  C   UNL     1       6.237  -5.448  21.329  0.00  0.00    +0.000 A 
ATOM      6  C   UNL     1       7.178  -5.999  22.193  0.00  0.00    +0.000 A 
ATOM      7  C   UNL     1       7.847  -5.186  23.115  0.00  0.00    +0.006 A 
ENDBRANCH   1   2
BRANCH   1   8
ATOM      8  C   UNL     1       7.948  -2.884  25.586  0.00  0.00    +0.026 C 
ATOM      9  C   UNL     1       8.599  -3.888  26.558  0.00  0.00    +0.007 C 
ATOM     10  C   UNL     1       8.032  -5.302  26.495  0.00  0.00    +0.000 C 
ATOM     11  C   UNL     1       6.518  -5.341  26.654  0.00  0.00    +0.000 C 
ATOM     12  C   UNL     1       5.779  -4.339  25.782  0.00  0.00    +0.000 C 
ATOM     13  C   UNL     1       6.405  -2.944  25.784  0.00  0.00    +0.007 C 
ENDBRANCH   1   8
BRANCH   1  14
ATOM     14  O   UNL     1       9.786  -3.500  24.100  0.00  0.00    -0.382 OA
ATOM     15  H   UNL     1      10.455  -2.806  24.034  0.00  0.00    +0.211 HD
ENDBRANCH   1  14
BRANCH   1  16
ATOM     16  C   UNL     1       8.676  -1.463  23.480  0.00  0.00    +0.124 C 
BRANCH  16  21
ATOM     17  C   UNL     1       8.136   2.979  23.426  0.00  0.00    +0.192 C 
ATOM     18  N   UNL     1       9.379   2.099  23.394  0.00  0.00    +0.241 N 
ATOM     19  C   UNL     1       9.308   1.207  22.126  0.00  0.00    +0.148 C 
ATOM     20  C   UNL     1      10.208  -0.046  22.209  0.00  0.00    +0.135 C 
ATOM     21  N   UNL     1      10.033  -0.842  23.440  0.00  0.00    -0.289 NA
ATOM     22  C   UNL     1      10.335   0.022  24.594  0.00  0.00    +0.135 C 
ATOM     23  C   UNL     1       9.414   1.254  24.707  0.00  0.00    +0.148 C 
ATOM     24  C   UNL     1      10.617   2.990  23.332  0.00  0.00    +0.192 C 
ENDBRANCH  16  21
ENDBRANCH   1  16
TORSDOF 5
ENDMDL
MODEL 2
REMARK VINA RESULT:      -6.4      2.250      6.601
REMARK  Name = 
REMARK  7 active torsions:
REMARK  status: ('A' for Active; 'I' for Inactive)
REMARK    1  A    between atoms: C_1  and  N_2
REMARK    2  A    between atoms: N_2  and  C_3
REMARK    3  A    between atoms: N_6  and  C_7
REMARK    4  A    between atoms: C_7  and  C_8
REMARK    5  A    between atoms: C_8  and  O_9
REMARK    6  A    between atoms: C_8  and  C_10
REMARK    7  A    between atoms: C_8  and  C_16
REMARK                            x       y       z     vdW  Elec       q    Type
REMARK                         _______ _______ _______ _____ _____    ______ ____
ROOT
ATOM      1  C   UNL     1       8.602  -1.077  24.503  0.00  0.00    +0.106 C 
ENDROOT
BRANCH   1   2
ATOM      2  C   UNL     1       7.718   0.162  24.707  0.00  0.00    -0.015 A 
ATOM      3  C   UNL     1       7.755   0.920  25.893  0.00  0.00    +0.006 A 
ATOM      4  C   UNL     1       7.061   2.129  26.005  0.00  0.00    +0.000 A 
ATOM      5  C   UNL     1       6.285   2.590  24.949  0.00  0.00    +0.000 A 
ATOM      6  C   UNL     1       6.169   1.821  23.795  0.00  0.00    +0.000 A 
ATOM      7  C   UNL     1       6.870   0.616  23.680  0.00  0.00    +0.006 A 
ENDBRANCH   1   2
BRANCH   1   8
ATOM      8  C   UNL     1       9.976  -0.730  23.785  0.00  0.00    +0.026 C 
ATOM      9  C   UNL     1      10.701   0.552  24.240  0.00  0.00    +0.007 C 
ATOM     10  C   UNL     1      10.177   1.841  23.618  0.00  0.00    +0.000 C 
ATOM     11  C   UNL     1      10.133   1.788  22.096  0.00  0.00    +0.000 C 
ATOM     12  C   UNL     1       9.492   0.528  21.539  0.00  0.00    +0.000 C 
ATOM     13  C   UNL     1       9.960  -0.754  22.229  0.00  0.00    +0.007 C 
ENDBRANCH   1   8
BRANCH   1  14
ATOM     14  O   UNL     1       8.939  -1.547  25.840  0.00  0.00    -0.382 OA
ATOM     15  H   UNL     1       9.567  -0.937  26.247  0.00  0.00    +0.211 HD
ENDBRANCH   1  14
BRANCH   1  16
ATOM     16  C   UNL     1       7.832  -2.274  23.836  0.00  0.00    +0.124 C 
BRANCH  16  21
ATOM     17  C   UNL     1       6.284  -5.493  21.140  0.00  0.00    +0.192 C 
ATOM     18  N   UNL     1       5.867  -5.036  22.532  0.00  0.00    +0.241 N 
ATOM     19  C   UNL     1       5.426  -3.551  22.443  0.00  0.00    +0.148 C 
ATOM     20  C   UNL     1       5.451  -2.823  23.805  0.00  0.00    +0.135 C 
ATOM     21  N   UNL     1       6.717  -2.966  24.549  0.00  0.00    -0.289 NA
ATOM     22  C   UNL     1       6.952  -4.400  24.787  0.00  0.00    +0.135 C 
ATOM     23  C   UNL     1       7.081  -5.232  23.495  0.00  0.00    +0.148 C 
ATOM     24  C   UNL     1       4.699  -5.895  23.009  0.00  0.00    +0.192 C 
ENDBRANCH  16  21
ENDBRANCH   1  16
TORSDOF 5
ENDMDL
MODEL 3
REMARK VINA RESULT:      -6.4      2.288      6.633
REMARK  Name = 
REMARK  7 active torsions:
REMARK  status: ('A' for Active; 'I' for Inactive)
REMARK    1  A    between atoms: C_1  and  N_2
REMARK    2  A    between atoms: N_2  and  C_3
REMARK    3  A    between atoms: N_6  and  C_7
REMARK    4  A    between atoms: C_7  and  C_8
REMARK    5  A    between atoms: C_8  and  O_9
REMARK    6  A    between atoms: C_8  and  C_10
REMARK    7  A    between atoms: C_8  and  C_16
REMARK                            x       y       z     vdW  Elec       q    Type
REMARK                         _______ _______ _______ _____ _____    ______ ____
ROOT
ATOM      1  C   UNL     1       9.007  -0.439  25.283  0.00  0.00    +0.106 C 
ENDROOT
BRANCH   1   2
ATOM      2  C   UNL     1       7.898   0.598  25.048  0.00  0.00    -0.015 A 
ATOM      3  C   UNL     1       7.757   1.739  25.860  0.00  0.00    +0.006 A 
ATOM      4  C   UNL     1       6.844   2.749  25.542  0.00  0.00    +0.000 A 
ATOM      5  C   UNL     1       6.027   2.627  24.425  0.00  0.00    +0.000 A 
ATOM      6  C   UNL     1       6.092   1.473  23.649  0.00  0.00    +0.000 A 
ATOM      7  C   UNL     1       7.012   0.466  23.963  0.00  0.00    +0.006 A 
ENDBRANCH   1   2
BRANCH   1   8
ATOM      8  C   UNL     1      10.300  -0.156  24.405  0.00  0.00    +0.026 C 
ATOM      9  C   UNL     1      10.774   1.308  24.307  0.00  0.00    +0.007 C 
ATOM     10  C   UNL     1      10.027   2.157  23.284  0.00  0.00    +0.000 C 
ATOM     11  C   UNL     1      10.006   1.529  21.896  0.00  0.00    +0.000 C 
ATOM     12  C   UNL     1       9.612   0.061  21.887  0.00  0.00    +0.000 C 
ATOM     13  C   UNL     1      10.302  -0.765  22.974  0.00  0.00    +0.007 C 
ENDBRANCH   1   8
BRANCH   1  14
ATOM     14  O   UNL     1       9.406  -0.281  26.675  0.00  0.00    -0.382 OA
ATOM     15  H   UNL     1       9.962   0.504  26.763  0.00  0.00    +0.211 HD
ENDBRANCH   1  14
BRANCH   1  16
ATOM     16  C   UNL     1       8.490  -1.920  25.178  0.00  0.00    +0.124 C 
BRANCH  16  21
ATOM     17  C   UNL     1       6.055  -5.429  23.844  0.00  0.00    +0.192 C 
ATOM     18  N   UNL     1       6.479  -4.943  25.224  0.00  0.00    +0.241 N 
ATOM     19  C   UNL     1       5.896  -3.521  25.437  0.00  0.00    +0.148 C 
ATOM     20  C   UNL     1       6.625  -2.720  26.538  0.00  0.00    +0.135 C 
ATOM     21  N   UNL     1       8.094  -2.686  26.397  0.00  0.00    -0.289 NA
ATOM     22  C   UNL     1       8.592  -4.072  26.426  0.00  0.00    +0.135 C 
ATOM     23  C   UNL     1       8.039  -4.955  25.289  0.00  0.00    +0.148 C 
ATOM     24  C   UNL     1       5.921  -5.894  26.280  0.00  0.00    +0.192 C 
ENDBRANCH  16  21
ENDBRANCH   1  16
TORSDOF 5
ENDMDL
MODEL 4
REMARK VINA RESULT:      -6.1      1.079      1.963
REMARK  Name = 
REMARK  7 active torsions:
REMARK  status: ('A' for Active; 'I' for Inactive)
REMARK    1  A    between atoms: C_1  and  N_2
REMARK    2  A    between atoms: N_2  and  C_3
REMARK    3  A    between atoms: N_6  and  C_7
REMARK    4  A    between atoms: C_7  and  C_8
REMARK    5  A    between atoms: C_8  and  O_9
REMARK    6  A    between atoms: C_8  and  C_10
REMARK    7  A    between atoms: C_8  and  C_16
REMARK                            x       y       z     vdW  Elec       q    Type
REMARK                         _______ _______ _______ _____ _____    ______ ____
ROOT
ATOM      1  C   UNL     1       8.121  -3.009  23.935  0.00  0.00    +0.106 C 
ENDROOT
BRANCH   1   2
ATOM      2  C   UNL     1       7.378  -3.938  22.964  0.00  0.00    -0.015 A 
ATOM      3  C   UNL     1       6.508  -3.443  21.974  0.00  0.00    +0.006 A 
ATOM      4  C   UNL     1       5.960  -4.285  21.001  0.00  0.00    +0.000 A 
ATOM      5  C   UNL     1       6.241  -5.645  21.015  0.00  0.00    +0.000 A 
ATOM      6  C   UNL     1       7.035  -6.172  22.029  0.00  0.00    +0.000 A 
ATOM      7  C   UNL     1       7.590  -5.328  22.998  0.00  0.00    +0.006 A 
ENDBRANCH   1   2
BRANCH   1   8
ATOM      8  C   UNL     1       7.477  -3.008  25.388  0.00  0.00    +0.026 C 
ATOM      9  C   UNL     1       6.167  -2.216  25.574  0.00  0.00    +0.007 C 
ATOM     10  C   UNL     1       6.348  -0.715  25.772  0.00  0.00    +0.000 C 
ATOM     11  C   UNL     1       7.316  -0.380  26.900  0.00  0.00    +0.000 C 
ATOM     12  C   UNL     1       8.621  -1.157  26.846  0.00  0.00    +0.000 C 
ATOM     13  C   UNL     1       8.435  -2.648  26.560  0.00  0.00    +0.007 C 
ENDBRANCH   1   8
BRANCH   1  14
ATOM     14  O   UNL     1       9.458  -3.570  24.074  0.00  0.00    -0.382 OA
ATOM     15  H   UNL     1       9.959  -3.413  23.263  0.00  0.00    +0.211 HD
ENDBRANCH   1  14
BRANCH   1  16
ATOM     16  C   UNL     1       8.348  -1.567  23.350  0.00  0.00    +0.124 C 
BRANCH  16  21
ATOM     17  C   UNL     1       8.131   2.883  22.940  0.00  0.00    +0.192 C 
ATOM     18  N   UNL     1       9.283   1.897  22.793  0.00  0.00    +0.241 N 
ATOM     19  C   UNL     1       8.932   0.908  21.650  0.00  0.00    +0.148 C 
ATOM     20  C   UNL     1       9.738  -0.407  21.710  0.00  0.00    +0.135 C 
ATOM     21  N   UNL     1       9.720  -1.075  23.026  0.00  0.00    -0.289 NA
ATOM     22  C   UNL     1      10.277  -0.144  24.023  0.00  0.00    +0.135 C 
ATOM     23  C   UNL     1       9.481   1.169  24.161  0.00  0.00    +0.148 C 
ATOM     24  C   UNL     1      10.554   2.666  22.440  0.00  0.00    +0.192 C 
ENDBRANCH  16  21
ENDBRANCH   1  16
TORSDOF 5
ENDMDL
MODEL 5
REMARK VINA RESULT:      -6.1      1.409      3.390
REMARK  Name = 
REMARK  7 active torsions:
REMARK  status: ('A' for Active; 'I' for Inactive)
REMARK    1  A    between atoms: C_1  and  N_2
REMARK    2  A    between atoms: N_2  and  C_3
REMARK    3  A    between atoms: N_6  and  C_7
REMARK    4  A    between atoms: C_7  and  C_8
REMARK    5  A    between atoms: C_8  and  O_9
REMARK    6  A    between atoms: C_8  and  C_10
REMARK    7  A    between atoms: C_8  and  C_16
REMARK                            x       y       z     vdW  Elec       q    Type
REMARK                         _______ _______ _______ _____ _____    ______ ____
ROOT
ATOM      1  C   UNL     1       6.727  -2.247  24.194  0.00  0.00    +0.106 C 
ENDROOT
BRANCH   1   2
ATOM      2  C   UNL     1       7.077  -3.269  25.286  0.00  0.00    -0.015 A 
ATOM      3  C   UNL     1       6.105  -4.106  25.866  0.00  0.00    +0.006 A 
ATOM      4  C   UNL     1       6.460  -5.134  26.744  0.00  0.00    +0.000 A 
ATOM      5  C   UNL     1       7.792  -5.328  27.090  0.00  0.00    +0.000 A 
ATOM      6  C   UNL     1       8.763  -4.466  26.592  0.00  0.00    +0.000 A 
ATOM      7  C   UNL     1       8.408  -3.442  25.707  0.00  0.00    +0.006 A 
ENDBRANCH   1   2
BRANCH   1   8
ATOM      8  C   UNL     1       6.723  -2.888  22.741  0.00  0.00    +0.026 C 
ATOM      9  C   UNL     1       5.368  -3.380  22.195  0.00  0.00    +0.007 C 
ATOM     10  C   UNL     1       4.941  -4.759  22.685  0.00  0.00    +0.000 C 
ATOM     11  C   UNL     1       6.006  -5.824  22.455  0.00  0.00    +0.000 C 
ATOM     12  C   UNL     1       7.399  -5.413  22.902  0.00  0.00    +0.000 C 
ATOM     13  C   UNL     1       7.785  -3.995  22.479  0.00  0.00    +0.007 C 
ENDBRANCH   1   8
BRANCH   1  14
ATOM     14  O   UNL     1       5.359  -1.828  24.468  0.00  0.00    -0.382 OA
ATOM     15  H   UNL     1       5.354  -0.900  24.737  0.00  0.00    +0.211 HD
ENDBRANCH   1  14
BRANCH   1  16
ATOM     16  C   UNL     1       7.580  -0.930  24.295  0.00  0.00    +0.124 C 
BRANCH  16  21
ATOM     17  C   UNL     1       8.791   3.358  24.715  0.00  0.00    +0.192 C 
ATOM     18  N   UNL     1       9.333   2.220  23.859  0.00  0.00    +0.241 N 
ATOM     19  C   UNL     1       8.196   1.734  22.922  0.00  0.00    +0.148 C 
ATOM     20  C   UNL     1       8.426   0.311  22.368  0.00  0.00    +0.135 C 
ATOM     21  N   UNL     1       8.749  -0.699  23.395  0.00  0.00    -0.289 NA
ATOM     22  C   UNL     1       9.973  -0.270  24.094  0.00  0.00    +0.135 C 
ATOM     23  C   UNL     1       9.836   1.089  24.810  0.00  0.00    +0.148 C 
ATOM     24  C   UNL     1      10.503   2.739  23.027  0.00  0.00    +0.192 C 
ENDBRANCH  16  21
ENDBRANCH   1  16
TORSDOF 5
ENDMDL
MODEL 6
REMARK VINA RESULT:      -5.9      2.461      5.063
REMARK  Name = 
REMARK  7 active torsions:
REMARK  status: ('A' for Active; 'I' for Inactive)
REMARK    1  A    between atoms: C_1  and  N_2
REMARK    2  A    between atoms: N_2  and  C_3
REMARK    3  A    between atoms: N_6  and  C_7
REMARK    4  A    between atoms: C_7  and  C_8
REMARK    5  A    between atoms: C_8  and  O_9
REMARK    6  A    between atoms: C_8  and  C_10
REMARK    7  A    between atoms: C_8  and  C_16
REMARK                            x       y       z     vdW  Elec       q    Type
REMARK                         _______ _______ _______ _____ _____    ______ ____
ROOT
ATOM      1  C   UNL     1       8.335  -1.314  23.907  0.00  0.00    +0.106 C 
ENDROOT
BRANCH   1   2
ATOM      2  C   UNL     1       8.421  -2.613  24.723  0.00  0.00    -0.015 A 
ATOM      3  C   UNL     1       9.405  -3.589  24.473  0.00  0.00    +0.006 A 
ATOM      4  C   UNL     1       9.568  -4.691  25.318  0.00  0.00    +0.000 A 
ATOM      5  C   UNL     1       8.731  -4.861  26.414  0.00  0.00    +0.000 A 
ATOM      6  C   UNL     1       7.701  -3.953  26.638  0.00  0.00    +0.000 A 
ATOM      7  C   UNL     1       7.543  -2.846  25.797  0.00  0.00    +0.006 A 
ENDBRANCH   1   2
BRANCH   1   8
ATOM      8  C   UNL     1       9.722  -0.922  23.241  0.00  0.00    +0.026 C 
ATOM      9  C   UNL     1      10.628   0.048  24.027  0.00  0.00    +0.007 C 
ATOM     10  C   UNL     1      10.266   1.523  23.883  0.00  0.00    +0.000 C 
ATOM     11  C   UNL     1      10.172   1.970  22.430  0.00  0.00    +0.000 C 
ATOM     12  C   UNL     1       9.350   1.043  21.549  0.00  0.00    +0.000 C 
ATOM     13  C   UNL     1       9.659  -0.440  21.763  0.00  0.00    +0.007 C 
ENDBRANCH   1   8
BRANCH   1  14
ATOM     14  O   UNL     1       7.413  -1.595  22.815  0.00  0.00    -0.382 OA
ATOM     15  H   UNL     1       7.813  -1.321  21.979  0.00  0.00    +0.211 HD
ENDBRANCH   1  14
BRANCH   1  16
ATOM     16  C   UNL     1       7.667  -0.136  24.705  0.00  0.00    +0.124 C 
BRANCH  16  21
ATOM     17  C   UNL     1       7.006   3.695  26.921  0.00  0.00    +0.192 C 
ATOM     18  N   UNL     1       6.129   2.907  25.957  0.00  0.00    +0.241 N 
ATOM     19  C   UNL     1       5.877   1.503  26.568  0.00  0.00    +0.148 C 
ATOM     20  C   UNL     1       5.441   0.451  25.526  0.00  0.00    +0.135 C 
ATOM     21  N   UNL     1       6.312   0.373  24.337  0.00  0.00    -0.289 NA
ATOM     22  C   UNL     1       6.322   1.694  23.685  0.00  0.00    +0.135 C 
ATOM     23  C   UNL     1       6.865   2.826  24.581  0.00  0.00    +0.148 C 
ATOM     24  C   UNL     1       4.802   3.640  25.779  0.00  0.00    +0.192 C 
ENDBRANCH  16  21
ENDBRANCH   1  16
TORSDOF 5
ENDMDL
MODEL 7
REMARK VINA RESULT:      -5.8      2.593      6.715
REMARK  Name = 
REMARK  7 active torsions:
REMARK  status: ('A' for Active; 'I' for Inactive)
REMARK    1  A    between atoms: C_1  and  N_2
REMARK    2  A    between atoms: N_2  and  C_3
REMARK    3  A    between atoms: N_6  and  C_7
REMARK    4  A    between atoms: C_7  and  C_8
REMARK    5  A    between atoms: C_8  and  O_9
REMARK    6  A    between atoms: C_8  and  C_10
REMARK    7  A    between atoms: C_8  and  C_16
REMARK                            x       y       z     vdW  Elec       q    Type
REMARK                         _______ _______ _______ _____ _____    ______ ____
ROOT
ATOM      1  C   UNL     1       6.755   0.487  23.809  0.00  0.00    +0.106 C 
ENDROOT
BRANCH   1   2
ATOM      2  C   UNL     1       8.238   0.834  24.010  0.00  0.00    -0.015 A 
ATOM      3  C   UNL     1       9.069   0.093  24.871  0.00  0.00    +0.006 A 
ATOM      4  C   UNL     1      10.448   0.323  24.928  0.00  0.00    +0.000 A 
ATOM      5  C   UNL     1      11.022   1.321  24.151  0.00  0.00    +0.000 A 
ATOM      6  C   UNL     1      10.211   2.120  23.349  0.00  0.00    +0.000 A 
ATOM      7  C   UNL     1       8.833   1.884  23.287  0.00  0.00    +0.006 A 
ENDBRANCH   1   2
BRANCH   1   8
ATOM      8  C   UNL     1       5.801   1.317  24.771  0.00  0.00    +0.026 C 
ATOM      9  C   UNL     1       5.136   2.578  24.182  0.00  0.00    +0.007 C 
ATOM     10  C   UNL     1       6.020   3.821  24.166  0.00  0.00    +0.000 C 
ATOM     11  C   UNL     1       6.614   4.142  25.531  0.00  0.00    +0.000 C 
ATOM     12  C   UNL     1       7.241   2.947  26.230  0.00  0.00    +0.000 C 
ATOM     13  C   UNL     1       6.386   1.681  26.166  0.00  0.00    +0.007 C 
ENDBRANCH   1   8
BRANCH   1  14
ATOM     14  O   UNL     1       6.434   0.899  22.449  0.00  0.00    -0.382 OA
ATOM     15  H   UNL     1       7.089   1.540  22.144  0.00  0.00    +0.211 HD
ENDBRANCH   1  14
BRANCH   1  16
ATOM     16  C   UNL     1       6.480  -1.061  23.838  0.00  0.00    +0.124 C 
BRANCH  16  21
ATOM     17  C   UNL     1       7.263  -5.281  25.100  0.00  0.00    +0.192 C 
ATOM     18  N   UNL     1       7.137  -4.630  23.729  0.00  0.00    +0.241 N 
ATOM     19  C   UNL     1       8.243  -3.550  23.602  0.00  0.00    +0.148 C 
ATOM     20  C   UNL     1       7.948  -2.496  22.512  0.00  0.00    +0.135 C 
ATOM     21  N   UNL     1       6.606  -1.888  22.601  0.00  0.00    -0.289 NA
ATOM     22  C   UNL     1       5.604  -2.962  22.490  0.00  0.00    +0.135 C 
ATOM     23  C   UNL     1       5.704  -4.022  23.606  0.00  0.00    +0.148 C 
ATOM     24  C   UNL     1       7.329  -5.696  22.653  0.00  0.00    +0.192 C 
ENDBRANCH  16  21
ENDBRANCH   1  16
TORSDOF 5
ENDMDL
MODEL 8
REMARK VINA RESULT:      -5.8      2.567      5.794
REMARK  Name = 
REMARK  7 active torsions:
REMARK  status: ('A' for Active; 'I' for Inactive)
REMARK    1  A    between atoms: C_1  and  N_2
REMARK    2  A    between atoms: N_2  and  C_3
REMARK    3  A    between atoms: N_6  and  C_7
REMARK    4  A    between atoms: C_7  and  C_8
REMARK    5  A    between atoms: C_8  and  O_9
REMARK    6  A    between atoms: C_8  and  C_10
REMARK    7  A    between atoms: C_8  and  C_16
REMARK                            x       y       z     vdW  Elec       q    Type
REMARK                         _______ _______ _______ _____ _____    ______ ____
ROOT
ATOM      1  C   UNL     1       7.294  -1.984  23.555  0.00  0.00    +0.106 C 
ENDROOT
BRANCH   1   2
ATOM      2  C   UNL     1       7.159  -3.349  22.865  0.00  0.00    -0.015 A 
ATOM      3  C   UNL     1       7.803  -4.501  23.354  0.00  0.00    +0.006 A 
ATOM      4  C   UNL     1       7.549  -5.764  22.808  0.00  0.00    +0.000 A 
ATOM      5  C   UNL     1       6.672  -5.899  21.739  0.00  0.00    +0.000 A 
ATOM      6  C   UNL     1       6.082  -4.766  21.188  0.00  0.00    +0.000 A 
ATOM      7  C   UNL     1       6.330  -3.504  21.739  0.00  0.00    +0.006 A 
ENDBRANCH   1   2
BRANCH   1   8
ATOM      8  C   UNL     1       8.795  -1.464  23.585  0.00  0.00    +0.026 C 
ATOM      9  C   UNL     1       9.058  -0.118  24.290  0.00  0.00    +0.007 C 
ATOM     10  C   UNL     1       8.763   1.116  23.445  0.00  0.00    +0.000 C 
ATOM     11  C   UNL     1       9.472   1.095  22.097  0.00  0.00    +0.000 C 
ATOM     12  C   UNL     1       9.329  -0.218  21.344  0.00  0.00    +0.000 C 
ATOM     13  C   UNL     1       9.542  -1.453  22.220  0.00  0.00    +0.007 C 
ENDBRANCH   1   8
BRANCH   1  14
ATOM     14  O   UNL     1       6.546  -1.047  22.728  0.00  0.00    -0.382 OA
ATOM     15  H   UNL     1       6.867  -1.094  21.818  0.00  0.00    +0.211 HD
ENDBRANCH   1  14
BRANCH   1  16
ATOM     16  C   UNL     1       6.587  -1.936  24.959  0.00  0.00    +0.124 C 
BRANCH  16  21
ATOM     17  C   UNL     1       5.166  -4.427  28.393  0.00  0.00    +0.192 C 
ATOM     18  N   UNL     1       4.430  -3.525  27.410  0.00  0.00    +0.241 N 
ATOM     19  C   UNL     1       4.659  -4.080  25.979  0.00  0.00    +0.148 C 
ATOM     20  C   UNL     1       4.407  -3.035  24.870  0.00  0.00    +0.135 C 
ATOM     21  N   UNL     1       5.109  -1.753  25.070  0.00  0.00    -0.289 NA
ATOM     22  C   UNL     1       4.668  -1.181  26.354  0.00  0.00    +0.135 C 
ATOM     23  C   UNL     1       4.981  -2.073  27.573  0.00  0.00    +0.148 C 
ATOM     24  C   UNL     1       2.940  -3.541  27.740  0.00  0.00    +0.192 C 
ENDBRANCH  16  21
ENDBRANCH   1  16
TORSDOF 5
ENDMDL
MODEL 9
REMARK VINA RESULT:      -5.7      2.014      4.127
REMARK  Name = 
REMARK  7 active torsions:
REMARK  status: ('A' for Active; 'I' for Inactive)
REMARK    1  A    between atoms: C_1  and  N_2
REMARK    2  A    between atoms: N_2  and  C_3
REMARK    3  A    between atoms: N_6  and  C_7
REMARK    4  A    between atoms: C_7  and  C_8
REMARK    5  A    between atoms: C_8  and  O_9
REMARK    6  A    between atoms: C_8  and  C_10
REMARK    7  A    between atoms: C_8  and  C_16
REMARK                            x       y       z     vdW  Elec       q    Type
REMARK                         _______ _______ _______ _____ _____    ______ ____
ROOT
ATOM      1  C   UNL     1       6.168  -3.268  24.513  0.00  0.00    +0.106 C 
ENDROOT
BRANCH   1   2
ATOM      2  C   UNL     1       5.504  -2.949  25.860  0.00  0.00    -0.015 A 
ATOM      3  C   UNL     1       4.649  -1.843  26.029  0.00  0.00    +0.006 A 
ATOM      4  C   UNL     1       3.932  -1.652  27.215  0.00  0.00    +0.000 A 
ATOM      5  C   UNL     1       4.078  -2.543  28.271  0.00  0.00    +0.000 A 
ATOM      6  C   UNL     1       4.976  -3.600  28.158  0.00  0.00    +0.000 A 
ATOM      7  C   UNL     1       5.687  -3.795  26.969  0.00  0.00    +0.006 A 
ENDBRANCH   1   2
BRANCH   1   8
ATOM      8  C   UNL     1       6.515  -4.811  24.358  0.00  0.00    +0.026 C 
ATOM      9  C   UNL     1       7.680  -5.176  23.416  0.00  0.00    +0.007 C 
ATOM     10  C   UNL     1       7.319  -5.221  21.935  0.00  0.00    +0.000 C 
ATOM     11  C   UNL     1       6.122  -6.117  21.645  0.00  0.00    +0.000 C 
ATOM     12  C   UNL     1       4.935  -5.881  22.564  0.00  0.00    +0.000 C 
ATOM     13  C   UNL     1       5.317  -5.752  24.039  0.00  0.00    +0.007 C 
ENDBRANCH   1   8
BRANCH   1  14
ATOM     14  O   UNL     1       5.170  -2.962  23.498  0.00  0.00    -0.382 OA
ATOM     15  H   UNL     1       4.872  -2.049  23.604  0.00  0.00    +0.211 HD
ENDBRANCH   1  14
BRANCH   1  16
ATOM     16  C   UNL     1       7.378  -2.319  24.188  0.00  0.00    +0.124 C 
BRANCH  16  21
ATOM     17  C   UNL     1      10.763   0.593  24.478  0.00  0.00    +0.192 C 
ATOM     18  N   UNL     1       9.760   0.297  23.370  0.00  0.00    +0.241 N 
ATOM     19  C   UNL     1       8.336   0.574  23.920  0.00  0.00    +0.148 C 
ATOM     20  C   UNL     1       7.222  -0.129  23.114  0.00  0.00    +0.135 C 
ATOM     21  N   UNL     1       7.446  -1.572  22.897  0.00  0.00    -0.289 NA
ATOM     22  C   UNL     1       8.717  -1.737  22.171  0.00  0.00    +0.135 C 
ATOM     23  C   UNL     1       9.942  -1.190  22.931  0.00  0.00    +0.148 C 
ATOM     24  C   UNL     1      10.045   1.215  22.184  0.00  0.00    +0.192 C 
ENDBRANCH  16  21
ENDBRANCH   1  16
TORSDOF 5
ENDMDL
