MODEL 1
REMARK VINA RESULT:      -4.9      0.000      0.000
REMARK  Name = 
REMARK  9 active torsions:
REMARK  status: ('A' for Active; 'I' for Inactive)
REMARK    1  A    between atoms: CA_2  and  N_3
REMARK    2  A    between atoms: CA_2  and  C_7
REMARK    3  A    between atoms: CA_2  and  C_18
REMARK    4  A    between atoms: C_7  and  C_8
REMARK    5  A    between atoms: C_9  and  C_14
REMARK    6  A    between atoms: C_14  and  C_15
REMARK    7  A    between atoms: C_14  and  C_16
REMARK    8  A    between atoms: C_14  and  C_17
REMARK    9  A    between atoms: C_18  and  O_19
REMARK                            x       y       z     vdW  Elec       q    Type
REMARK                         _______ _______ _______ _____ _____    ______ ____
ROOT
ATOM      1  C   UNL     1       9.541  -3.737  24.521  0.00  0.00    +0.102 C 
ENDROOT
BRANCH   1   2
ATOM      2  C   UNL     1       8.457  -2.854  23.994  0.00  0.00    -0.019 A 
ATOM      3  C   UNL     1       7.553  -3.352  23.008  0.00  0.00    +0.001 A 
ATOM      4  O   UNL     1       7.568  -4.633  22.687  0.00  0.00    -0.860 OA
ATOM      5  N   UNL     1       6.626  -2.551  22.531  0.00  0.00    -0.226 NA
ATOM      6  S   UNL     1       6.825  -1.076  23.223  0.00  0.00    +0.007 S 
ATOM      7  C   UNL     1       8.120  -1.530  24.306  0.00  0.00    +0.018 A 
BRANCH   7   8
ATOM      8  C   UNL     1       8.677  -0.470  25.270  0.00  0.00    -0.005 C 
ATOM      9  C   UNL     1       8.694  -0.930  26.737  0.00  0.00    +0.016 C 
ATOM     10  C   UNL     1       7.819   0.821  25.260  0.00  0.00    +0.016 C 
ATOM     11  C   UNL     1      10.118  -0.123  24.860  0.00  0.00    +0.016 C 
ENDBRANCH   7   8
ENDBRANCH   1   2
BRANCH   1  12
ATOM     12  CA  UNL     1       9.160  -4.548  25.743  0.00  0.00    +0.175 C 
BRANCH  12  13
ATOM     13  N   UNL     1       9.818  -5.923  25.610  0.00  0.00    +0.229 N 
ATOM     14  H1  UNL     1      10.297  -5.972  24.701  0.00  0.00    +0.200 HD
ATOM     15  H2  UNL     1       9.066  -6.627  25.581  0.00  0.00    +0.200 HD
ATOM     16  H3  UNL     1      10.480  -6.133  26.360  0.00  0.00    +0.200 HD
ENDBRANCH  12  13
BRANCH  12  17
ATOM     17  C   UNL     1       7.728  -4.804  26.228  0.00  0.00    +0.354 C 
ATOM     18  OXT UNL     1       7.429  -4.327  27.326  0.00  0.00    -0.245 OA
BRANCH  17  19
ATOM     19  O   UNL     1       6.893  -5.616  25.597  0.00  0.00    -0.477 OA
ATOM     20  H   UNL     1       7.183  -6.537  25.302  0.00  0.00    +0.295 HD
ENDBRANCH  17  19
ENDBRANCH  12  17
ENDBRANCH   1  12
TORSDOF 6
ENDMDL
MODEL 2
REMARK VINA RESULT:      -4.9      1.653      2.271
REMARK  Name = 
REMARK  9 active torsions:
REMARK  status: ('A' for Active; 'I' for Inactive)
REMARK    1  A    between atoms: CA_2  and  N_3
REMARK    2  A    between atoms: CA_2  and  C_7
REMARK    3  A    between atoms: CA_2  and  C_18
REMARK    4  A    between atoms: C_7  and  C_8
REMARK    5  A    between atoms: C_9  and  C_14
REMARK    6  A    between atoms: C_14  and  C_15
REMARK    7  A    between atoms: C_14  and  C_16
REMARK    8  A    between atoms: C_14  and  C_17
REMARK    9  A    between atoms: C_18  and  O_19
REMARK                            x       y       z     vdW  Elec       q    Type
REMARK                         _______ _______ _______ _____ _____    ______ ____
ROOT
ATOM      1  C   UNL     1       8.277  -5.151  24.289  0.00  0.00    +0.102 C 
ENDROOT
BRANCH   1   2
ATOM      2  C   UNL     1       7.325  -4.338  23.474  0.00  0.00    -0.019 A 
ATOM      3  C   UNL     1       6.199  -4.965  22.861  0.00  0.00    +0.001 A 
ATOM      4  O   UNL     1       5.907  -6.220  23.150  0.00  0.00    -0.860 OA
ATOM      5  N   UNL     1       5.390  -4.241  22.121  0.00  0.00    -0.226 NA
ATOM      6  S   UNL     1       5.985  -2.712  22.066  0.00  0.00    +0.007 S 
ATOM      7  C   UNL     1       7.314  -2.969  23.173  0.00  0.00    +0.018 A 
BRANCH   7   8
ATOM      8  C   UNL     1       8.213  -1.774  23.530  0.00  0.00    -0.005 C 
ATOM      9  C   UNL     1       7.924  -0.521  22.687  0.00  0.00    +0.016 C 
ATOM     10  C   UNL     1       9.710  -2.091  23.288  0.00  0.00    +0.016 C 
ATOM     11  C   UNL     1       8.006  -1.413  25.012  0.00  0.00    +0.016 C 
ENDBRANCH   7   8
ENDBRANCH   1   2
BRANCH   1  12
ATOM     12  CA  UNL     1       8.148  -4.966  25.787  0.00  0.00    +0.175 C 
BRANCH  12  13
ATOM     13  N   UNL     1       9.521  -5.234  26.408  0.00  0.00    +0.229 N 
ATOM     14  H1  UNL     1       9.753  -4.455  27.039  0.00  0.00    +0.200 HD
ATOM     15  H2  UNL     1      10.216  -5.211  25.648  0.00  0.00    +0.200 HD
ATOM     16  H3  UNL     1       9.572  -6.118  26.919  0.00  0.00    +0.200 HD
ENDBRANCH  12  13
BRANCH  12  17
ATOM     17  C   UNL     1       7.127  -5.676  26.685  0.00  0.00    +0.354 C 
ATOM     18  OXT UNL     1       7.436  -5.799  27.873  0.00  0.00    -0.245 OA
BRANCH  17  19
ATOM     19  O   UNL     1       6.042  -6.266  26.207  0.00  0.00    -0.477 OA
ATOM     20  H   UNL     1       5.272  -6.513  26.812  0.00  0.00    +0.295 HD
ENDBRANCH  17  19
ENDBRANCH  12  17
ENDBRANCH   1  12
TORSDOF 6
ENDMDL
MODEL 3
REMARK VINA RESULT:      -4.8      2.786      3.444
REMARK  Name = 
REMARK  9 active torsions:
REMARK  status: ('A' for Active; 'I' for Inactive)
REMARK    1  A    between atoms: CA_2  and  N_3
REMARK    2  A    between atoms: CA_2  and  C_7
REMARK    3  A    between atoms: CA_2  and  C_18
REMARK    4  A    between atoms: C_7  and  C_8
REMARK    5  A    between atoms: C_9  and  C_14
REMARK    6  A    between atoms: C_14  and  C_15
REMARK    7  A    between atoms: C_14  and  C_16
REMARK    8  A    between atoms: C_14  and  C_17
REMARK    9  A    between atoms: C_18  and  O_19
REMARK                            x       y       z     vdW  Elec       q    Type
REMARK                         _______ _______ _______ _____ _____    ______ ____
ROOT
ATOM      1  C   UNL     1       9.914  -0.494  25.399  0.00  0.00    +0.102 C 
ENDROOT
BRANCH   1   2
ATOM      2  C   UNL     1       9.684  -0.533  23.923  0.00  0.00    -0.019 A 
ATOM      3  C   UNL     1       9.967  -1.726  23.192  0.00  0.00    +0.001 A 
ATOM      4  O   UNL     1      10.269  -2.838  23.837  0.00  0.00    -0.860 OA
ATOM      5  N   UNL     1       9.789  -1.733  21.890  0.00  0.00    -0.226 NA
ATOM      6  S   UNL     1       9.306  -0.231  21.436  0.00  0.00    +0.007 S 
ATOM      7  C   UNL     1       9.199   0.445  23.045  0.00  0.00    +0.018 A 
BRANCH   7   8
ATOM      8  C   UNL     1       8.716   1.896  23.200  0.00  0.00    -0.005 C 
ATOM      9  C   UNL     1       7.587   2.055  24.232  0.00  0.00    +0.016 C 
ATOM     10  C   UNL     1       8.137   2.453  21.875  0.00  0.00    +0.016 C 
ATOM     11  C   UNL     1       9.898   2.776  23.644  0.00  0.00    +0.016 C 
ENDBRANCH   7   8
ENDBRANCH   1   2
BRANCH   1  12
ATOM     12  CA  UNL     1       8.687  -0.778  26.240  0.00  0.00    +0.175 C 
BRANCH  12  13
ATOM     13  N   UNL     1       8.997  -0.345  27.674  0.00  0.00    +0.229 N 
ATOM     14  H1  UNL     1       8.396  -0.880  28.316  0.00  0.00    +0.200 HD
ATOM     15  H2  UNL     1       8.718   0.643  27.769  0.00  0.00    +0.200 HD
ATOM     16  H3  UNL     1       9.977  -0.470  27.936  0.00  0.00    +0.200 HD
ENDBRANCH  12  13
BRANCH  12  17
ATOM     17  C   UNL     1       7.977  -2.133  26.347  0.00  0.00    +0.354 C 
ATOM     18  OXT UNL     1       6.773  -2.101  26.614  0.00  0.00    -0.245 OA
BRANCH  17  19
ATOM     19  O   UNL     1       8.629  -3.287  26.312  0.00  0.00    -0.477 OA
ATOM     20  H   UNL     1       8.695  -3.823  25.459  0.00  0.00    +0.295 HD
ENDBRANCH  17  19
ENDBRANCH  12  17
ENDBRANCH   1  12
TORSDOF 6
ENDMDL
MODEL 4
REMARK VINA RESULT:      -4.8      2.163      2.504
REMARK  Name = 
REMARK  9 active torsions:
REMARK  status: ('A' for Active; 'I' for Inactive)
REMARK    1  A    between atoms: CA_2  and  N_3
REMARK    2  A    between atoms: CA_2  and  C_7
REMARK    3  A    between atoms: CA_2  and  C_18
REMARK    4  A    between atoms: C_7  and  C_8
REMARK    5  A    between atoms: C_9  and  C_14
REMARK    6  A    between atoms: C_14  and  C_15
REMARK    7  A    between atoms: C_14  and  C_16
REMARK    8  A    between atoms: C_14  and  C_17
REMARK    9  A    between atoms: C_18  and  O_19
REMARK                            x       y       z     vdW  Elec       q    Type
REMARK                         _______ _______ _______ _____ _____    ______ ____
ROOT
ATOM      1  C   UNL     1       8.429  -2.609  26.261  0.00  0.00    +0.102 C 
ENDROOT
BRANCH   1   2
ATOM      2  C   UNL     1       8.774  -2.174  24.874  0.00  0.00    -0.019 A 
ATOM      3  C   UNL     1       9.697  -2.939  24.099  0.00  0.00    +0.001 A 
ATOM      4  O   UNL     1      10.114  -4.112  24.540  0.00  0.00    -0.860 OA
ATOM      5  N   UNL     1      10.014  -2.524  22.893  0.00  0.00    -0.226 NA
ATOM      6  S   UNL     1       9.236  -1.103  22.625  0.00  0.00    +0.007 S 
ATOM      7  C   UNL     1       8.330  -1.080  24.120  0.00  0.00    +0.018 A 
BRANCH   7   8
ATOM      8  C   UNL     1       7.350   0.079  24.366  0.00  0.00    -0.005 C 
ATOM      9  C   UNL     1       7.747   0.970  25.555  0.00  0.00    +0.016 C 
ATOM     10  C   UNL     1       5.927  -0.434  24.700  0.00  0.00    +0.016 C 
ATOM     11  C   UNL     1       7.287   0.961  23.107  0.00  0.00    +0.016 C 
ENDBRANCH   7   8
ENDBRANCH   1   2
BRANCH   1  12
ATOM     12  CA  UNL     1       7.417  -3.733  26.340  0.00  0.00    +0.175 C 
BRANCH  12  13
ATOM     13  N   UNL     1       6.188  -3.200  27.079  0.00  0.00    +0.229 N 
ATOM     14  H1  UNL     1       6.355  -2.216  27.327  0.00  0.00    +0.200 HD
ATOM     15  H2  UNL     1       6.112  -3.715  27.969  0.00  0.00    +0.200 HD
ATOM     16  H3  UNL     1       5.322  -3.278  26.541  0.00  0.00    +0.200 HD
ENDBRANCH  12  13
BRANCH  12  17
ATOM     17  C   UNL     1       7.685  -5.132  26.910  0.00  0.00    +0.354 C 
ATOM     18  OXT UNL     1       7.106  -5.414  27.962  0.00  0.00    -0.245 OA
BRANCH  17  19
ATOM     19  O   UNL     1       8.598  -5.948  26.404  0.00  0.00    -0.477 OA
ATOM     20  H   UNL     1       8.451  -6.947  26.384  0.00  0.00    +0.295 HD
ENDBRANCH  17  19
ENDBRANCH  12  17
ENDBRANCH   1  12
TORSDOF 6
ENDMDL
MODEL 5
REMARK VINA RESULT:      -4.8      2.912      4.975
REMARK  Name = 
REMARK  9 active torsions:
REMARK  status: ('A' for Active; 'I' for Inactive)
REMARK    1  A    between atoms: CA_2  and  N_3
REMARK    2  A    between atoms: CA_2  and  C_7
REMARK    3  A    between atoms: CA_2  and  C_18
REMARK    4  A    between atoms: C_7  and  C_8
REMARK    5  A    between atoms: C_9  and  C_14
REMARK    6  A    between atoms: C_14  and  C_15
REMARK    7  A    between atoms: C_14  and  C_16
REMARK    8  A    between atoms: C_14  and  C_17
REMARK    9  A    between atoms: C_18  and  O_19
REMARK                            x       y       z     vdW  Elec       q    Type
REMARK                         _______ _______ _______ _____ _____    ______ ____
ROOT
ATOM      1  C   UNL     1       8.557  -4.235  24.311  0.00  0.00    +0.102 C 
ENDROOT
BRANCH   1   2
ATOM      2  C   UNL     1       7.379  -4.917  24.928  0.00  0.00    -0.019 A 
ATOM      3  C   UNL     1       7.423  -5.307  26.300  0.00  0.00    +0.001 A 
ATOM      4  O   UNL     1       8.428  -4.919  27.064  0.00  0.00    -0.860 OA
ATOM      5  N   UNL     1       6.390  -5.934  26.818  0.00  0.00    -0.226 NA
ATOM      6  S   UNL     1       5.281  -6.154  25.627  0.00  0.00    +0.007 S 
ATOM      7  C   UNL     1       6.137  -5.271  24.384  0.00  0.00    +0.018 A 
BRANCH   7   8
ATOM      8  C   UNL     1       5.475  -5.120  23.004  0.00  0.00    -0.005 C 
ATOM      9  C   UNL     1       6.291  -5.754  21.866  0.00  0.00    +0.016 C 
ATOM     10  C   UNL     1       5.313  -3.631  22.607  0.00  0.00    +0.016 C 
ATOM     11  C   UNL     1       4.090  -5.790  23.034  0.00  0.00    +0.016 C 
ENDBRANCH   7   8
ENDBRANCH   1   2
BRANCH   1  12
ATOM     12  CA  UNL     1       8.442  -2.727  24.223  0.00  0.00    +0.175 C 
BRANCH  12  13
ATOM     13  N   UNL     1       9.221  -2.274  22.986  0.00  0.00    +0.229 N 
ATOM     14  H1  UNL     1       9.380  -3.091  22.381  0.00  0.00    +0.200 HD
ATOM     15  H2  UNL     1      10.150  -1.960  23.301  0.00  0.00    +0.200 HD
ATOM     16  H3  UNL     1       8.751  -1.538  22.455  0.00  0.00    +0.200 HD
ENDBRANCH  12  13
BRANCH  12  17
ATOM     17  C   UNL     1       8.805  -1.742  25.341  0.00  0.00    +0.354 C 
ATOM     18  OXT UNL     1       9.479  -0.763  25.010  0.00  0.00    -0.245 OA
BRANCH  17  19
ATOM     19  O   UNL     1       8.553  -1.985  26.619  0.00  0.00    -0.477 OA
ATOM     20  H   UNL     1       8.523  -1.237  27.296  0.00  0.00    +0.295 HD
ENDBRANCH  17  19
ENDBRANCH  12  17
ENDBRANCH   1  12
TORSDOF 6
ENDMDL
MODEL 6
REMARK VINA RESULT:      -4.7      2.482      4.369
REMARK  Name = 
REMARK  9 active torsions:
REMARK  status: ('A' for Active; 'I' for Inactive)
REMARK    1  A    between atoms: CA_2  and  N_3
REMARK    2  A    between atoms: CA_2  and  C_7
REMARK    3  A    between atoms: CA_2  and  C_18
REMARK    4  A    between atoms: C_7  and  C_8
REMARK    5  A    between atoms: C_9  and  C_14
REMARK    6  A    between atoms: C_14  and  C_15
REMARK    7  A    between atoms: C_14  and  C_16
REMARK    8  A    between atoms: C_14  and  C_17
REMARK    9  A    between atoms: C_18  and  O_19
REMARK                            x       y       z     vdW  Elec       q    Type
REMARK                         _______ _______ _______ _____ _____    ______ ____
ROOT
ATOM      1  C   UNL     1       5.243  -3.877  24.711  0.00  0.00    +0.102 C 
ENDROOT
BRANCH   1   2
ATOM      2  C   UNL     1       6.642  -4.290  25.035  0.00  0.00    -0.019 A 
ATOM      3  C   UNL     1       6.872  -5.443  25.844  0.00  0.00    +0.001 A 
ATOM      4  O   UNL     1       5.866  -6.235  26.165  0.00  0.00    -0.860 OA
ATOM      5  N   UNL     1       8.109  -5.773  26.145  0.00  0.00    -0.226 NA
ATOM      6  S   UNL     1       9.108  -4.643  25.496  0.00  0.00    +0.007 S 
ATOM      7  C   UNL     1       7.872  -3.729  24.664  0.00  0.00    +0.018 A 
BRANCH   7   8
ATOM      8  C   UNL     1       8.299  -2.523  23.813  0.00  0.00    -0.005 C 
ATOM      9  C   UNL     1       7.826  -2.610  22.352  0.00  0.00    +0.016 C 
ATOM     10  C   UNL     1       9.841  -2.395  23.733  0.00  0.00    +0.016 C 
ATOM     11  C   UNL     1       7.716  -1.239  24.430  0.00  0.00    +0.016 C 
ENDBRANCH   7   8
ENDBRANCH   1   2
BRANCH   1  12
ATOM     12  CA  UNL     1       4.715  -4.403  23.393  0.00  0.00    +0.175 C 
BRANCH  12  13
ATOM     13  N   UNL     1       3.229  -4.719  23.581  0.00  0.00    +0.229 N 
ATOM     14  H1  UNL     1       3.086  -5.726  23.425  0.00  0.00    +0.200 HD
ATOM     15  H2  UNL     1       2.710  -4.232  22.837  0.00  0.00    +0.200 HD
ATOM     16  H3  UNL     1       2.870  -4.459  24.503  0.00  0.00    +0.200 HD
ENDBRANCH  12  13
BRANCH  12  17
ATOM     17  C   UNL     1       5.304  -5.579  22.605  0.00  0.00    +0.354 C 
ATOM     18  OXT UNL     1       5.670  -5.336  21.452  0.00  0.00    -0.245 OA
BRANCH  17  19
ATOM     19  O   UNL     1       5.291  -6.823  23.059  0.00  0.00    -0.477 OA
ATOM     20  H   UNL     1       4.563  -7.469  22.789  0.00  0.00    +0.295 HD
ENDBRANCH  17  19
ENDBRANCH  12  17
ENDBRANCH   1  12
TORSDOF 6
ENDMDL
MODEL 7
REMARK VINA RESULT:      -4.6      3.245      4.452
REMARK  Name = 
REMARK  9 active torsions:
REMARK  status: ('A' for Active; 'I' for Inactive)
REMARK    1  A    between atoms: CA_2  and  N_3
REMARK    2  A    between atoms: CA_2  and  C_7
REMARK    3  A    between atoms: CA_2  and  C_18
REMARK    4  A    between atoms: C_7  and  C_8
REMARK    5  A    between atoms: C_9  and  C_14
REMARK    6  A    between atoms: C_14  and  C_15
REMARK    7  A    between atoms: C_14  and  C_16
REMARK    8  A    between atoms: C_14  and  C_17
REMARK    9  A    between atoms: C_18  and  O_19
REMARK                            x       y       z     vdW  Elec       q    Type
REMARK                         _______ _______ _______ _____ _____    ______ ____
ROOT
ATOM      1  C   UNL     1       7.475  -0.530  22.886  0.00  0.00    +0.102 C 
ENDROOT
BRANCH   1   2
ATOM      2  C   UNL     1       7.494   0.618  23.842  0.00  0.00    -0.019 A 
ATOM      3  C   UNL     1       6.380   0.843  24.705  0.00  0.00    +0.001 A 
ATOM      4  O   UNL     1       5.412  -0.053  24.778  0.00  0.00    -0.860 OA
ATOM      5  N   UNL     1       6.400   1.877  25.516  0.00  0.00    -0.226 NA
ATOM      6  S   UNL     1       7.789   2.709  25.243  0.00  0.00    +0.007 S 
ATOM      7  C   UNL     1       8.472   1.593  24.084  0.00  0.00    +0.018 A 
BRANCH   7   8
ATOM      8  C   UNL     1       9.869   1.890  23.515  0.00  0.00    -0.005 C 
ATOM      9  C   UNL     1      10.304   3.353  23.701  0.00  0.00    +0.016 C 
ATOM     10  C   UNL     1       9.931   1.639  21.987  0.00  0.00    +0.016 C 
ATOM     11  C   UNL     1      10.901   0.989  24.217  0.00  0.00    +0.016 C 
ENDBRANCH   7   8
ENDBRANCH   1   2
BRANCH   1  12
ATOM     12  CA  UNL     1       8.204  -1.767  23.367  0.00  0.00    +0.175 C 
BRANCH  12  13
ATOM     13  N   UNL     1       8.191  -1.748  24.897  0.00  0.00    +0.229 N 
ATOM     14  H1  UNL     1       7.325  -1.292  25.213  0.00  0.00    +0.200 HD
ATOM     15  H2  UNL     1       8.968  -1.147  25.208  0.00  0.00    +0.200 HD
ATOM     16  H3  UNL     1       8.264  -2.678  25.317  0.00  0.00    +0.200 HD
ENDBRANCH  12  13
BRANCH  12  17
ATOM     17  C   UNL     1       9.624  -2.178  22.957  0.00  0.00    +0.354 C 
ATOM     18  OXT UNL     1      10.263  -2.836  23.782  0.00  0.00    -0.245 OA
BRANCH  17  19
ATOM     19  O   UNL     1      10.206  -1.735  21.853  0.00  0.00    -0.477 OA
ATOM     20  H   UNL     1      10.002  -2.146  20.954  0.00  0.00    +0.295 HD
ENDBRANCH  17  19
ENDBRANCH  12  17
ENDBRANCH   1  12
TORSDOF 6
ENDMDL
MODEL 8
REMARK VINA RESULT:      -4.6      3.204      4.526
REMARK  Name = 
REMARK  9 active torsions:
REMARK  status: ('A' for Active; 'I' for Inactive)
REMARK    1  A    between atoms: CA_2  and  N_3
REMARK    2  A    between atoms: CA_2  and  C_7
REMARK    3  A    between atoms: CA_2  and  C_18
REMARK    4  A    between atoms: C_7  and  C_8
REMARK    5  A    between atoms: C_9  and  C_14
REMARK    6  A    between atoms: C_14  and  C_15
REMARK    7  A    between atoms: C_14  and  C_16
REMARK    8  A    between atoms: C_14  and  C_17
REMARK    9  A    between atoms: C_18  and  O_19
REMARK                            x       y       z     vdW  Elec       q    Type
REMARK                         _______ _______ _______ _____ _____    ______ ____
ROOT
ATOM      1  C   UNL     1       7.899  -3.217  22.639  0.00  0.00    +0.102 C 
ENDROOT
BRANCH   1   2
ATOM      2  C   UNL     1       6.787  -3.747  23.485  0.00  0.00    -0.019 A 
ATOM      3  C   UNL     1       5.455  -3.771  22.973  0.00  0.00    +0.001 A 
ATOM      4  O   UNL     1       5.231  -3.485  21.703  0.00  0.00    -0.860 OA
ATOM      5  N   UNL     1       4.484  -4.211  23.743  0.00  0.00    -0.226 NA
ATOM      6  S   UNL     1       5.127  -4.586  25.206  0.00  0.00    +0.007 S 
ATOM      7  C   UNL     1       6.795  -4.276  24.783  0.00  0.00    +0.018 A 
BRANCH   7   8
ATOM      8  C   UNL     1       7.881  -4.532  25.841  0.00  0.00    -0.005 C 
ATOM      9  C   UNL     1       8.491  -3.242  26.413  0.00  0.00    +0.016 C 
ATOM     10  C   UNL     1       9.077  -5.322  25.254  0.00  0.00    +0.016 C 
ATOM     11  C   UNL     1       7.269  -5.331  27.005  0.00  0.00    +0.016 C 
ENDBRANCH   7   8
ENDBRANCH   1   2
BRANCH   1  12
ATOM     12  CA  UNL     1       8.514  -1.926  23.137  0.00  0.00    +0.175 C 
BRANCH  12  13
ATOM     13  N   UNL     1       7.483  -0.813  22.939  0.00  0.00    +0.229 N 
ATOM     14  H1  UNL     1       7.037  -0.615  23.845  0.00  0.00    +0.200 HD
ATOM     15  H2  UNL     1       6.742  -1.180  22.324  0.00  0.00    +0.200 HD
ATOM     16  H3  UNL     1       7.879   0.047  22.554  0.00  0.00    +0.200 HD
ENDBRANCH  12  13
BRANCH  12  17
ATOM     17  C   UNL     1       9.859  -1.348  22.679  0.00  0.00    +0.354 C 
ATOM     18  OXT UNL     1      10.410  -0.563  23.455  0.00  0.00    -0.245 OA
BRANCH  17  19
ATOM     19  O   UNL     1      10.344  -1.543  21.461  0.00  0.00    -0.477 OA
ATOM     20  H   UNL     1       9.773  -1.939  20.729  0.00  0.00    +0.295 HD
ENDBRANCH  17  19
ENDBRANCH  12  17
ENDBRANCH   1  12
TORSDOF 6
ENDMDL
MODEL 9
REMARK VINA RESULT:      -4.6      4.266      5.740
REMARK  Name = 
REMARK  9 active torsions:
REMARK  status: ('A' for Active; 'I' for Inactive)
REMARK    1  A    between atoms: CA_2  and  N_3
REMARK    2  A    between atoms: CA_2  and  C_7
REMARK    3  A    between atoms: CA_2  and  C_18
REMARK    4  A    between atoms: C_7  and  C_8
REMARK    5  A    between atoms: C_9  and  C_14
REMARK    6  A    between atoms: C_14  and  C_15
REMARK    7  A    between atoms: C_14  and  C_16
REMARK    8  A    between atoms: C_14  and  C_17
REMARK    9  A    between atoms: C_18  and  O_19
REMARK                            x       y       z     vdW  Elec       q    Type
REMARK                         _______ _______ _______ _____ _____    ______ ____
ROOT
ATOM      1  C   UNL     1       8.222   1.093  23.779  0.00  0.00    +0.102 C 
ENDROOT
BRANCH   1   2
ATOM      2  C   UNL     1       8.877  -0.244  23.656  0.00  0.00    -0.019 A 
ATOM      3  C   UNL     1       9.688  -0.535  22.519  0.00  0.00    +0.001 A 
ATOM      4  O   UNL     1       9.996   0.424  21.665  0.00  0.00    -0.860 OA
ATOM      5  N   UNL     1      10.230  -1.728  22.411  0.00  0.00    -0.226 NA
ATOM      6  S   UNL     1       9.734  -2.628  23.691  0.00  0.00    +0.007 S 
ATOM      7  C   UNL     1       8.856  -1.356  24.509  0.00  0.00    +0.018 A 
BRANCH   7   8
ATOM      8  C   UNL     1       8.199  -1.671  25.862  0.00  0.00    -0.005 C 
ATOM      9  C   UNL     1       8.694  -0.768  27.004  0.00  0.00    +0.016 C 
ATOM     10  C   UNL     1       8.505  -3.117  26.326  0.00  0.00    +0.016 C 
ATOM     11  C   UNL     1       6.676  -1.492  25.736  0.00  0.00    +0.016 C 
ENDBRANCH   7   8
ENDBRANCH   1   2
BRANCH   1  12
ATOM     12  CA  UNL     1       9.057   2.147  24.476  0.00  0.00    +0.175 C 
BRANCH  12  13
ATOM     13  N   UNL     1       8.188   2.781  25.565  0.00  0.00    +0.229 N 
ATOM     14  H1  UNL     1       8.802   3.269  26.232  0.00  0.00    +0.200 HD
ATOM     15  H2  UNL     1       7.738   2.017  26.089  0.00  0.00    +0.200 HD
ATOM     16  H3  UNL     1       7.489   3.432  25.201  0.00  0.00    +0.200 HD
ENDBRANCH  12  13
BRANCH  12  17
ATOM     17  C   UNL     1       9.787   3.304  23.785  0.00  0.00    +0.354 C 
ATOM     18  OXT UNL     1       9.521   4.439  24.190  0.00  0.00    -0.245 OA
BRANCH  17  19
ATOM     19  O   UNL     1      10.546   3.133  22.712  0.00  0.00    -0.477 OA
ATOM     20  H   UNL     1      11.426   3.616  22.613  0.00  0.00    +0.295 HD
ENDBRANCH  17  19
ENDBRANCH  12  17
ENDBRANCH   1  12
TORSDOF 6
ENDMDL
