MODEL 1
REMARK VINA RESULT:      -7.9      0.000      0.000
REMARK  Name = 
REMARK  17 active torsions:
REMARK  status: ('A' for Active; 'I' for Inactive)
REMARK    1  A    between atoms: C_1  and  C_2
REMARK    2  A    between atoms: N_4  and  C_5
REMARK    3  A    between atoms: C_8  and  O_10
REMARK    4  A    between atoms: C_11  and  C_13
REMARK    5  A    between atoms: C_13  and  O_14
REMARK    6  A    between atoms: O_14  and  P_15
REMARK    7  A    between atoms: P_15  and  O_16
REMARK    8  A    between atoms: P_15  and  O_18
REMARK    9  A    between atoms: O_18  and  P_19
REMARK   10  A    between atoms: P_19  and  O_20
REMARK   11  A    between atoms: P_19  and  O_22
REMARK   12  A    between atoms: O_22  and  C_23
REMARK   13  A    between atoms: C_26  and  C_28
REMARK   14  A    between atoms: C_28  and  O_29
REMARK   15  A    between atoms: C_30  and  O_32
REMARK   16  A    between atoms: C_33  and  O_35
REMARK   17  A    between atoms: C_36  and  O_38
REMARK                            x       y       z     vdW  Elec       q    Type
REMARK                         _______ _______ _______ _____ _____    ______ ____
ROOT
ATOM      1  P   UNL     1       9.171  -4.757  24.836  0.00  0.00    +0.483 P 
ATOM      2  O   UNL     1       8.699  -5.691  23.767  0.00  0.00    -0.227 OA
ENDROOT
BRANCH   1   3
ATOM      3  O   UNL     1      10.270  -5.457  25.770  0.00  0.00    -0.302 OA
ATOM      4  H   UNL     1      11.156  -5.078  25.636  0.00  0.00    +0.222 HD
ENDBRANCH   1   3
BRANCH   1   5
ATOM      5  O   UNL     1       8.031  -4.321  25.870  0.00  0.00    -0.186 OA
BRANCH   5   6
ATOM      6  P   UNL     1       6.609  -5.307  25.867  0.00  0.00    +0.486 P 
ATOM      7  O   UNL     1       5.874  -4.271  26.720  0.00  0.00    -0.227 OA
BRANCH   6   8
ATOM      8  O   UNL     1       7.429  -6.131  27.015  0.00  0.00    -0.302 OA
ATOM      9  H   UNL     1       6.801  -6.474  27.679  0.00  0.00    +0.222 HD
ENDBRANCH   6   8
BRANCH   6  10
ATOM     10  O   UNL     1       5.187  -6.292  25.864  0.00  0.00    -0.254 OA
BRANCH  10  11
ATOM     11  C   UNL     1       4.865  -6.704  24.490  0.00  0.00    +0.293 C 
ATOM     12  C   UNL     1       4.680  -5.583  23.395  0.00  0.00    +0.202 C 
ATOM     13  C   UNL     1       3.425  -4.767  23.642  0.00  0.00    +0.179 C 
ATOM     14  C   UNL     1       2.196  -5.635  23.893  0.00  0.00    +0.177 C 
ATOM     15  C   UNL     1       2.458  -6.993  24.592  0.00  0.00    +0.178 C 
ATOM     16  O   UNL     1       3.742  -7.591  24.405  0.00  0.00    -0.340 OA
BRANCH  14  17
ATOM     17  O   UNL     1       1.618  -5.858  22.593  0.00  0.00    -0.386 OA
ATOM     18  H   UNL     1       1.441  -4.999  22.176  0.00  0.00    +0.210 HD
ENDBRANCH  14  17
BRANCH  13  19
ATOM     19  O   UNL     1       3.666  -3.831  24.709  0.00  0.00    -0.386 OA
ATOM     20  H   UNL     1       3.932  -4.331  25.509  0.00  0.00    +0.210 HD
ENDBRANCH  13  19
BRANCH  12  21
ATOM     21  O   UNL     1       4.683  -6.182  22.090  0.00  0.00    -0.384 OA
ATOM     22  H   UNL     1       4.481  -5.483  21.444  0.00  0.00    +0.210 HD
ENDBRANCH  12  21
BRANCH  15  23
ATOM     23  C   UNL     1       2.196  -7.031  26.096  0.00  0.00    +0.190 C 
BRANCH  23  24
ATOM     24  O   UNL     1       2.318  -5.692  26.593  0.00  0.00    -0.392 OA
ATOM     25  H   UNL     1       3.194  -5.377  26.285  0.00  0.00    +0.210 HD
ENDBRANCH  23  24
ENDBRANCH  15  23
ENDBRANCH  10  11
ENDBRANCH   6  10
ENDBRANCH   5   6
ENDBRANCH   1   5
BRANCH   1  26
ATOM     26  O   UNL     1       9.930  -3.443  24.325  0.00  0.00    -0.284 OA
BRANCH  26  27
ATOM     27  C   UNL     1       9.376  -2.152  24.552  0.00  0.00    +0.206 C 
BRANCH  27  30
ATOM     28  C   UNL     1       9.459   1.177  23.747  0.00  0.00    +0.226 C 
ATOM     29  O   UNL     1      10.119   0.223  24.604  0.00  0.00    -0.348 OA
ATOM     30  C   UNL     1      10.173  -1.029  23.868  0.00  0.00    +0.175 C 
ATOM     31  C   UNL     1       9.626  -0.769  22.458  0.00  0.00    +0.150 C 
ATOM     32  C   UNL     1       9.758   0.723  22.327  0.00  0.00    +0.088 C 
BRANCH  28  41
ATOM     33  C   UNL     1      12.455   5.147  22.962  0.00  0.00    +0.051 C 
ATOM     34  C   UNL     1      11.237   4.442  23.473  0.00  0.00    +0.030 A 
ATOM     35  C   UNL     1      10.155   5.327  23.977  0.00  0.00    +0.257 A 
ATOM     36  O   UNL     1      10.183   6.543  23.830  0.00  0.00    -0.267 OA
ATOM     37  N   UNL     1       9.115   4.697  24.594  0.00  0.00    -0.275 N 
ATOM     38  H   UNL     1       8.356   5.285  24.893  0.00  0.00    +0.173 HD
ATOM     39  C   UNL     1       8.843   3.368  24.496  0.00  0.00    +0.331 A 
ATOM     40  O   UNL     1       7.734   2.952  24.823  0.00  0.00    -0.246 OA
ATOM     41  N   UNL     1       9.844   2.558  23.970  0.00  0.00    -0.274 N 
ATOM     42  C   UNL     1      11.027   3.118  23.490  0.00  0.00    +0.101 A 
ENDBRANCH  28  41
BRANCH  31  43
ATOM     43  O   UNL     1      10.325  -1.462  21.436  0.00  0.00    -0.389 OA
ATOM     44  H   UNL     1       9.709  -1.644  20.701  0.00  0.00    +0.210 HD
ENDBRANCH  31  43
ENDBRANCH  27  30
ENDBRANCH  26  27
ENDBRANCH   1  26
TORSDOF 16
ENDMDL
MODEL 2
REMARK VINA RESULT:      -7.8      3.540      9.277
REMARK  Name = 
REMARK  17 active torsions:
REMARK  status: ('A' for Active; 'I' for Inactive)
REMARK    1  A    between atoms: C_1  and  C_2
REMARK    2  A    between atoms: N_4  and  C_5
REMARK    3  A    between atoms: C_8  and  O_10
REMARK    4  A    between atoms: C_11  and  C_13
REMARK    5  A    between atoms: C_13  and  O_14
REMARK    6  A    between atoms: O_14  and  P_15
REMARK    7  A    between atoms: P_15  and  O_16
REMARK    8  A    between atoms: P_15  and  O_18
REMARK    9  A    between atoms: O_18  and  P_19
REMARK   10  A    between atoms: P_19  and  O_20
REMARK   11  A    between atoms: P_19  and  O_22
REMARK   12  A    between atoms: O_22  and  C_23
REMARK   13  A    between atoms: C_26  and  C_28
REMARK   14  A    between atoms: C_28  and  O_29
REMARK   15  A    between atoms: C_30  and  O_32
REMARK   16  A    between atoms: C_33  and  O_35
REMARK   17  A    between atoms: C_36  and  O_38
REMARK                            x       y       z     vdW  Elec       q    Type
REMARK                         _______ _______ _______ _____ _____    ______ ____
ROOT
ATOM      1  P   UNL     1       9.619  -2.056  23.353  0.00  0.00    +0.483 P 
ATOM      2  O   UNL     1       9.793  -3.484  23.764  0.00  0.00    -0.227 OA
ENDROOT
BRANCH   1   3
ATOM      3  O   UNL     1      10.117  -1.824  21.848  0.00  0.00    -0.302 OA
ATOM      4  H   UNL     1       9.569  -1.169  21.380  0.00  0.00    +0.222 HD
ENDBRANCH   1   3
BRANCH   1   5
ATOM      5  O   UNL     1      10.501  -1.023  24.198  0.00  0.00    -0.186 OA
BRANCH   5   6
ATOM      6  P   UNL     1       9.841   0.570  24.343  0.00  0.00    +0.486 P 
ATOM      7  O   UNL     1      10.427   0.949  22.981  0.00  0.00    -0.227 OA
BRANCH   6   8
ATOM      8  O   UNL     1      11.136   0.794  25.313  0.00  0.00    -0.302 OA
ATOM      9  H   UNL     1      11.904   1.061  24.772  0.00  0.00    +0.222 HD
ENDBRANCH   6   8
BRANCH   6  10
ATOM     10  O   UNL     1       9.182   2.163  24.487  0.00  0.00    -0.254 OA
BRANCH  10  11
ATOM     11  C   UNL     1       7.716   2.111  24.379  0.00  0.00    +0.293 C 
ATOM     12  C   UNL     1       7.081   1.639  23.013  0.00  0.00    +0.202 C 
ATOM     13  C   UNL     1       7.311   2.658  21.912  0.00  0.00    +0.179 C 
ATOM     14  C   UNL     1       6.950   4.078  22.338  0.00  0.00    +0.177 C 
ATOM     15  C   UNL     1       7.160   4.409  23.837  0.00  0.00    +0.178 C 
ATOM     16  O   UNL     1       7.068   3.329  24.767  0.00  0.00    -0.340 OA
BRANCH  14  17
ATOM     17  O   UNL     1       5.561   4.235  21.991  0.00  0.00    -0.386 OA
ATOM     18  H   UNL     1       5.079   4.563  22.768  0.00  0.00    +0.210 HD
ENDBRANCH  14  17
BRANCH  13  19
ATOM     19  O   UNL     1       8.666   2.551  21.439  0.00  0.00    -0.386 OA
ATOM     20  H   UNL     1       8.712   2.925  20.535  0.00  0.00    +0.210 HD
ENDBRANCH  13  19
BRANCH  12  21
ATOM     21  O   UNL     1       5.686   1.360  23.204  0.00  0.00    -0.384 OA
ATOM     22  H   UNL     1       5.482   0.536  22.730  0.00  0.00    +0.210 HD
ENDBRANCH  12  21
BRANCH  15  23
ATOM     23  C   UNL     1       8.450   5.149  24.183  0.00  0.00    +0.190 C 
BRANCH  23  24
ATOM     24  O   UNL     1       9.391   4.896  23.133  0.00  0.00    -0.392 OA
ATOM     25  H   UNL     1       8.856   4.821  22.314  0.00  0.00    +0.210 HD
ENDBRANCH  23  24
ENDBRANCH  15  23
ENDBRANCH  10  11
ENDBRANCH   6  10
ENDBRANCH   5   6
ENDBRANCH   1   5
BRANCH   1  26
ATOM     26  O   UNL     1       8.109  -1.525  23.310  0.00  0.00    -0.284 OA
BRANCH  26  27
ATOM     27  C   UNL     1       7.211  -1.976  22.302  0.00  0.00    +0.206 C 
BRANCH  27  30
ATOM     28  C   UNL     1       6.716  -4.536  24.524  0.00  0.00    +0.226 C 
ATOM     29  O   UNL     1       6.262  -3.194  24.254  0.00  0.00    -0.348 OA
ATOM     30  C   UNL     1       6.232  -3.047  22.808  0.00  0.00    +0.175 C 
ATOM     31  C   UNL     1       6.568  -4.411  22.192  0.00  0.00    +0.150 C 
ATOM     32  C   UNL     1       6.283  -5.361  23.323  0.00  0.00    +0.088 C 
BRANCH  28  41
ATOM     33  C   UNL     1       3.215  -6.835  27.318  0.00  0.00    +0.051 C 
ATOM     34  C   UNL     1       4.578  -6.291  27.023  0.00  0.00    +0.030 A 
ATOM     35  C   UNL     1       5.636  -6.666  27.996  0.00  0.00    +0.257 A 
ATOM     36  O   UNL     1       5.449  -7.495  28.879  0.00  0.00    -0.267 OA
ATOM     37  N   UNL     1       6.839  -6.045  27.830  0.00  0.00    -0.275 N 
ATOM     38  H   UNL     1       7.574  -6.330  28.454  0.00  0.00    +0.173 HD
ATOM     39  C   UNL     1       7.228  -5.392  26.702  0.00  0.00    +0.331 A 
ATOM     40  O   UNL     1       8.418  -5.139  26.531  0.00  0.00    -0.246 OA
ATOM     41  N   UNL     1       6.236  -5.097  25.772  0.00  0.00    -0.274 N 
ATOM     42  C   UNL     1       4.928  -5.539  25.969  0.00  0.00    +0.101 A 
ENDBRANCH  28  41
BRANCH  31  43
ATOM     43  O   UNL     1       5.812  -4.717  21.031  0.00  0.00    -0.389 OA
ATOM     44  H   UNL     1       4.929  -5.030  21.303  0.00  0.00    +0.210 HD
ENDBRANCH  31  43
ENDBRANCH  27  30
ENDBRANCH  26  27
ENDBRANCH   1  26
TORSDOF 16
ENDMDL
MODEL 3
REMARK VINA RESULT:      -7.6      1.820      3.381
REMARK  Name = 
REMARK  17 active torsions:
REMARK  status: ('A' for Active; 'I' for Inactive)
REMARK    1  A    between atoms: C_1  and  C_2
REMARK    2  A    between atoms: N_4  and  C_5
REMARK    3  A    between atoms: C_8  and  O_10
REMARK    4  A    between atoms: C_11  and  C_13
REMARK    5  A    between atoms: C_13  and  O_14
REMARK    6  A    between atoms: O_14  and  P_15
REMARK    7  A    between atoms: P_15  and  O_16
REMARK    8  A    between atoms: P_15  and  O_18
REMARK    9  A    between atoms: O_18  and  P_19
REMARK   10  A    between atoms: P_19  and  O_20
REMARK   11  A    between atoms: P_19  and  O_22
REMARK   12  A    between atoms: O_22  and  C_23
REMARK   13  A    between atoms: C_26  and  C_28
REMARK   14  A    between atoms: C_28  and  O_29
REMARK   15  A    between atoms: C_30  and  O_32
REMARK   16  A    between atoms: C_33  and  O_35
REMARK   17  A    between atoms: C_36  and  O_38
REMARK                            x       y       z     vdW  Elec       q    Type
REMARK                         _______ _______ _______ _____ _____    ______ ____
ROOT
ATOM      1  P   UNL     1       9.415  -2.019  23.545  0.00  0.00    +0.483 P 
ATOM      2  O   UNL     1       9.825  -1.946  22.108  0.00  0.00    -0.227 OA
ENDROOT
BRANCH   1   3
ATOM      3  O   UNL     1      10.241  -0.973  24.435  0.00  0.00    -0.302 OA
ATOM      4  H   UNL     1       9.918  -0.062  24.320  0.00  0.00    +0.222 HD
ENDBRANCH   1   3
BRANCH   1   5
ATOM      5  O   UNL     1       9.728  -3.425  24.242  0.00  0.00    -0.186 OA
BRANCH   5   6
ATOM      6  P   UNL     1       8.364  -4.470  24.448  0.00  0.00    +0.486 P 
ATOM      7  O   UNL     1       8.291  -4.100  25.931  0.00  0.00    -0.227 OA
BRANCH   6   8
ATOM      8  O   UNL     1       9.517  -5.627  24.472  0.00  0.00    -0.302 OA
ATOM      9  H   UNL     1       9.825  -5.759  25.389  0.00  0.00    +0.222 HD
ENDBRANCH   6   8
BRANCH   6  10
ATOM     10  O   UNL     1       7.001  -5.514  24.655  0.00  0.00    -0.254 OA
BRANCH  10  11
ATOM     11  C   UNL     1       5.787  -4.716  24.885  0.00  0.00    +0.293 C 
ATOM     12  C   UNL     1       4.496  -5.451  25.417  0.00  0.00    +0.202 C 
ATOM     13  C   UNL     1       3.912  -6.377  24.366  0.00  0.00    +0.179 C 
ATOM     14  C   UNL     1       3.760  -5.705  23.005  0.00  0.00    +0.177 C 
ATOM     15  C   UNL     1       4.811  -4.617  22.667  0.00  0.00    +0.178 C 
ATOM     16  O   UNL     1       5.405  -3.916  23.759  0.00  0.00    -0.340 OA
BRANCH  14  17
ATOM     17  O   UNL     1       2.442  -5.124  23.016  0.00  0.00    -0.386 OA
ATOM     18  H   UNL     1       1.958  -5.428  22.231  0.00  0.00    +0.210 HD
ENDBRANCH  14  17
BRANCH  13  19
ATOM     19  O   UNL     1       4.698  -7.582  24.301  0.00  0.00    -0.386 OA
ATOM     20  H   UNL     1       4.757  -7.966  25.200  0.00  0.00    +0.210 HD
ENDBRANCH  13  19
BRANCH  12  21
ATOM     21  O   UNL     1       3.541  -4.478  25.866  0.00  0.00    -0.384 OA
ATOM     22  H   UNL     1       2.859  -4.947  26.375  0.00  0.00    +0.210 HD
ENDBRANCH  12  21
BRANCH  15  23
ATOM     23  C   UNL     1       5.970  -5.064  21.778  0.00  0.00    +0.190 C 
BRANCH  23  24
ATOM     24  O   UNL     1       6.055  -6.492  21.859  0.00  0.00    -0.392 OA
ATOM     25  H   UNL     1       5.551  -6.829  21.087  0.00  0.00    +0.210 HD
ENDBRANCH  23  24
ENDBRANCH  15  23
ENDBRANCH  10  11
ENDBRANCH   6  10
ENDBRANCH   5   6
ENDBRANCH   1   5
BRANCH   1  26
ATOM     26  O   UNL     1       7.895  -1.620  23.856  0.00  0.00    -0.284 OA
BRANCH  26  27
ATOM     27  C   UNL     1       7.059  -1.096  22.830  0.00  0.00    +0.206 C 
BRANCH  27  30
ATOM     28  C   UNL     1       8.485   1.858  23.820  0.00  0.00    +0.226 C 
ATOM     29  O   UNL     1       8.123   1.143  22.620  0.00  0.00    -0.348 OA
ATOM     30  C   UNL     1       6.892   0.429  22.915  0.00  0.00    +0.175 C 
ATOM     31  C   UNL     1       6.438   0.839  24.322  0.00  0.00    +0.150 C 
ATOM     32  C   UNL     1       7.174   2.133  24.539  0.00  0.00    +0.088 C 
BRANCH  28  41
ATOM     33  C   UNL     1       9.027   6.862  23.923  0.00  0.00    +0.051 C 
ATOM     34  C   UNL     1       9.491   5.447  23.771  0.00  0.00    +0.030 A 
ATOM     35  C   UNL     1      10.964   5.264  23.707  0.00  0.00    +0.257 A 
ATOM     36  O   UNL     1      11.747   6.178  23.932  0.00  0.00    -0.267 OA
ATOM     37  N   UNL     1      11.390   4.004  23.403  0.00  0.00    -0.275 N 
ATOM     38  H   UNL     1      12.386   3.861  23.407  0.00  0.00    +0.173 HD
ATOM     39  C   UNL     1      10.622   2.884  23.478  0.00  0.00    +0.331 A 
ATOM     40  O   UNL     1      11.162   1.781  23.488  0.00  0.00    -0.246 OA
ATOM     41  N   UNL     1       9.248   3.070  23.595  0.00  0.00    -0.274 N 
ATOM     42  C   UNL     1       8.716   4.353  23.718  0.00  0.00    +0.101 A 
ENDBRANCH  28  41
BRANCH  31  43
ATOM     43  O   UNL     1       5.033   0.993  24.448  0.00  0.00    -0.389 OA
ATOM     44  H   UNL     1       4.835   1.360  25.331  0.00  0.00    +0.210 HD
ENDBRANCH  31  43
ENDBRANCH  27  30
ENDBRANCH  26  27
ENDBRANCH   1  26
TORSDOF 16
ENDMDL
MODEL 4
REMARK VINA RESULT:      -7.6      1.249      2.614
REMARK  Name = 
REMARK  17 active torsions:
REMARK  status: ('A' for Active; 'I' for Inactive)
REMARK    1  A    between atoms: C_1  and  C_2
REMARK    2  A    between atoms: N_4  and  C_5
REMARK    3  A    between atoms: C_8  and  O_10
REMARK    4  A    between atoms: C_11  and  C_13
REMARK    5  A    between atoms: C_13  and  O_14
REMARK    6  A    between atoms: O_14  and  P_15
REMARK    7  A    between atoms: P_15  and  O_16
REMARK    8  A    between atoms: P_15  and  O_18
REMARK    9  A    between atoms: O_18  and  P_19
REMARK   10  A    between atoms: P_19  and  O_20
REMARK   11  A    between atoms: P_19  and  O_22
REMARK   12  A    between atoms: O_22  and  C_23
REMARK   13  A    between atoms: C_26  and  C_28
REMARK   14  A    between atoms: C_28  and  O_29
REMARK   15  A    between atoms: C_30  and  O_32
REMARK   16  A    between atoms: C_33  and  O_35
REMARK   17  A    between atoms: C_36  and  O_38
REMARK                            x       y       z     vdW  Elec       q    Type
REMARK                         _______ _______ _______ _____ _____    ______ ____
ROOT
ATOM      1  P   UNL     1       8.052  -4.420  23.908  0.00  0.00    +0.483 P 
ATOM      2  O   UNL     1       9.162  -5.253  24.465  0.00  0.00    -0.227 OA
ENDROOT
BRANCH   1   3
ATOM      3  O   UNL     1       6.831  -4.318  24.941  0.00  0.00    -0.302 OA
ATOM      4  H   UNL     1       6.703  -3.410  25.265  0.00  0.00    +0.222 HD
ENDBRANCH   1   3
BRANCH   1   5
ATOM      5  O   UNL     1       7.375  -5.031  22.594  0.00  0.00    -0.186 OA
BRANCH   5   6
ATOM      6  P   UNL     1       5.646  -5.096  22.613  0.00  0.00    +0.486 P 
ATOM      7  O   UNL     1       5.643  -5.737  21.223  0.00  0.00    -0.227 OA
BRANCH   6   8
ATOM      8  O   UNL     1       5.788  -3.515  22.227  0.00  0.00    -0.302 OA
ATOM      9  H   UNL     1       5.975  -3.430  21.273  0.00  0.00    +0.222 HD
ENDBRANCH   6   8
BRANCH   6  10
ATOM     10  O   UNL     1       3.917  -5.162  22.630  0.00  0.00    -0.254 OA
BRANCH  10  11
ATOM     11  C   UNL     1       3.414  -4.792  23.962  0.00  0.00    +0.293 C 
ATOM     12  C   UNL     1       3.888  -5.642  25.205  0.00  0.00    +0.202 C 
ATOM     13  C   UNL     1       3.310  -7.044  25.172  0.00  0.00    +0.179 C 
ATOM     14  C   UNL     1       1.806  -7.056  24.915  0.00  0.00    +0.177 C 
ATOM     15  C   UNL     1       1.262  -5.909  24.026  0.00  0.00    +0.178 C 
ATOM     16  O   UNL     1       1.987  -4.679  24.026  0.00  0.00    -0.340 OA
BRANCH  14  17
ATOM     17  O   UNL     1       1.199  -6.994  26.220  0.00  0.00    -0.386 OA
ATOM     18  H   UNL     1       0.738  -7.831  26.392  0.00  0.00    +0.210 HD
ENDBRANCH  14  17
BRANCH  13  19
ATOM     19  O   UNL     1       4.039  -7.839  24.219  0.00  0.00    -0.386 OA
ATOM     20  H   UNL     1       3.422  -8.481  23.810  0.00  0.00    +0.210 HD
ENDBRANCH  13  19
BRANCH  12  21
ATOM     21  O   UNL     1       3.550  -4.949  26.416  0.00  0.00    -0.384 OA
ATOM     22  H   UNL     1       3.102  -5.581  27.003  0.00  0.00    +0.210 HD
ENDBRANCH  12  21
BRANCH  15  23
ATOM     23  C   UNL     1       1.029  -6.257  22.557  0.00  0.00    +0.190 C 
BRANCH  23  24
ATOM     24  O   UNL     1       1.856  -7.384  22.240  0.00  0.00    -0.392 OA
ATOM     25  H   UNL     1       2.745  -7.164  22.593  0.00  0.00    +0.210 HD
ENDBRANCH  23  24
ENDBRANCH  15  23
ENDBRANCH  10  11
ENDBRANCH   6  10
ENDBRANCH   5   6
ENDBRANCH   1   5
BRANCH   1  26
ATOM     26  O   UNL     1       8.408  -2.882  23.633  0.00  0.00    -0.284 OA
BRANCH  26  27
ATOM     27  C   UNL     1       9.190  -2.142  24.564  0.00  0.00    +0.206 C 
BRANCH  27  30
ATOM     28  C   UNL     1       9.398   1.174  23.727  0.00  0.00    +0.226 C 
ATOM     29  O   UNL     1      10.000   0.211  24.616  0.00  0.00    -0.348 OA
ATOM     30  C   UNL     1      10.042  -1.051  23.895  0.00  0.00    +0.175 C 
ATOM     31  C   UNL     1       9.552  -0.792  22.465  0.00  0.00    +0.150 C 
ATOM     32  C   UNL     1       9.731   0.695  22.323  0.00  0.00    +0.088 C 
BRANCH  28  41
ATOM     33  C   UNL     1      12.524   5.051  22.992  0.00  0.00    +0.051 C 
ATOM     34  C   UNL     1      11.273   4.385  23.474  0.00  0.00    +0.030 A 
ATOM     35  C   UNL     1      10.204   5.305  23.940  0.00  0.00    +0.257 A 
ATOM     36  O   UNL     1      10.269   6.518  23.783  0.00  0.00    -0.267 OA
ATOM     37  N   UNL     1       9.129   4.709  24.533  0.00  0.00    -0.275 N 
ATOM     38  H   UNL     1       8.379   5.321  24.806  0.00  0.00    +0.173 HD
ATOM     39  C   UNL     1       8.822   3.388  24.439  0.00  0.00    +0.331 A 
ATOM     40  O   UNL     1       7.693   3.006  24.738  0.00  0.00    -0.246 OA
ATOM     41  N   UNL     1       9.815   2.545  23.948  0.00  0.00    -0.274 N 
ATOM     42  C   UNL     1      11.026   3.067  23.496  0.00  0.00    +0.101 A 
ENDBRANCH  28  41
BRANCH  31  43
ATOM     43  O   UNL     1      10.265  -1.516  21.475  0.00  0.00    -0.389 OA
ATOM     44  H   UNL     1       9.676  -2.195  21.096  0.00  0.00    +0.210 HD
ENDBRANCH  31  43
ENDBRANCH  27  30
ENDBRANCH  26  27
ENDBRANCH   1  26
TORSDOF 16
ENDMDL
MODEL 5
REMARK VINA RESULT:      -7.5      3.406      9.708
REMARK  Name = 
REMARK  17 active torsions:
REMARK  status: ('A' for Active; 'I' for Inactive)
REMARK    1  A    between atoms: C_1  and  C_2
REMARK    2  A    between atoms: N_4  and  C_5
REMARK    3  A    between atoms: C_8  and  O_10
REMARK    4  A    between atoms: C_11  and  C_13
REMARK    5  A    between atoms: C_13  and  O_14
REMARK    6  A    between atoms: O_14  and  P_15
REMARK    7  A    between atoms: P_15  and  O_16
REMARK    8  A    between atoms: P_15  and  O_18
REMARK    9  A    between atoms: O_18  and  P_19
REMARK   10  A    between atoms: P_19  and  O_20
REMARK   11  A    between atoms: P_19  and  O_22
REMARK   12  A    between atoms: O_22  and  C_23
REMARK   13  A    between atoms: C_26  and  C_28
REMARK   14  A    between atoms: C_28  and  O_29
REMARK   15  A    between atoms: C_30  and  O_32
REMARK   16  A    between atoms: C_33  and  O_35
REMARK   17  A    between atoms: C_36  and  O_38
REMARK                            x       y       z     vdW  Elec       q    Type
REMARK                         _______ _______ _______ _____ _____    ______ ____
ROOT
ATOM      1  P   UNL     1       8.667  -2.686  23.180  0.00  0.00    +0.483 P 
ATOM      2  O   UNL     1       9.575  -1.887  22.300  0.00  0.00    -0.227 OA
ENDROOT
BRANCH   1   3
ATOM      3  O   UNL     1       7.555  -3.452  22.318  0.00  0.00    -0.302 OA
ATOM      4  H   UNL     1       7.313  -4.308  22.712  0.00  0.00    +0.222 HD
ENDBRANCH   1   3
BRANCH   1   5
ATOM      5  O   UNL     1       7.803  -1.804  24.197  0.00  0.00    -0.186 OA
BRANCH   5   6
ATOM      6  P   UNL     1       7.287  -0.266  23.593  0.00  0.00    +0.486 P 
ATOM      7  O   UNL     1       6.736   0.104  24.971  0.00  0.00    -0.227 OA
BRANCH   6   8
ATOM      8  O   UNL     1       6.053  -1.150  22.990  0.00  0.00    -0.302 OA
ATOM      9  H   UNL     1       5.940  -0.944  22.042  0.00  0.00    +0.222 HD
ENDBRANCH   6   8
BRANCH   6  10
ATOM     10  O   UNL     1       6.772   1.271  22.990  0.00  0.00    -0.254 OA
BRANCH  10  11
ATOM     11  C   UNL     1       7.840   1.876  22.180  0.00  0.00    +0.293 C 
ATOM     12  C   UNL     1       9.283   1.993  22.808  0.00  0.00    +0.202 C 
ATOM     13  C   UNL     1       9.316   3.002  23.941  0.00  0.00    +0.179 C 
ATOM     14  C   UNL     1       8.663   4.330  23.567  0.00  0.00    +0.177 C 
ATOM     15  C   UNL     1       7.490   4.246  22.558  0.00  0.00    +0.178 C 
ATOM     16  O   UNL     1       7.493   3.156  21.636  0.00  0.00    -0.340 OA
BRANCH  14  17
ATOM     17  O   UNL     1       9.725   5.132  23.017  0.00  0.00    -0.386 OA
ATOM     18  H   UNL     1       9.614   6.049  23.316  0.00  0.00    +0.210 HD
ENDBRANCH  14  17
BRANCH  13  19
ATOM     19  O   UNL     1       8.735   2.415  25.120  0.00  0.00    -0.386 OA
ATOM     20  H   UNL     1       9.288   1.655  25.395  0.00  0.00    +0.210 HD
ENDBRANCH  13  19
BRANCH  12  21
ATOM     21  O   UNL     1      10.230   2.310  21.778  0.00  0.00    -0.384 OA
ATOM     22  H   UNL     1      10.386   1.502  21.261  0.00  0.00    +0.210 HD
ENDBRANCH  12  21
BRANCH  15  23
ATOM     23  C   UNL     1       6.087   4.279  23.161  0.00  0.00    +0.190 C 
BRANCH  23  24
ATOM     24  O   UNL     1       5.165   3.879  22.139  0.00  0.00    -0.392 OA
ATOM     25  H   UNL     1       5.694   3.356  21.499  0.00  0.00    +0.210 HD
ENDBRANCH  23  24
ENDBRANCH  15  23
ENDBRANCH  10  11
ENDBRANCH   6  10
ENDBRANCH   5   6
ENDBRANCH   1   5
BRANCH   1  26
ATOM     26  O   UNL     1       9.360  -3.877  23.996  0.00  0.00    -0.284 OA
BRANCH  26  27
ATOM     27  C   UNL     1       8.999  -4.136  25.348  0.00  0.00    +0.206 C 
BRANCH  27  30
ATOM     28  C   UNL     1       5.761  -5.220  25.061  0.00  0.00    +0.226 C 
ATOM     29  O   UNL     1       7.049  -5.382  24.432  0.00  0.00    -0.348 OA
ATOM     30  C   UNL     1       8.041  -5.329  25.494  0.00  0.00    +0.175 C 
ATOM     31  C   UNL     1       7.293  -5.253  26.831  0.00  0.00    +0.150 C 
ATOM     32  C   UNL     1       5.925  -5.767  26.471  0.00  0.00    +0.088 C 
BRANCH  28  41
ATOM     33  C   UNL     1       2.079  -8.634  24.698  0.00  0.00    +0.051 C 
ATOM     34  C   UNL     1       2.854  -7.420  24.288  0.00  0.00    +0.030 A 
ATOM     35  C   UNL     1       2.221  -6.590  23.231  0.00  0.00    +0.257 A 
ATOM     36  O   UNL     1       1.075  -6.784  22.844  0.00  0.00    -0.267 OA
ATOM     37  N   UNL     1       2.991  -5.579  22.734  0.00  0.00    -0.275 N 
ATOM     38  H   UNL     1       2.551  -4.982  22.054  0.00  0.00    +0.173 HD
ATOM     39  C   UNL     1       4.110  -5.088  23.330  0.00  0.00    +0.331 A 
ATOM     40  O   UNL     1       4.552  -3.996  22.981  0.00  0.00    -0.246 OA
ATOM     41  N   UNL     1       4.661  -5.849  24.357  0.00  0.00    -0.274 N 
ATOM     42  C   UNL     1       4.025  -7.010  24.796  0.00  0.00    +0.101 A 
ENDBRANCH  28  41
BRANCH  31  43
ATOM     43  O   UNL     1       7.895  -6.013  27.868  0.00  0.00    -0.389 OA
ATOM     44  H   UNL     1       8.640  -6.520  27.495  0.00  0.00    +0.210 HD
ENDBRANCH  31  43
ENDBRANCH  27  30
ENDBRANCH  26  27
ENDBRANCH   1  26
TORSDOF 16
ENDMDL
MODEL 6
REMARK VINA RESULT:      -7.5      2.026      2.981
REMARK  Name = 
REMARK  17 active torsions:
REMARK  status: ('A' for Active; 'I' for Inactive)
REMARK    1  A    between atoms: C_1  and  C_2
REMARK    2  A    between atoms: N_4  and  C_5
REMARK    3  A    between atoms: C_8  and  O_10
REMARK    4  A    between atoms: C_11  and  C_13
REMARK    5  A    between atoms: C_13  and  O_14
REMARK    6  A    between atoms: O_14  and  P_15
REMARK    7  A    between atoms: P_15  and  O_16
REMARK    8  A    between atoms: P_15  and  O_18
REMARK    9  A    between atoms: O_18  and  P_19
REMARK   10  A    between atoms: P_19  and  O_20
REMARK   11  A    between atoms: P_19  and  O_22
REMARK   12  A    between atoms: O_22  and  C_23
REMARK   13  A    between atoms: C_26  and  C_28
REMARK   14  A    between atoms: C_28  and  O_29
REMARK   15  A    between atoms: C_30  and  O_32
REMARK   16  A    between atoms: C_33  and  O_35
REMARK   17  A    between atoms: C_36  and  O_38
REMARK                            x       y       z     vdW  Elec       q    Type
REMARK                         _______ _______ _______ _____ _____    ______ ____
ROOT
ATOM      1  P   UNL     1       7.487  -4.893  26.340  0.00  0.00    +0.483 P 
ATOM      2  O   UNL     1       8.975  -4.912  26.494  0.00  0.00    -0.227 OA
ENDROOT
BRANCH   1   3
ATOM      3  O   UNL     1       6.880  -3.477  26.780  0.00  0.00    -0.302 OA
ATOM      4  H   UNL     1       6.746  -2.885  26.019  0.00  0.00    +0.222 HD
ENDBRANCH   1   3
BRANCH   1   5
ATOM      5  O   UNL     1       6.721  -5.933  27.284  0.00  0.00    -0.186 OA
BRANCH   5   6
ATOM      6  P   UNL     1       5.204  -6.505  26.679  0.00  0.00    +0.486 P 
ATOM      7  O   UNL     1       4.503  -5.259  27.224  0.00  0.00    -0.227 OA
BRANCH   6   8
ATOM      8  O   UNL     1       5.259  -7.442  28.015  0.00  0.00    -0.302 OA
ATOM      9  H   UNL     1       5.949  -7.106  28.618  0.00  0.00    +0.222 HD
ENDBRANCH   6   8
BRANCH   6  10
ATOM     10  O   UNL     1       3.687  -7.075  26.074  0.00  0.00    -0.254 OA
BRANCH  10  11
ATOM     11  C   UNL     1       3.739  -7.184  24.608  0.00  0.00    +0.293 C 
ATOM     12  C   UNL     1       3.856  -5.857  23.762  0.00  0.00    +0.202 C 
ATOM     13  C   UNL     1       2.583  -5.034  23.840  0.00  0.00    +0.179 C 
ATOM     14  C   UNL     1       1.329  -5.862  23.578  0.00  0.00    +0.177 C 
ATOM     15  C   UNL     1       1.391  -7.345  24.021  0.00  0.00    +0.178 C 
ATOM     16  O   UNL     1       2.676  -7.968  24.052  0.00  0.00    -0.340 OA
BRANCH  14  17
ATOM     17  O   UNL     1       1.116  -5.785  22.155  0.00  0.00    -0.386 OA
ATOM     18  H   UNL     1       0.431  -6.426  21.905  0.00  0.00    +0.210 HD
ENDBRANCH  14  17
BRANCH  13  19
ATOM     19  O   UNL     1       2.536  -4.348  25.105  0.00  0.00    -0.386 OA
ATOM     20  H   UNL     1       3.301  -3.738  25.159  0.00  0.00    +0.210 HD
ENDBRANCH  13  19
BRANCH  12  21
ATOM     21  O   UNL     1       4.203  -6.181  22.407  0.00  0.00    -0.384 OA
ATOM     22  H   UNL     1       3.814  -7.048  22.202  0.00  0.00    +0.210 HD
ENDBRANCH  12  21
BRANCH  15  23
ATOM     23  C   UNL     1       0.739  -7.669  25.363  0.00  0.00    +0.190 C 
BRANCH  23  24
ATOM     24  O   UNL     1       0.741  -6.469  26.148  0.00  0.00    -0.392 OA
ATOM     25  H   UNL     1       1.291  -5.829  25.647  0.00  0.00    +0.210 HD
ENDBRANCH  23  24
ENDBRANCH  15  23
ENDBRANCH  10  11
ENDBRANCH   6  10
ENDBRANCH   5   6
ENDBRANCH   1   5
BRANCH   1  26
ATOM     26  O   UNL     1       6.940  -5.060  24.844  0.00  0.00    -0.284 OA
BRANCH  26  27
ATOM     27  C   UNL     1       7.830  -4.988  23.735  0.00  0.00    +0.206 C 
BRANCH  27  30
ATOM     28  C   UNL     1       7.629  -1.574  23.942  0.00  0.00    +0.226 C 
ATOM     29  O   UNL     1       8.529  -2.611  23.500  0.00  0.00    -0.348 OA
ATOM     30  C   UNL     1       7.702  -3.672  22.950  0.00  0.00    +0.175 C 
ATOM     31  C   UNL     1       6.248  -3.185  22.957  0.00  0.00    +0.150 C 
ATOM     32  C   UNL     1       6.403  -1.692  23.051  0.00  0.00    +0.088 C 
BRANCH  28  41
ATOM     33  C   UNL     1       7.806   3.156  22.224  0.00  0.00    +0.051 C 
ATOM     34  C   UNL     1       8.155   2.030  23.147  0.00  0.00    +0.030 A 
ATOM     35  C   UNL     1       8.908   2.419  24.368  0.00  0.00    +0.257 A 
ATOM     36  O   UNL     1       9.081   3.590  24.684  0.00  0.00    -0.267 OA
ATOM     37  N   UNL     1       9.374   1.388  25.129  0.00  0.00    -0.275 N 
ATOM     38  H   UNL     1       9.840   1.644  25.983  0.00  0.00    +0.173 HD
ATOM     39  C   UNL     1       8.943   0.101  25.043  0.00  0.00    +0.331 A 
ATOM     40  O   UNL     1       9.186  -0.681  25.959  0.00  0.00    -0.246 OA
ATOM     41  N   UNL     1       8.191  -0.237  23.921  0.00  0.00    -0.274 N 
ATOM     42  C   UNL     1       7.834   0.737  22.990  0.00  0.00    +0.101 A 
ENDBRANCH  28  41
BRANCH  31  43
ATOM     43  O   UNL     1       5.507  -3.576  21.811  0.00  0.00    -0.389 OA
ATOM     44  H   UNL     1       6.070  -3.471  21.021  0.00  0.00    +0.210 HD
ENDBRANCH  31  43
ENDBRANCH  27  30
ENDBRANCH  26  27
ENDBRANCH   1  26
TORSDOF 16
ENDMDL
MODEL 7
REMARK VINA RESULT:      -7.4      3.674      8.972
REMARK  Name = 
REMARK  17 active torsions:
REMARK  status: ('A' for Active; 'I' for Inactive)
REMARK    1  A    between atoms: C_1  and  C_2
REMARK    2  A    between atoms: N_4  and  C_5
REMARK    3  A    between atoms: C_8  and  O_10
REMARK    4  A    between atoms: C_11  and  C_13
REMARK    5  A    between atoms: C_13  and  O_14
REMARK    6  A    between atoms: O_14  and  P_15
REMARK    7  A    between atoms: P_15  and  O_16
REMARK    8  A    between atoms: P_15  and  O_18
REMARK    9  A    between atoms: O_18  and  P_19
REMARK   10  A    between atoms: P_19  and  O_20
REMARK   11  A    between atoms: P_19  and  O_22
REMARK   12  A    between atoms: O_22  and  C_23
REMARK   13  A    between atoms: C_26  and  C_28
REMARK   14  A    between atoms: C_28  and  O_29
REMARK   15  A    between atoms: C_30  and  O_32
REMARK   16  A    between atoms: C_33  and  O_35
REMARK   17  A    between atoms: C_36  and  O_38
REMARK                            x       y       z     vdW  Elec       q    Type
REMARK                         _______ _______ _______ _____ _____    ______ ____
ROOT
ATOM      1  P   UNL     1       9.834  -1.539  23.088  0.00  0.00    +0.483 P 
ATOM      2  O   UNL     1      10.269  -2.818  23.729  0.00  0.00    -0.227 OA
ENDROOT
BRANCH   1   3
ATOM      3  O   UNL     1       9.971  -1.617  21.493  0.00  0.00    -0.302 OA
ATOM      4  H   UNL     1       9.106  -1.703  21.057  0.00  0.00    +0.222 HD
ENDBRANCH   1   3
BRANCH   1   5
ATOM      5  O   UNL     1      10.734  -0.275  23.476  0.00  0.00    -0.186 OA
BRANCH   5   6
ATOM      6  P   UNL     1       9.861   1.166  23.868  0.00  0.00    +0.486 P 
ATOM      7  O   UNL     1      11.174   1.941  23.994  0.00  0.00    -0.227 OA
BRANCH   6   8
ATOM      8  O   UNL     1       9.771   0.463  25.339  0.00  0.00    -0.302 OA
ATOM      9  H   UNL     1       9.933  -0.495  25.251  0.00  0.00    +0.222 HD
ENDBRANCH   6   8
BRANCH   6  10
ATOM     10  O   UNL     1       8.988   2.608  24.260  0.00  0.00    -0.254 OA
BRANCH  10  11
ATOM     11  C   UNL     1       8.223   3.065  23.090  0.00  0.00    +0.293 C 
ATOM     12  C   UNL     1       7.727   4.563  23.058  0.00  0.00    +0.202 C 
ATOM     13  C   UNL     1       6.648   4.813  24.094  0.00  0.00    +0.179 C 
ATOM     14  C   UNL     1       5.541   3.764  24.058  0.00  0.00    +0.177 C 
ATOM     15  C   UNL     1       5.974   2.338  23.633  0.00  0.00    +0.178 C 
ATOM     16  O   UNL     1       7.106   2.225  22.771  0.00  0.00    -0.340 OA
BRANCH  14  17
ATOM     17  O   UNL     1       4.564   4.276  23.131  0.00  0.00    -0.386 OA
ATOM     18  H   UNL     1       4.157   3.531  22.661  0.00  0.00    +0.210 HD
ENDBRANCH  14  17
BRANCH  13  19
ATOM     19  O   UNL     1       7.253   4.932  25.395  0.00  0.00    -0.386 OA
ATOM     20  H   UNL     1       7.690   4.084  25.615  0.00  0.00    +0.210 HD
ENDBRANCH  13  19
BRANCH  12  21
ATOM     21  O   UNL     1       7.287   4.893  21.732  0.00  0.00    -0.384 OA
ATOM     22  H   UNL     1       6.378   4.564  21.632  0.00  0.00    +0.210 HD
ENDBRANCH  12  21
BRANCH  15  23
ATOM     23  C   UNL     1       6.214   1.347  24.770  0.00  0.00    +0.190 C 
BRANCH  23  24
ATOM     24  O   UNL     1       5.341   0.229  24.563  0.00  0.00    -0.392 OA
ATOM     25  H   UNL     1       5.800  -0.539  24.966  0.00  0.00    +0.210 HD
ENDBRANCH  23  24
ENDBRANCH  15  23
ENDBRANCH  10  11
ENDBRANCH   6  10
ENDBRANCH   5   6
ENDBRANCH   1   5
BRANCH   1  26
ATOM     26  O   UNL     1       8.292  -1.151  23.289  0.00  0.00    -0.284 OA
BRANCH  26  27
ATOM     27  C   UNL     1       7.310  -1.576  22.352  0.00  0.00    +0.206 C 
BRANCH  27  30
ATOM     28  C   UNL     1       6.998  -4.181  24.555  0.00  0.00    +0.226 C 
ATOM     29  O   UNL     1       6.523  -2.834  24.350  0.00  0.00    -0.348 OA
ATOM     30  C   UNL     1       6.376  -2.660  22.914  0.00  0.00    +0.175 C 
ATOM     31  C   UNL     1       6.663  -4.011  22.246  0.00  0.00    +0.150 C 
ATOM     32  C   UNL     1       6.470  -4.983  23.377  0.00  0.00    +0.088 C 
BRANCH  28  41
ATOM     33  C   UNL     1       3.582  -5.941  27.808  0.00  0.00    +0.051 C 
ATOM     34  C   UNL     1       4.964  -5.694  27.288  0.00  0.00    +0.030 A 
ATOM     35  C   UNL     1       6.048  -6.420  27.997  0.00  0.00    +0.257 A 
ATOM     36  O   UNL     1       5.819  -7.287  28.831  0.00  0.00    -0.267 OA
ATOM     37  N   UNL     1       7.320  -6.077  27.641  0.00  0.00    -0.275 N 
ATOM     38  H   UNL     1       8.058  -6.600  28.080  0.00  0.00    +0.173 HD
ATOM     39  C   UNL     1       7.655  -5.397  26.513  0.00  0.00    +0.331 A 
ATOM     40  O   UNL     1       8.821  -5.405  26.125  0.00  0.00    -0.246 OA
ATOM     41  N   UNL     1       6.621  -4.767  25.827  0.00  0.00    -0.274 N 
ATOM     42  C   UNL     1       5.299  -4.917  26.248  0.00  0.00    +0.101 A 
ENDBRANCH  28  41
BRANCH  31  43
ATOM     43  O   UNL     1       5.815  -4.296  21.143  0.00  0.00    -0.389 OA
ATOM     44  H   UNL     1       6.251  -3.991  20.324  0.00  0.00    +0.210 HD
ENDBRANCH  31  43
ENDBRANCH  27  30
ENDBRANCH  26  27
ENDBRANCH   1  26
TORSDOF 16
ENDMDL
MODEL 8
REMARK VINA RESULT:      -7.3      1.899      2.732
REMARK  Name = 
REMARK  17 active torsions:
REMARK  status: ('A' for Active; 'I' for Inactive)
REMARK    1  A    between atoms: C_1  and  C_2
REMARK    2  A    between atoms: N_4  and  C_5
REMARK    3  A    between atoms: C_8  and  O_10
REMARK    4  A    between atoms: C_11  and  C_13
REMARK    5  A    between atoms: C_13  and  O_14
REMARK    6  A    between atoms: O_14  and  P_15
REMARK    7  A    between atoms: P_15  and  O_16
REMARK    8  A    between atoms: P_15  and  O_18
REMARK    9  A    between atoms: O_18  and  P_19
REMARK   10  A    between atoms: P_19  and  O_20
REMARK   11  A    between atoms: P_19  and  O_22
REMARK   12  A    between atoms: O_22  and  C_23
REMARK   13  A    between atoms: C_26  and  C_28
REMARK   14  A    between atoms: C_28  and  O_29
REMARK   15  A    between atoms: C_30  and  O_32
REMARK   16  A    between atoms: C_33  and  O_35
REMARK   17  A    between atoms: C_36  and  O_38
REMARK                            x       y       z     vdW  Elec       q    Type
REMARK                         _______ _______ _______ _____ _____    ______ ____
ROOT
ATOM      1  P   UNL     1       8.940  -4.759  24.900  0.00  0.00    +0.483 P 
ATOM      2  O   UNL     1       7.912  -4.987  23.837  0.00  0.00    -0.227 OA
ENDROOT
BRANCH   1   3
ATOM      3  O   UNL     1       9.860  -6.056  25.101  0.00  0.00    -0.302 OA
ATOM      4  H   UNL     1      10.235  -6.370  24.259  0.00  0.00    +0.222 HD
ENDBRANCH   1   3
BRANCH   1   5
ATOM      5  O   UNL     1       8.327  -4.512  26.357  0.00  0.00    -0.186 OA
BRANCH   5   6
ATOM      6  P   UNL     1       6.604  -4.631  26.466  0.00  0.00    +0.486 P 
ATOM      7  O   UNL     1       6.542  -3.270  27.163  0.00  0.00    -0.227 OA
BRANCH   6   8
ATOM      8  O   UNL     1       6.960  -5.610  27.725  0.00  0.00    -0.302 OA
ATOM      9  H   UNL     1       7.814  -6.052  27.560  0.00  0.00    +0.222 HD
ENDBRANCH   6   8
BRANCH   6  10
ATOM     10  O   UNL     1       4.882  -4.750  26.577  0.00  0.00    -0.254 OA
BRANCH  10  11
ATOM     11  C   UNL     1       4.413  -5.940  25.851  0.00  0.00    +0.293 C 
ATOM     12  C   UNL     1       4.903  -6.153  24.366  0.00  0.00    +0.202 C 
ATOM     13  C   UNL     1       4.307  -5.119  23.429  0.00  0.00    +0.179 C 
ATOM     14  C   UNL     1       2.798  -4.971  23.598  0.00  0.00    +0.177 C 
ATOM     15  C   UNL     1       2.249  -5.217  25.026  0.00  0.00    +0.178 C 
ATOM     16  O   UNL     1       2.989  -6.100  25.870  0.00  0.00    -0.340 OA
BRANCH  14  17
ATOM     17  O   UNL     1       2.220  -5.919  22.681  0.00  0.00    -0.386 OA
ATOM     18  H   UNL     1       1.465  -6.353  23.111  0.00  0.00    +0.210 HD
ENDBRANCH  14  17
BRANCH  13  19
ATOM     19  O   UNL     1       5.005  -3.871  23.591  0.00  0.00    -0.386 OA
ATOM     20  H   UNL     1       5.967  -4.037  23.507  0.00  0.00    +0.210 HD
ENDBRANCH  13  19
BRANCH  12  21
ATOM     21  O   UNL     1       4.600  -7.493  23.949  0.00  0.00    -0.384 OA
ATOM     22  H   UNL     1       3.817  -7.454  23.375  0.00  0.00    +0.210 HD
ENDBRANCH  12  21
BRANCH  15  23
ATOM     23  C   UNL     1       1.979  -3.968  25.862  0.00  0.00    +0.190 C 
BRANCH  23  24
ATOM     24  O   UNL     1       2.769  -2.903  25.319  0.00  0.00    -0.392 OA
ATOM     25  H   UNL     1       2.132  -2.305  24.872  0.00  0.00    +0.210 HD
ENDBRANCH  23  24
ENDBRANCH  15  23
ENDBRANCH  10  11
ENDBRANCH   6  10
ENDBRANCH   5   6
ENDBRANCH   1   5
BRANCH   1  26
ATOM     26  O   UNL     1      10.014  -3.611  24.594  0.00  0.00    -0.284 OA
BRANCH  26  27
ATOM     27  C   UNL     1       9.758  -2.626  23.599  0.00  0.00    +0.206 C 
BRANCH  27  30
ATOM     28  C   UNL     1       8.890   0.688  23.591  0.00  0.00    +0.226 C 
ATOM     29  O   UNL     1       8.474  -0.572  23.026  0.00  0.00    -0.348 OA
ATOM     30  C   UNL     1       8.718  -1.584  24.041  0.00  0.00    +0.175 C 
ATOM     31  C   UNL     1       9.187  -0.868  25.314  0.00  0.00    +0.150 C 
ATOM     32  C   UNL     1       8.706   0.540  25.093  0.00  0.00    +0.088 C 
BRANCH  28  41
ATOM     33  C   UNL     1       4.683   3.239  22.520  0.00  0.00    +0.051 C 
ATOM     34  C   UNL     1       6.160   3.059  22.684  0.00  0.00    +0.030 A 
ATOM     35  C   UNL     1       6.963   4.307  22.615  0.00  0.00    +0.257 A 
ATOM     36  O   UNL     1       6.447   5.418  22.598  0.00  0.00    -0.267 OA
ATOM     37  N   UNL     1       8.317   4.139  22.597  0.00  0.00    -0.275 N 
ATOM     38  H   UNL     1       8.868   4.980  22.601  0.00  0.00    +0.173 HD
ATOM     39  C   UNL     1       8.963   2.996  22.953  0.00  0.00    +0.331 A 
ATOM     40  O   UNL     1      10.166   3.034  23.200  0.00  0.00    -0.246 OA
ATOM     41  N   UNL     1       8.190   1.845  23.068  0.00  0.00    -0.274 N 
ATOM     42  C   UNL     1       6.805   1.905  22.909  0.00  0.00    +0.101 A 
ENDBRANCH  28  41
BRANCH  31  43
ATOM     43  O   UNL     1       8.670  -1.431  26.510  0.00  0.00    -0.389 OA
ATOM     44  H   UNL     1       7.761  -1.103  26.645  0.00  0.00    +0.210 HD
ENDBRANCH  31  43
ENDBRANCH  27  30
ENDBRANCH  26  27
ENDBRANCH   1  26
TORSDOF 16
ENDMDL
MODEL 9
REMARK VINA RESULT:      -7.3      1.228      2.168
REMARK  Name = 
REMARK  17 active torsions:
REMARK  status: ('A' for Active; 'I' for Inactive)
REMARK    1  A    between atoms: C_1  and  C_2
REMARK    2  A    between atoms: N_4  and  C_5
REMARK    3  A    between atoms: C_8  and  O_10
REMARK    4  A    between atoms: C_11  and  C_13
REMARK    5  A    between atoms: C_13  and  O_14
REMARK    6  A    between atoms: O_14  and  P_15
REMARK    7  A    between atoms: P_15  and  O_16
REMARK    8  A    between atoms: P_15  and  O_18
REMARK    9  A    between atoms: O_18  and  P_19
REMARK   10  A    between atoms: P_19  and  O_20
REMARK   11  A    between atoms: P_19  and  O_22
REMARK   12  A    between atoms: O_22  and  C_23
REMARK   13  A    between atoms: C_26  and  C_28
REMARK   14  A    between atoms: C_28  and  O_29
REMARK   15  A    between atoms: C_30  and  O_32
REMARK   16  A    between atoms: C_33  and  O_35
REMARK   17  A    between atoms: C_36  and  O_38
REMARK                            x       y       z     vdW  Elec       q    Type
REMARK                         _______ _______ _______ _____ _____    ______ ____
ROOT
ATOM      1  P   UNL     1       8.293  -4.317  24.027  0.00  0.00    +0.483 P 
ATOM      2  O   UNL     1       8.640  -5.758  23.823  0.00  0.00    -0.227 OA
ENDROOT
BRANCH   1   3
ATOM      3  O   UNL     1       7.677  -4.073  25.486  0.00  0.00    -0.302 OA
ATOM      4  H   UNL     1       7.275  -3.190  25.569  0.00  0.00    +0.222 HD
ENDBRANCH   1   3
BRANCH   1   5
ATOM      5  O   UNL     1       7.149  -3.777  23.048  0.00  0.00    -0.186 OA
BRANCH   5   6
ATOM      6  P   UNL     1       5.540  -4.282  23.437  0.00  0.00    +0.486 P 
ATOM      7  O   UNL     1       5.121  -4.115  21.975  0.00  0.00    -0.227 OA
BRANCH   6   8
ATOM      8  O   UNL     1       5.411  -2.746  23.976  0.00  0.00    -0.302 OA
ATOM      9  H   UNL     1       4.732  -2.704  24.677  0.00  0.00    +0.222 HD
ENDBRANCH   6   8
BRANCH   6  10
ATOM     10  O   UNL     1       3.932  -4.787  23.825  0.00  0.00    -0.254 OA
BRANCH  10  11
ATOM     11  C   UNL     1       3.689  -6.139  23.299  0.00  0.00    +0.293 C 
ATOM     12  C   UNL     1       2.203  -6.665  23.241  0.00  0.00    +0.202 C 
ATOM     13  C   UNL     1       1.643  -6.904  24.631  0.00  0.00    +0.179 C 
ATOM     14  C   UNL     1       2.583  -7.719  25.514  0.00  0.00    +0.177 C 
ATOM     15  C   UNL     1       4.098  -7.527  25.246  0.00  0.00    +0.178 C 
ATOM     16  O   UNL     1       4.489  -7.150  23.925  0.00  0.00    -0.340 OA
BRANCH  14  17
ATOM     17  O   UNL     1       2.217  -9.094  25.289  0.00  0.00    -0.386 OA
ATOM     18  H   UNL     1       2.265  -9.280  24.337  0.00  0.00    +0.210 HD
ENDBRANCH  14  17
BRANCH  13  19
ATOM     19  O   UNL     1       1.284  -5.643  25.224  0.00  0.00    -0.386 OA
ATOM     20  H   UNL     1       2.092  -5.228  25.590  0.00  0.00    +0.210 HD
ENDBRANCH  13  19
BRANCH  12  21
ATOM     21  O   UNL     1       2.144  -7.846  22.427  0.00  0.00    -0.384 OA
ATOM     22  H   UNL     1       2.787  -7.741  21.706  0.00  0.00    +0.210 HD
ENDBRANCH  12  21
BRANCH  15  23
ATOM     23  C   UNL     1       4.825  -6.568  26.186  0.00  0.00    +0.190 C 
BRANCH  23  24
ATOM     24  O   UNL     1       5.101  -7.276  27.401  0.00  0.00    -0.392 OA
ATOM     25  H   UNL     1       4.825  -8.203  27.233  0.00  0.00    +0.210 HD
ENDBRANCH  23  24
ENDBRANCH  15  23
ENDBRANCH  10  11
ENDBRANCH   6  10
ENDBRANCH   5   6
ENDBRANCH   1   5
BRANCH   1  26
ATOM     26  O   UNL     1       9.525  -3.294  23.990  0.00  0.00    -0.284 OA
BRANCH  26  27
ATOM     27  C   UNL     1       9.443  -2.037  24.652  0.00  0.00    +0.206 C 
BRANCH  27  30
ATOM     28  C   UNL     1       9.497   1.279  23.791  0.00  0.00    +0.226 C 
ATOM     29  O   UNL     1      10.185   0.339  24.641  0.00  0.00    -0.348 OA
ATOM     30  C   UNL     1      10.216  -0.925  23.924  0.00  0.00    +0.175 C 
ATOM     31  C   UNL     1       9.624  -0.688  22.529  0.00  0.00    +0.150 C 
ATOM     32  C   UNL     1       9.750   0.802  22.369  0.00  0.00    +0.088 C 
BRANCH  28  41
ATOM     33  C   UNL     1      12.536   5.203  22.945  0.00  0.00    +0.051 C 
ATOM     34  C   UNL     1      11.303   4.522  23.453  0.00  0.00    +0.030 A 
ATOM     35  C   UNL     1      10.218   5.429  23.908  0.00  0.00    +0.257 A 
ATOM     36  O   UNL     1      10.257   6.640  23.725  0.00  0.00    -0.267 OA
ATOM     37  N   UNL     1       9.161   4.825  24.523  0.00  0.00    -0.275 N 
ATOM     38  H   UNL     1       8.400   5.427  24.789  0.00  0.00    +0.173 HD
ATOM     39  C   UNL     1       8.881   3.495  24.461  0.00  0.00    +0.331 A 
ATOM     40  O   UNL     1       7.763   3.097  24.777  0.00  0.00    -0.246 OA
ATOM     41  N   UNL     1       9.887   2.663  23.979  0.00  0.00    -0.274 N 
ATOM     42  C   UNL     1      11.083   3.200  23.506  0.00  0.00    +0.101 A 
ENDBRANCH  28  41
BRANCH  31  43
ATOM     43  O   UNL     1      10.291  -1.397  21.496  0.00  0.00    -0.389 OA
ATOM     44  H   UNL     1      11.123  -1.764  21.852  0.00  0.00    +0.210 HD
ENDBRANCH  31  43
ENDBRANCH  27  30
ENDBRANCH  26  27
ENDBRANCH   1  26
TORSDOF 16
ENDMDL
