MODEL 1
REMARK VINA RESULT:      -6.2      0.000      0.000
REMARK  Name = 
REMARK  9 active torsions:
REMARK  status: ('A' for Active; 'I' for Inactive)
REMARK    1  A    between atoms: C_1  and  C_2
REMARK    2  A    between atoms: C_2  and  O_3
REMARK    3  A    between atoms: O_3  and  C_4
REMARK    4  A    between atoms: C_4  and  N_5
REMARK    5  A    between atoms: C_11  and  C_12
REMARK    6  A    between atoms: C_12  and  C_13
REMARK    7  A    between atoms: C_12  and  C_14
REMARK    8  A    between atoms: C_15  and  S_16
REMARK    9  A    between atoms: S_16  and  C_17
REMARK                            x       y       z     vdW  Elec       q    Type
REMARK                         _______ _______ _______ _____ _____    ______ ____
ROOT
ATOM      1  N   UNL     1       8.388  -4.064  24.989  0.00  0.00    -0.264 N 
ATOM      2  C   UNL     1       7.002  -3.983  25.258  0.00  0.00    +0.091 A 
ATOM      3  C   UNL     1       6.449  -4.638  26.321  0.00  0.00    +0.050 A 
ATOM      4  C   UNL     1       7.365  -5.486  27.158  0.00  0.00    +0.258 A 
ATOM      5  O   UNL     1       7.010  -6.081  28.178  0.00  0.00    -0.267 OA
ATOM      6  N   UNL     1       8.648  -5.580  26.756  0.00  0.00    -0.275 N 
ATOM      7  H   UNL     1       9.258  -6.160  27.311  0.00  0.00    +0.173 HD
ATOM      8  C   UNL     1       9.202  -4.931  25.712  0.00  0.00    +0.332 A 
ATOM      9  O   UNL     1      10.392  -5.143  25.470  0.00  0.00    -0.246 OA
ENDROOT
BRANCH   3  10
ATOM     10  C   UNL     1       5.004  -4.606  26.855  0.00  0.00    +0.021 C 
ATOM     11  C   UNL     1       4.850  -3.984  28.258  0.00  0.00    +0.012 C 
ATOM     12  C   UNL     1       4.344  -5.997  26.854  0.00  0.00    +0.012 C 
ENDBRANCH   3  10
BRANCH   1  13
ATOM     13  C   UNL     1       9.086  -3.510  23.825  0.00  0.00    +0.290 C 
BRANCH  13  14
ATOM     14  O   UNL     1       9.794  -2.289  23.983  0.00  0.00    -0.359 OA
BRANCH  14  16
ATOM     15  C   UNL     1       9.152  -1.350  21.770  0.00  0.00    +0.034 C 
ATOM     16  C   UNL     1      10.214  -1.588  22.824  0.00  0.00    +0.159 C 
ENDBRANCH  14  16
ENDBRANCH  13  14
ENDBRANCH   1  13
BRANCH   2  17
ATOM     17  S   UNL     1       6.088  -2.720  24.481  0.00  0.00    -0.104 S 
BRANCH  17  18
ATOM     18  C   UNL     1       4.851  -3.313  23.272  0.00  0.00    +0.053 C 
ATOM     19  C   UNL     1       4.198  -4.718  23.352  0.00  0.00    +0.014 C 
ATOM     20  C   UNL     1       5.041  -5.939  22.934  0.00  0.00    +0.001 C 
ATOM     21  C   UNL     1       5.922  -5.713  21.709  0.00  0.00    +0.000 C 
ATOM     22  C   UNL     1       6.652  -4.385  21.807  0.00  0.00    +0.001 C 
ATOM     23  C   UNL     1       5.626  -3.247  21.932  0.00  0.00    +0.014 C 
ENDBRANCH  17  18
ENDBRANCH   2  17
TORSDOF 6
ENDMDL
MODEL 2
REMARK VINA RESULT:      -6.1      2.510      3.305
REMARK  Name = 
REMARK  9 active torsions:
REMARK  status: ('A' for Active; 'I' for Inactive)
REMARK    1  A    between atoms: C_1  and  C_2
REMARK    2  A    between atoms: C_2  and  O_3
REMARK    3  A    between atoms: O_3  and  C_4
REMARK    4  A    between atoms: C_4  and  N_5
REMARK    5  A    between atoms: C_11  and  C_12
REMARK    6  A    between atoms: C_12  and  C_13
REMARK    7  A    between atoms: C_12  and  C_14
REMARK    8  A    between atoms: C_15  and  S_16
REMARK    9  A    between atoms: S_16  and  C_17
REMARK                            x       y       z     vdW  Elec       q    Type
REMARK                         _______ _______ _______ _____ _____    ______ ____
ROOT
ATOM      1  N   UNL     1       9.646  -1.613  24.329  0.00  0.00    -0.264 N 
ATOM      2  C   UNL     1       8.759  -2.523  24.950  0.00  0.00    +0.091 A 
ATOM      3  C   UNL     1       8.048  -2.170  26.062  0.00  0.00    +0.050 A 
ATOM      4  C   UNL     1       8.287  -0.797  26.623  0.00  0.00    +0.258 A 
ATOM      5  O   UNL     1       7.671  -0.329  27.583  0.00  0.00    -0.267 OA
ATOM      6  N   UNL     1       9.229  -0.045  26.020  0.00  0.00    -0.275 N 
ATOM      7  H   UNL     1       9.397   0.871  26.405  0.00  0.00    +0.173 HD
ATOM      8  C   UNL     1       9.929  -0.384  24.919  0.00  0.00    +0.332 A 
ATOM      9  O   UNL     1      10.770   0.416  24.503  0.00  0.00    -0.246 OA
ENDROOT
BRANCH   3  10
ATOM     10  C   UNL     1       6.964  -2.952  26.828  0.00  0.00    +0.021 C 
ATOM     11  C   UNL     1       7.165  -4.482  26.848  0.00  0.00    +0.012 C 
ATOM     12  C   UNL     1       5.544  -2.645  26.318  0.00  0.00    +0.012 C 
ENDBRANCH   3  10
BRANCH   1  13
ATOM     13  C   UNL     1      10.549  -1.899  23.211  0.00  0.00    +0.290 C 
BRANCH  13  14
ATOM     14  O   UNL     1      10.063  -1.710  21.889  0.00  0.00    -0.359 OA
BRANCH  14  16
ATOM     15  C   UNL     1       9.381   0.633  21.406  0.00  0.00    +0.034 C 
ATOM     16  C   UNL     1       8.992  -0.806  21.678  0.00  0.00    +0.159 C 
ENDBRANCH  14  16
ENDBRANCH  13  14
ENDBRANCH   1  13
BRANCH   2  17
ATOM     17  S   UNL     1       8.271  -3.935  24.054  0.00  0.00    -0.104 S 
BRANCH  17  18
ATOM     18  C   UNL     1       7.161  -3.591  22.642  0.00  0.00    +0.053 C 
ATOM     19  C   UNL     1       5.691  -3.128  22.817  0.00  0.00    +0.014 C 
ATOM     20  C   UNL     1       4.644  -4.171  23.253  0.00  0.00    +0.001 C 
ATOM     21  C   UNL     1       4.809  -5.544  22.607  0.00  0.00    +0.000 C 
ATOM     22  C   UNL     1       6.261  -5.984  22.639  0.00  0.00    +0.001 C 
ATOM     23  C   UNL     1       7.125  -4.949  21.899  0.00  0.00    +0.014 C 
ENDBRANCH  17  18
ENDBRANCH   2  17
TORSDOF 6
ENDMDL
MODEL 3
REMARK VINA RESULT:      -5.8      2.626      5.331
REMARK  Name = 
REMARK  9 active torsions:
REMARK  status: ('A' for Active; 'I' for Inactive)
REMARK    1  A    between atoms: C_1  and  C_2
REMARK    2  A    between atoms: C_2  and  O_3
REMARK    3  A    between atoms: O_3  and  C_4
REMARK    4  A    between atoms: C_4  and  N_5
REMARK    5  A    between atoms: C_11  and  C_12
REMARK    6  A    between atoms: C_12  and  C_13
REMARK    7  A    between atoms: C_12  and  C_14
REMARK    8  A    between atoms: C_15  and  S_16
REMARK    9  A    between atoms: S_16  and  C_17
REMARK                            x       y       z     vdW  Elec       q    Type
REMARK                         _______ _______ _______ _____ _____    ______ ____
ROOT
ATOM      1  N   UNL     1       8.405  -1.521  25.278  0.00  0.00    -0.264 N 
ATOM      2  C   UNL     1       8.074  -1.091  23.972  0.00  0.00    +0.091 A 
ATOM      3  C   UNL     1       8.307   0.194  23.571  0.00  0.00    +0.050 A 
ATOM      4  C   UNL     1       8.880   1.139  24.589  0.00  0.00    +0.258 A 
ATOM      5  O   UNL     1       9.193   2.305  24.345  0.00  0.00    -0.267 OA
ATOM      6  N   UNL     1       9.061   0.658  25.835  0.00  0.00    -0.275 N 
ATOM      7  H   UNL     1       9.433   1.296  26.520  0.00  0.00    +0.173 HD
ATOM      8  C   UNL     1       8.840  -0.610  26.236  0.00  0.00    +0.332 A 
ATOM      9  O   UNL     1       9.042  -0.882  27.422  0.00  0.00    -0.246 OA
ENDROOT
BRANCH   3  10
ATOM     10  C   UNL     1       8.126   0.842  22.184  0.00  0.00    +0.021 C 
ATOM     11  C   UNL     1       9.430   1.351  21.537  0.00  0.00    +0.012 C 
ATOM     12  C   UNL     1       7.098   1.988  22.199  0.00  0.00    +0.012 C 
ENDBRANCH   3  10
BRANCH   1  13
ATOM     13  C   UNL     1       8.104  -2.828  25.870  0.00  0.00    +0.290 C 
BRANCH  13  14
ATOM     14  O   UNL     1       8.985  -3.909  25.598  0.00  0.00    -0.359 OA
BRANCH  14  16
ATOM     15  C   UNL     1       7.490  -5.280  27.038  0.00  0.00    +0.034 C 
ATOM     16  C   UNL     1       8.631  -5.207  26.045  0.00  0.00    +0.159 C 
ENDBRANCH  14  16
ENDBRANCH  13  14
ENDBRANCH   1  13
BRANCH   2  17
ATOM     17  S   UNL     1       7.761  -2.304  22.762  0.00  0.00    -0.104 S 
BRANCH  17  18
ATOM     18  C   UNL     1       5.998  -2.755  22.578  0.00  0.00    +0.053 C 
ATOM     19  C   UNL     1       5.176  -3.427  23.709  0.00  0.00    +0.014 C 
ATOM     20  C   UNL     1       5.421  -4.921  24.001  0.00  0.00    +0.001 C 
ATOM     21  C   UNL     1       5.625  -5.784  22.759  0.00  0.00    +0.000 C 
ATOM     22  C   UNL     1       6.582  -5.116  21.789  0.00  0.00    +0.001 C 
ATOM     23  C   UNL     1       6.022  -3.742  21.385  0.00  0.00    +0.014 C 
ENDBRANCH  17  18
ENDBRANCH   2  17
TORSDOF 6
ENDMDL
MODEL 4
REMARK VINA RESULT:      -5.6      2.779      4.334
REMARK  Name = 
REMARK  9 active torsions:
REMARK  status: ('A' for Active; 'I' for Inactive)
REMARK    1  A    between atoms: C_1  and  C_2
REMARK    2  A    between atoms: C_2  and  O_3
REMARK    3  A    between atoms: O_3  and  C_4
REMARK    4  A    between atoms: C_4  and  N_5
REMARK    5  A    between atoms: C_11  and  C_12
REMARK    6  A    between atoms: C_12  and  C_13
REMARK    7  A    between atoms: C_12  and  C_14
REMARK    8  A    between atoms: C_15  and  S_16
REMARK    9  A    between atoms: S_16  and  C_17
REMARK                            x       y       z     vdW  Elec       q    Type
REMARK                         _______ _______ _______ _____ _____    ______ ____
ROOT
ATOM      1  N   UNL     1       6.712  -3.511  23.075  0.00  0.00    -0.264 N 
ATOM      2  C   UNL     1       6.774  -3.778  24.463  0.00  0.00    +0.091 A 
ATOM      3  C   UNL     1       6.149  -4.867  25.001  0.00  0.00    +0.050 A 
ATOM      4  C   UNL     1       5.355  -5.736  24.066  0.00  0.00    +0.258 A 
ATOM      5  O   UNL     1       4.794  -6.779  24.408  0.00  0.00    -0.267 OA
ATOM      6  N   UNL     1       5.274  -5.337  22.782  0.00  0.00    -0.275 N 
ATOM      7  H   UNL     1       4.730  -5.913  22.159  0.00  0.00    +0.173 HD
ATOM      8  C   UNL     1       5.893  -4.267  22.243  0.00  0.00    +0.332 A 
ATOM      9  O   UNL     1       5.697  -4.032  21.048  0.00  0.00    -0.246 OA
ENDROOT
BRANCH   3  10
ATOM     10  C   UNL     1       6.171  -5.402  26.446  0.00  0.00    +0.021 C 
ATOM     11  C   UNL     1       5.410  -4.532  27.467  0.00  0.00    +0.012 C 
ATOM     12  C   UNL     1       7.601  -5.641  26.965  0.00  0.00    +0.012 C 
ENDBRANCH   3  10
BRANCH   1  13
ATOM     13  C   UNL     1       7.234  -2.325  22.390  0.00  0.00    +0.290 C 
BRANCH  13  14
ATOM     14  O   UNL     1       8.546  -2.384  21.848  0.00  0.00    -0.359 OA
BRANCH  14  16
ATOM     15  C   UNL     1       9.443  -0.091  21.486  0.00  0.00    +0.034 C 
ATOM     16  C   UNL     1       9.492  -1.404  22.242  0.00  0.00    +0.159 C 
ENDBRANCH  14  16
ENDBRANCH  13  14
ENDBRANCH   1  13
BRANCH   2  17
ATOM     17  S   UNL     1       7.984  -2.954  25.405  0.00  0.00    -0.104 S 
BRANCH  17  18
ATOM     18  C   UNL     1       7.385  -1.457  26.269  0.00  0.00    +0.053 C 
ATOM     19  C   UNL     1       6.548  -0.356  25.567  0.00  0.00    +0.014 C 
ATOM     20  C   UNL     1       7.272   0.611  24.609  0.00  0.00    +0.001 C 
ATOM     21  C   UNL     1       8.651   1.061  25.085  0.00  0.00    +0.000 C 
ATOM     22  C   UNL     1       9.457  -0.119  25.595  0.00  0.00    +0.001 C 
ATOM     23  C   UNL     1       8.698  -0.793  26.751  0.00  0.00    +0.014 C 
ENDBRANCH  17  18
ENDBRANCH   2  17
TORSDOF 6
ENDMDL
MODEL 5
REMARK VINA RESULT:      -5.6      2.302      3.521
REMARK  Name = 
REMARK  9 active torsions:
REMARK  status: ('A' for Active; 'I' for Inactive)
REMARK    1  A    between atoms: C_1  and  C_2
REMARK    2  A    between atoms: C_2  and  O_3
REMARK    3  A    between atoms: O_3  and  C_4
REMARK    4  A    between atoms: C_4  and  N_5
REMARK    5  A    between atoms: C_11  and  C_12
REMARK    6  A    between atoms: C_12  and  C_13
REMARK    7  A    between atoms: C_12  and  C_14
REMARK    8  A    between atoms: C_15  and  S_16
REMARK    9  A    between atoms: S_16  and  C_17
REMARK                            x       y       z     vdW  Elec       q    Type
REMARK                         _______ _______ _______ _____ _____    ______ ____
ROOT
ATOM      1  N   UNL     1       8.315  -3.759  24.796  0.00  0.00    -0.264 N 
ATOM      2  C   UNL     1       6.979  -3.612  25.233  0.00  0.00    +0.091 A 
ATOM      3  C   UNL     1       6.511  -4.298  26.318  0.00  0.00    +0.050 A 
ATOM      4  C   UNL     1       7.460  -5.249  26.991  0.00  0.00    +0.258 A 
ATOM      5  O   UNL     1       7.188  -5.884  28.012  0.00  0.00    -0.267 OA
ATOM      6  N   UNL     1       8.678  -5.394  26.433  0.00  0.00    -0.275 N 
ATOM      7  H   UNL     1       9.309  -6.042  26.878  0.00  0.00    +0.173 HD
ATOM      8  C   UNL     1       9.149  -4.715  25.368  0.00  0.00    +0.332 A 
ATOM      9  O   UNL     1      10.286  -4.982  24.972  0.00  0.00    -0.246 OA
ENDROOT
BRANCH   3  10
ATOM     10  C   UNL     1       5.144  -4.214  27.023  0.00  0.00    +0.021 C 
ATOM     11  C   UNL     1       3.927  -4.418  26.097  0.00  0.00    +0.012 C 
ATOM     12  C   UNL     1       4.961  -2.897  27.800  0.00  0.00    +0.012 C 
ENDBRANCH   3  10
BRANCH   1  13
ATOM     13  C   UNL     1       8.908  -3.176  23.588  0.00  0.00    +0.290 C 
BRANCH  13  14
ATOM     14  O   UNL     1       9.860  -2.132  23.742  0.00  0.00    -0.359 OA
BRANCH  14  16
ATOM     15  C   UNL     1       9.396  -0.703  21.758  0.00  0.00    +0.034 C 
ATOM     16  C   UNL     1      10.381  -1.508  22.580  0.00  0.00    +0.159 C 
ENDBRANCH  14  16
ENDBRANCH  13  14
ENDBRANCH   1  13
BRANCH   2  17
ATOM     17  S   UNL     1       6.065  -2.252  24.643  0.00  0.00    -0.104 S 
BRANCH  17  18
ATOM     18  C   UNL     1       6.913  -0.640  24.805  0.00  0.00    +0.053 C 
ATOM     19  C   UNL     1       7.856  -0.298  25.988  0.00  0.00    +0.014 C 
ATOM     20  C   UNL     1       7.224   0.012  27.360  0.00  0.00    +0.001 C 
ATOM     21  C   UNL     1       5.950   0.849  27.296  0.00  0.00    +0.000 C 
ATOM     22  C   UNL     1       5.015   0.327  26.220  0.00  0.00    +0.001 C 
ATOM     23  C   UNL     1       5.733   0.361  24.860  0.00  0.00    +0.014 C 
ENDBRANCH  17  18
ENDBRANCH   2  17
TORSDOF 6
ENDMDL
MODEL 6
REMARK VINA RESULT:      -5.6      3.334      5.639
REMARK  Name = 
REMARK  9 active torsions:
REMARK  status: ('A' for Active; 'I' for Inactive)
REMARK    1  A    between atoms: C_1  and  C_2
REMARK    2  A    between atoms: C_2  and  O_3
REMARK    3  A    between atoms: O_3  and  C_4
REMARK    4  A    between atoms: C_4  and  N_5
REMARK    5  A    between atoms: C_11  and  C_12
REMARK    6  A    between atoms: C_12  and  C_13
REMARK    7  A    between atoms: C_12  and  C_14
REMARK    8  A    between atoms: C_15  and  S_16
REMARK    9  A    between atoms: S_16  and  C_17
REMARK                            x       y       z     vdW  Elec       q    Type
REMARK                         _______ _______ _______ _____ _____    ______ ____
ROOT
ATOM      1  N   UNL     1       7.724  -2.471  24.488  0.00  0.00    -0.264 N 
ATOM      2  C   UNL     1       7.350  -1.140  24.192  0.00  0.00    +0.091 A 
ATOM      3  C   UNL     1       6.971  -0.275  25.179  0.00  0.00    +0.050 A 
ATOM      4  C   UNL     1       6.921  -0.813  26.582  0.00  0.00    +0.258 A 
ATOM      5  O   UNL     1       6.656  -0.128  27.571  0.00  0.00    -0.267 OA
ATOM      6  N   UNL     1       7.196  -2.123  26.744  0.00  0.00    -0.275 N 
ATOM      7  H   UNL     1       7.149  -2.485  27.683  0.00  0.00    +0.173 HD
ATOM      8  C   UNL     1       7.576  -2.979  25.775  0.00  0.00    +0.332 A 
ATOM      9  O   UNL     1       7.773  -4.155  26.093  0.00  0.00    -0.246 OA
ENDROOT
BRANCH   3  10
ATOM     10  C   UNL     1       6.630   1.225  25.098  0.00  0.00    +0.021 C 
ATOM     11  C   UNL     1       7.485   2.130  26.010  0.00  0.00    +0.012 C 
ATOM     12  C   UNL     1       5.141   1.507  25.373  0.00  0.00    +0.012 C 
ENDBRANCH   3  10
BRANCH   1  13
ATOM     13  C   UNL     1       8.036  -3.527  23.521  0.00  0.00    +0.290 C 
BRANCH  13  14
ATOM     14  O   UNL     1       6.959  -4.154  22.839  0.00  0.00    -0.359 OA
BRANCH  14  16
ATOM     15  C   UNL     1       6.488  -5.857  21.086  0.00  0.00    +0.034 C 
ATOM     16  C   UNL     1       7.107  -5.502  22.423  0.00  0.00    +0.159 C 
ENDBRANCH  14  16
ENDBRANCH  13  14
ENDBRANCH   1  13
BRANCH   2  17
ATOM     17  S   UNL     1       7.772  -0.497  22.629  0.00  0.00    -0.104 S 
BRANCH  17  18
ATOM     18  C   UNL     1       9.566  -0.249  22.370  0.00  0.00    +0.053 C 
ATOM     19  C   UNL     1      10.595  -0.254  23.531  0.00  0.00    +0.014 C 
ATOM     20  C   UNL     1      10.661   0.980  24.453  0.00  0.00    +0.001 C 
ATOM     21  C   UNL     1      10.516   2.318  23.733  0.00  0.00    +0.000 C 
ATOM     22  C   UNL     1       9.370   2.274  22.738  0.00  0.00    +0.001 C 
ATOM     23  C   UNL     1       9.625   1.154  21.716  0.00  0.00    +0.014 C 
ENDBRANCH  17  18
ENDBRANCH   2  17
TORSDOF 6
ENDMDL
MODEL 7
REMARK VINA RESULT:      -5.5      3.413      4.621
REMARK  Name = 
REMARK  9 active torsions:
REMARK  status: ('A' for Active; 'I' for Inactive)
REMARK    1  A    between atoms: C_1  and  C_2
REMARK    2  A    between atoms: C_2  and  O_3
REMARK    3  A    between atoms: O_3  and  C_4
REMARK    4  A    between atoms: C_4  and  N_5
REMARK    5  A    between atoms: C_11  and  C_12
REMARK    6  A    between atoms: C_12  and  C_13
REMARK    7  A    between atoms: C_12  and  C_14
REMARK    8  A    between atoms: C_15  and  S_16
REMARK    9  A    between atoms: S_16  and  C_17
REMARK                            x       y       z     vdW  Elec       q    Type
REMARK                         _______ _______ _______ _____ _____    ______ ____
ROOT
ATOM      1  N   UNL     1       7.761  -0.211  22.769  0.00  0.00    -0.264 N 
ATOM      2  C   UNL     1       7.463  -1.007  23.899  0.00  0.00    +0.091 A 
ATOM      3  C   UNL     1       6.462  -0.662  24.762  0.00  0.00    +0.050 A 
ATOM      4  C   UNL     1       5.729   0.621  24.487  0.00  0.00    +0.258 A 
ATOM      5  O   UNL     1       4.768   1.019  25.148  0.00  0.00    -0.267 OA
ATOM      6  N   UNL     1       6.159   1.359  23.444  0.00  0.00    -0.275 N 
ATOM      7  H   UNL     1       5.675   2.225  23.268  0.00  0.00    +0.173 HD
ATOM      8  C   UNL     1       7.142   1.021  22.585  0.00  0.00    +0.332 A 
ATOM      9  O   UNL     1       7.424   1.822  21.691  0.00  0.00    -0.246 OA
ENDROOT
BRANCH   3  10
ATOM     10  C   UNL     1       5.904  -1.424  25.980  0.00  0.00    +0.021 C 
ATOM     11  C   UNL     1       6.941  -2.279  26.736  0.00  0.00    +0.012 C 
ATOM     12  C   UNL     1       4.698  -2.311  25.618  0.00  0.00    +0.012 C 
ENDBRANCH   3  10
BRANCH   1  13
ATOM     13  C   UNL     1       8.876  -0.403  21.835  0.00  0.00    +0.290 C 
BRANCH  13  14
ATOM     14  O   UNL     1      10.103   0.258  22.109  0.00  0.00    -0.359 OA
BRANCH  14  16
ATOM     15  C   UNL     1      10.596   1.445  24.240  0.00  0.00    +0.034 C 
ATOM     16  C   UNL     1      10.647   0.174  23.416  0.00  0.00    +0.159 C 
ENDBRANCH  14  16
ENDBRANCH  13  14
ENDBRANCH   1  13
BRANCH   2  17
ATOM     17  S   UNL     1       8.094  -2.630  23.952  0.00  0.00    -0.104 S 
BRANCH  17  18
ATOM     18  C   UNL     1       7.515  -3.714  22.597  0.00  0.00    +0.053 C 
ATOM     19  C   UNL     1       6.122  -3.561  21.932  0.00  0.00    +0.014 C 
ATOM     20  C   UNL     1       4.883  -4.044  22.711  0.00  0.00    +0.001 C 
ATOM     21  C   UNL     1       5.085  -5.348  23.478  0.00  0.00    +0.000 C 
ATOM     22  C   UNL     1       6.400  -5.329  24.236  0.00  0.00    +0.001 C 
ATOM     23  C   UNL     1       7.557  -5.120  23.245  0.00  0.00    +0.014 C 
ENDBRANCH  17  18
ENDBRANCH   2  17
TORSDOF 6
ENDMDL
MODEL 8
REMARK VINA RESULT:      -5.4      2.902      4.975
REMARK  Name = 
REMARK  9 active torsions:
REMARK  status: ('A' for Active; 'I' for Inactive)
REMARK    1  A    between atoms: C_1  and  C_2
REMARK    2  A    between atoms: C_2  and  O_3
REMARK    3  A    between atoms: O_3  and  C_4
REMARK    4  A    between atoms: C_4  and  N_5
REMARK    5  A    between atoms: C_11  and  C_12
REMARK    6  A    between atoms: C_12  and  C_13
REMARK    7  A    between atoms: C_12  and  C_14
REMARK    8  A    between atoms: C_15  and  S_16
REMARK    9  A    between atoms: S_16  and  C_17
REMARK                            x       y       z     vdW  Elec       q    Type
REMARK                         _______ _______ _______ _____ _____    ______ ____
ROOT
ATOM      1  N   UNL     1       8.505  -1.806  23.542  0.00  0.00    -0.264 N 
ATOM      2  C   UNL     1       7.804  -1.140  24.575  0.00  0.00    +0.091 A 
ATOM      3  C   UNL     1       8.204   0.087  25.022  0.00  0.00    +0.050 A 
ATOM      4  C   UNL     1       9.445   0.672  24.408  0.00  0.00    +0.258 A 
ATOM      5  O   UNL     1       9.881   1.794  24.675  0.00  0.00    -0.267 OA
ATOM      6  N   UNL     1      10.097  -0.088  23.506  0.00  0.00    -0.275 N 
ATOM      7  H   UNL     1      10.936   0.300  23.105  0.00  0.00    +0.173 HD
ATOM      8  C   UNL     1       9.704  -1.296  23.055  0.00  0.00    +0.332 A 
ATOM      9  O   UNL     1      10.430  -1.868  22.238  0.00  0.00    -0.246 OA
ENDROOT
BRANCH   3  10
ATOM     10  C   UNL     1       7.541   1.027  26.047  0.00  0.00    +0.021 C 
ATOM     11  C   UNL     1       7.306   0.402  27.438  0.00  0.00    +0.012 C 
ATOM     12  C   UNL     1       6.211   1.613  25.535  0.00  0.00    +0.012 C 
ENDBRANCH   3  10
BRANCH   1  13
ATOM     13  C   UNL     1       8.254  -3.164  23.052  0.00  0.00    +0.290 C 
BRANCH  13  14
ATOM     14  O   UNL     1       7.349  -3.333  21.969  0.00  0.00    -0.359 OA
BRANCH  14  16
ATOM     15  C   UNL     1       7.342  -5.812  22.181  0.00  0.00    +0.034 C 
ATOM     16  C   UNL     1       6.590  -4.529  21.894  0.00  0.00    +0.159 C 
ENDBRANCH  14  16
ENDBRANCH  13  14
ENDBRANCH   1  13
BRANCH   2  17
ATOM     17  S   UNL     1       6.204  -1.699  24.976  0.00  0.00    -0.104 S 
BRANCH  17  18
ATOM     18  C   UNL     1       6.127  -2.789  26.442  0.00  0.00    +0.053 C 
ATOM     19  C   UNL     1       7.210  -3.854  26.761  0.00  0.00    +0.014 C 
ATOM     20  C   UNL     1       7.228  -5.149  25.925  0.00  0.00    +0.001 C 
ATOM     21  C   UNL     1       5.848  -5.717  25.606  0.00  0.00    +0.000 C 
ATOM     22  C   UNL     1       4.908  -4.621  25.138  0.00  0.00    +0.001 C 
ATOM     23  C   UNL     1       4.792  -3.547  26.233  0.00  0.00    +0.014 C 
ENDBRANCH  17  18
ENDBRANCH   2  17
TORSDOF 6
ENDMDL
MODEL 9
REMARK VINA RESULT:      -5.4      3.852      6.794
REMARK  Name = 
REMARK  9 active torsions:
REMARK  status: ('A' for Active; 'I' for Inactive)
REMARK    1  A    between atoms: C_1  and  C_2
REMARK    2  A    between atoms: C_2  and  O_3
REMARK    3  A    between atoms: O_3  and  C_4
REMARK    4  A    between atoms: C_4  and  N_5
REMARK    5  A    between atoms: C_11  and  C_12
REMARK    6  A    between atoms: C_12  and  C_13
REMARK    7  A    between atoms: C_12  and  C_14
REMARK    8  A    between atoms: C_15  and  S_16
REMARK    9  A    between atoms: S_16  and  C_17
REMARK                            x       y       z     vdW  Elec       q    Type
REMARK                         _______ _______ _______ _____ _____    ______ ____
ROOT
ATOM      1  N   UNL     1       6.410   0.384  24.942  0.00  0.00    -0.264 N 
ATOM      2  C   UNL     1       7.714   0.406  24.395  0.00  0.00    +0.091 A 
ATOM      3  C   UNL     1       8.193   1.514  23.754  0.00  0.00    +0.050 A 
ATOM      4  C   UNL     1       7.259   2.683  23.612  0.00  0.00    +0.258 A 
ATOM      5  O   UNL     1       7.580   3.762  23.111  0.00  0.00    -0.267 OA
ATOM      6  N   UNL     1       6.003   2.522  24.075  0.00  0.00    -0.275 N 
ATOM      7  H   UNL     1       5.375   3.302  23.967  0.00  0.00    +0.173 HD
ATOM      8  C   UNL     1       5.527   1.435  24.714  0.00  0.00    +0.332 A 
ATOM      9  O   UNL     1       4.343   1.444  25.059  0.00  0.00    -0.246 OA
ENDROOT
BRANCH   3  10
ATOM     10  C   UNL     1       9.597   1.794  23.185  0.00  0.00    +0.021 C 
ATOM     11  C   UNL     1       9.896   1.101  21.839  0.00  0.00    +0.012 C 
ATOM     12  C   UNL     1      10.718   1.447  24.182  0.00  0.00    +0.012 C 
ENDBRANCH   3  10
BRANCH   1  13
ATOM     13  C   UNL     1       5.736  -0.769  25.546  0.00  0.00    +0.290 C 
BRANCH  13  14
ATOM     14  O   UNL     1       5.120  -1.717  24.685  0.00  0.00    -0.359 OA
BRANCH  14  16
ATOM     15  C   UNL     1       3.958  -3.878  24.273  0.00  0.00    +0.034 C 
ATOM     16  C   UNL     1       4.536  -2.877  25.253  0.00  0.00    +0.159 C 
ENDBRANCH  14  16
ENDBRANCH  13  14
ENDBRANCH   1  13
BRANCH   2  17
ATOM     17  S   UNL     1       8.841  -0.820  24.905  0.00  0.00    -0.104 S 
BRANCH  17  18
ATOM     18  C   UNL     1       9.379  -1.956  23.577  0.00  0.00    +0.053 C 
ATOM     19  C   UNL     1       8.525  -2.243  22.314  0.00  0.00    +0.014 C 
ATOM     20  C   UNL     1       7.295  -3.161  22.459  0.00  0.00    +0.001 C 
ATOM     21  C   UNL     1       7.504  -4.362  23.376  0.00  0.00    +0.000 C 
ATOM     22  C   UNL     1       8.195  -3.945  24.662  0.00  0.00    +0.001 C 
ATOM     23  C   UNL     1       9.550  -3.300  24.326  0.00  0.00    +0.014 C 
ENDBRANCH  17  18
ENDBRANCH   2  17
TORSDOF 6
ENDMDL
