MODEL 1
REMARK VINA RESULT:      -4.3      0.000      0.000
REMARK  Name = 
REMARK  3 active torsions:
REMARK  status: ('A' for Active; 'I' for Inactive)
REMARK    1  A    between atoms: N_1  and  C_2
REMARK    2  A    between atoms: C_2  and  N_4
REMARK    3  A    between atoms: N_4  and  C_5
REMARK                            x       y       z     vdW  Elec       q    Type
REMARK                         _______ _______ _______ _____ _____    ______ ____
ROOT
ATOM      1  N   UNL     1      10.190  -1.894  23.148  0.00  0.00    -0.297 N 
ATOM      2  H   UNL     1      11.101  -2.328  23.103  0.00  0.00    +0.154 HD
ENDROOT
BRANCH   1   3
ATOM      3  C   UNL     1      10.215  -0.480  23.139  0.00  0.00    +0.033 A 
ATOM      4  C   UNL     1      10.592   0.319  24.218  0.00  0.00    +0.023 A 
ATOM      5  C   UNL     1      10.630   1.711  24.091  0.00  0.00    +0.002 A 
ATOM      6  C   UNL     1      10.274   2.323  22.894  0.00  0.00    +0.000 A 
ATOM      7  C   UNL     1       9.851   1.542  21.828  0.00  0.00    +0.002 A 
ATOM      8  C   UNL     1       9.808   0.149  21.953  0.00  0.00    +0.023 A 
ENDBRANCH   1   3
BRANCH   1   9
ATOM      9  C   UNL     1       9.182  -2.781  23.447  0.00  0.00    +0.132 C 
ATOM     10  S   UNL     1       7.686  -3.001  22.754  0.00  0.00    -0.019 S 
BRANCH   9  11
ATOM     11  N   UNL     1       9.481  -3.534  24.550  0.00  0.00    -0.340 N 
ATOM     12  H   UNL     1       8.942  -3.486  25.402  0.00  0.00    +0.144 HD
ATOM     13  H   UNL     1      10.437  -3.868  24.625  0.00  0.00    +0.144 HD
ENDBRANCH   9  11
ENDBRANCH   1   9
TORSDOF 3
ENDMDL
MODEL 2
REMARK VINA RESULT:      -4.3      0.126      1.521
REMARK  Name = 
REMARK  3 active torsions:
REMARK  status: ('A' for Active; 'I' for Inactive)
REMARK    1  A    between atoms: N_1  and  C_2
REMARK    2  A    between atoms: C_2  and  N_4
REMARK    3  A    between atoms: N_4  and  C_5
REMARK                            x       y       z     vdW  Elec       q    Type
REMARK                         _______ _______ _______ _____ _____    ______ ____
ROOT
ATOM      1  N   UNL     1      10.128  -1.879  23.078  0.00  0.00    -0.297 N 
ATOM      2  H   UNL     1      11.036  -2.322  23.075  0.00  0.00    +0.154 HD
ENDROOT
BRANCH   1   3
ATOM      3  C   UNL     1      10.165  -0.470  22.968  0.00  0.00    +0.033 A 
ATOM      4  C   UNL     1       9.787   0.253  21.838  0.00  0.00    +0.023 A 
ATOM      5  C   UNL     1       9.813   1.651  21.848  0.00  0.00    +0.002 A 
ATOM      6  C   UNL     1      10.233   2.343  22.977  0.00  0.00    +0.000 A 
ATOM      7  C   UNL     1      10.656   1.636  24.093  0.00  0.00    +0.002 A 
ATOM      8  C   UNL     1      10.636   0.237  24.085  0.00  0.00    +0.023 A 
ENDBRANCH   1   3
BRANCH   1   9
ATOM      9  C   UNL     1       9.110  -2.735  23.427  0.00  0.00    +0.132 C 
ATOM     10  S   UNL     1       7.622  -2.997  22.731  0.00  0.00    -0.019 S 
BRANCH   9  11
ATOM     11  N   UNL     1       9.387  -3.405  24.588  0.00  0.00    -0.340 N 
ATOM     12  H   UNL     1      10.057  -3.067  25.263  0.00  0.00    +0.144 HD
ATOM     13  H   UNL     1       9.183  -4.400  24.597  0.00  0.00    +0.144 HD
ENDBRANCH   9  11
ENDBRANCH   1   9
TORSDOF 3
ENDMDL
MODEL 3
REMARK VINA RESULT:      -4.3      4.339      5.328
REMARK  Name = 
REMARK  3 active torsions:
REMARK  status: ('A' for Active; 'I' for Inactive)
REMARK    1  A    between atoms: N_1  and  C_2
REMARK    2  A    between atoms: C_2  and  N_4
REMARK    3  A    between atoms: N_4  and  C_5
REMARK                            x       y       z     vdW  Elec       q    Type
REMARK                         _______ _______ _______ _____ _____    ______ ____
ROOT
ATOM      1  N   UNL     1       9.804   3.752  23.185  0.00  0.00    -0.297 N 
ATOM      2  H   UNL     1       8.842   4.041  23.086  0.00  0.00    +0.154 HD
ENDROOT
BRANCH   1   3
ATOM      3  C   UNL     1       9.997   2.351  23.183  0.00  0.00    +0.033 A 
ATOM      4  C   UNL     1      10.409   1.600  24.283  0.00  0.00    +0.023 A 
ATOM      5  C   UNL     1      10.522   0.209  24.191  0.00  0.00    +0.002 A 
ATOM      6  C   UNL     1      10.246  -0.446  22.997  0.00  0.00    +0.000 A 
ATOM      7  C   UNL     1       9.880   0.293  21.881  0.00  0.00    +0.002 A 
ATOM      8  C   UNL     1       9.770   1.686  21.968  0.00  0.00    +0.023 A 
ENDBRANCH   1   3
BRANCH   1   9
ATOM      9  C   UNL     1      10.647   4.782  23.533  0.00  0.00    +0.132 C 
ATOM     10  S   UNL     1      10.365   6.171  24.405  0.00  0.00    -0.019 S 
BRANCH   9  11
ATOM     11  N   UNL     1      11.892   4.626  22.985  0.00  0.00    -0.340 N 
ATOM     12  H   UNL     1      12.345   5.353  22.452  0.00  0.00    +0.144 HD
ATOM     13  H   UNL     1      12.197   3.672  22.819  0.00  0.00    +0.144 HD
ENDBRANCH   9  11
ENDBRANCH   1   9
TORSDOF 3
ENDMDL
MODEL 4
REMARK VINA RESULT:      -4.2      3.521      4.862
REMARK  Name = 
REMARK  3 active torsions:
REMARK  status: ('A' for Active; 'I' for Inactive)
REMARK    1  A    between atoms: N_1  and  C_2
REMARK    2  A    between atoms: C_2  and  N_4
REMARK    3  A    between atoms: N_4  and  C_5
REMARK                            x       y       z     vdW  Elec       q    Type
REMARK                         _______ _______ _______ _____ _____    ______ ____
ROOT
ATOM      1  N   UNL     1      10.607   2.228  23.905  0.00  0.00    -0.297 N 
ATOM      2  H   UNL     1      11.280   2.055  24.637  0.00  0.00    +0.154 HD
ENDROOT
BRANCH   1   3
ATOM      3  C   UNL     1      10.214   1.075  23.186  0.00  0.00    +0.033 A 
ATOM      4  C   UNL     1       9.663   1.082  21.905  0.00  0.00    +0.023 A 
ATOM      5  C   UNL     1       9.354  -0.119  21.259  0.00  0.00    +0.002 A 
ATOM      6  C   UNL     1       9.572  -1.338  21.889  0.00  0.00    +0.000 A 
ATOM      7  C   UNL     1      10.076  -1.358  23.182  0.00  0.00    +0.002 A 
ATOM      8  C   UNL     1      10.382  -0.158  23.833  0.00  0.00    +0.023 A 
ENDBRANCH   1   3
BRANCH   1   9
ATOM      9  C   UNL     1      10.426   3.566  23.641  0.00  0.00    +0.132 C 
ATOM     10  S   UNL     1       9.115   4.558  23.893  0.00  0.00    -0.019 S 
BRANCH   9  11
ATOM     11  N   UNL     1      11.507   4.106  22.997  0.00  0.00    -0.340 N 
ATOM     12  H   UNL     1      12.427   3.693  23.043  0.00  0.00    +0.144 HD
ATOM     13  H   UNL     1      11.455   5.095  22.775  0.00  0.00    +0.144 HD
ENDBRANCH   9  11
ENDBRANCH   1   9
TORSDOF 3
ENDMDL
MODEL 5
REMARK VINA RESULT:      -4.2      4.344      5.654
REMARK  Name = 
REMARK  3 active torsions:
REMARK  status: ('A' for Active; 'I' for Inactive)
REMARK    1  A    between atoms: N_1  and  C_2
REMARK    2  A    between atoms: C_2  and  N_4
REMARK    3  A    between atoms: N_4  and  C_5
REMARK                            x       y       z     vdW  Elec       q    Type
REMARK                         _______ _______ _______ _____ _____    ______ ____
ROOT
ATOM      1  N   UNL     1       9.828   3.864  23.346  0.00  0.00    -0.297 N 
ATOM      2  H   UNL     1       8.944   4.158  23.738  0.00  0.00    +0.154 HD
ENDROOT
BRANCH   1   3
ATOM      3  C   UNL     1       9.956   2.466  23.177  0.00  0.00    +0.033 A 
ATOM      4  C   UNL     1       9.690   1.777  21.994  0.00  0.00    +0.023 A 
ATOM      5  C   UNL     1       9.897   0.396  21.915  0.00  0.00    +0.002 A 
ATOM      6  C   UNL     1      10.353  -0.316  23.018  0.00  0.00    +0.000 A 
ATOM      7  C   UNL     1      10.578   0.349  24.214  0.00  0.00    +0.002 A 
ATOM      8  C   UNL     1      10.367   1.730  24.299  0.00  0.00    +0.023 A 
ENDBRANCH   1   3
BRANCH   1   9
ATOM      9  C   UNL     1      10.763   4.872  23.303  0.00  0.00    +0.132 C 
ATOM     10  S   UNL     1      12.425   4.815  23.286  0.00  0.00    -0.019 S 
BRANCH   9  11
ATOM     11  N   UNL     1      10.177   6.108  23.359  0.00  0.00    -0.340 N 
ATOM     12  H   UNL     1      10.662   6.951  23.091  0.00  0.00    +0.144 HD
ATOM     13  H   UNL     1       9.392   6.209  23.995  0.00  0.00    +0.144 HD
ENDBRANCH   9  11
ENDBRANCH   1   9
TORSDOF 3
ENDMDL
MODEL 6
REMARK VINA RESULT:      -4.1      1.253      1.253
REMARK  Name = 
REMARK  3 active torsions:
REMARK  status: ('A' for Active; 'I' for Inactive)
REMARK    1  A    between atoms: N_1  and  C_2
REMARK    2  A    between atoms: C_2  and  N_4
REMARK    3  A    between atoms: N_4  and  C_5
REMARK                            x       y       z     vdW  Elec       q    Type
REMARK                         _______ _______ _______ _____ _____    ______ ____
ROOT
ATOM      1  N   UNL     1       9.937  -2.104  23.742  0.00  0.00    -0.297 N 
ATOM      2  H   UNL     1      10.801  -2.618  23.644  0.00  0.00    +0.154 HD
ENDROOT
BRANCH   1   3
ATOM      3  C   UNL     1      10.047  -0.719  23.480  0.00  0.00    +0.033 A 
ATOM      4  C   UNL     1      10.458   0.238  24.406  0.00  0.00    +0.023 A 
ATOM      5  C   UNL     1      10.581   1.580  24.033  0.00  0.00    +0.002 A 
ATOM      6  C   UNL     1      10.278   1.985  22.738  0.00  0.00    +0.000 A 
ATOM      7  C   UNL     1       9.823   1.051  21.820  0.00  0.00    +0.002 A 
ATOM      8  C   UNL     1       9.694  -0.292  22.191  0.00  0.00    +0.023 A 
ENDBRANCH   1   3
BRANCH   1   9
ATOM      9  C   UNL     1       8.935  -2.838  24.333  0.00  0.00    +0.132 C 
ATOM     10  S   UNL     1       8.486  -2.980  25.929  0.00  0.00    -0.019 S 
BRANCH   9  11
ATOM     11  N   UNL     1       8.275  -3.620  23.423  0.00  0.00    -0.340 N 
ATOM     12  H   UNL     1       7.920  -4.536  23.652  0.00  0.00    +0.144 HD
ATOM     13  H   UNL     1       8.457  -3.425  22.443  0.00  0.00    +0.144 HD
ENDBRANCH   9  11
ENDBRANCH   1   9
TORSDOF 3
ENDMDL
MODEL 7
REMARK VINA RESULT:      -4.1      3.123      4.321
REMARK  Name = 
REMARK  3 active torsions:
REMARK  status: ('A' for Active; 'I' for Inactive)
REMARK    1  A    between atoms: N_1  and  C_2
REMARK    2  A    between atoms: C_2  and  N_4
REMARK    3  A    between atoms: N_4  and  C_5
REMARK                            x       y       z     vdW  Elec       q    Type
REMARK                         _______ _______ _______ _____ _____    ______ ____
ROOT
ATOM      1  N   UNL     1       9.889   1.975  23.462  0.00  0.00    -0.297 N 
ATOM      2  H   UNL     1       9.641   1.506  24.321  0.00  0.00    +0.154 HD
ENDROOT
BRANCH   1   3
ATOM      3  C   UNL     1      10.218   3.341  23.614  0.00  0.00    +0.033 A 
ATOM      4  C   UNL     1       9.336   4.332  24.041  0.00  0.00    +0.023 A 
ATOM      5  C   UNL     1       9.775   5.650  24.207  0.00  0.00    +0.002 A 
ATOM      6  C   UNL     1      11.091   5.998  23.929  0.00  0.00    +0.000 A 
ATOM      7  C   UNL     1      11.968   5.031  23.458  0.00  0.00    +0.002 A 
ATOM      8  C   UNL     1      11.531   3.713  23.287  0.00  0.00    +0.023 A 
ENDBRANCH   1   3
BRANCH   1   9
ATOM      9  C   UNL     1       9.611   1.228  22.340  0.00  0.00    +0.132 C 
ATOM     10  S   UNL     1       9.838  -0.390  22.026  0.00  0.00    -0.019 S 
BRANCH   9  11
ATOM     11  N   UNL     1       9.142   2.007  21.317  0.00  0.00    -0.340 N 
ATOM     12  H   UNL     1       8.237   1.861  20.894  0.00  0.00    +0.144 HD
ATOM     13  H   UNL     1       9.839   2.492  20.760  0.00  0.00    +0.144 HD
ENDBRANCH   9  11
ENDBRANCH   1   9
TORSDOF 3
ENDMDL
MODEL 8
REMARK VINA RESULT:      -4.0      4.617      5.623
REMARK  Name = 
REMARK  3 active torsions:
REMARK  status: ('A' for Active; 'I' for Inactive)
REMARK    1  A    between atoms: N_1  and  C_2
REMARK    2  A    between atoms: C_2  and  N_4
REMARK    3  A    between atoms: N_4  and  C_5
REMARK                            x       y       z     vdW  Elec       q    Type
REMARK                         _______ _______ _______ _____ _____    ______ ____
ROOT
ATOM      1  N   UNL     1       7.546   3.778  21.948  0.00  0.00    -0.297 N 
ATOM      2  H   UNL     1       6.836   3.427  21.320  0.00  0.00    +0.154 HD
ENDROOT
BRANCH   1   3
ATOM      3  C   UNL     1       8.504   2.817  22.346  0.00  0.00    +0.033 A 
ATOM      4  C   UNL     1       9.320   2.922  23.471  0.00  0.00    +0.023 A 
ATOM      5  C   UNL     1      10.203   1.890  23.806  0.00  0.00    +0.002 A 
ATOM      6  C   UNL     1      10.296   0.753  23.012  0.00  0.00    +0.000 A 
ATOM      7  C   UNL     1       9.524   0.656  21.864  0.00  0.00    +0.002 A 
ATOM      8  C   UNL     1       8.642   1.688  21.523  0.00  0.00    +0.023 A 
ENDBRANCH   1   3
BRANCH   1   9
ATOM      9  C   UNL     1       7.260   5.031  22.439  0.00  0.00    +0.132 C 
ATOM     10  S   UNL     1       6.564   5.505  23.874  0.00  0.00    -0.019 S 
BRANCH   9  11
ATOM     11  N   UNL     1       7.549   6.010  21.527  0.00  0.00    -0.340 N 
ATOM     12  H   UNL     1       6.982   6.838  21.422  0.00  0.00    +0.144 HD
ATOM     13  H   UNL     1       8.117   5.735  20.732  0.00  0.00    +0.144 HD
ENDBRANCH   9  11
ENDBRANCH   1   9
TORSDOF 3
ENDMDL
MODEL 9
REMARK VINA RESULT:      -3.9      1.273      2.152
REMARK  Name = 
REMARK  3 active torsions:
REMARK  status: ('A' for Active; 'I' for Inactive)
REMARK    1  A    between atoms: N_1  and  C_2
REMARK    2  A    between atoms: C_2  and  N_4
REMARK    3  A    between atoms: N_4  and  C_5
REMARK                            x       y       z     vdW  Elec       q    Type
REMARK                         _______ _______ _______ _____ _____    ______ ____
ROOT
ATOM      1  N   UNL     1       9.273  -2.931  23.794  0.00  0.00    -0.297 N 
ATOM      2  H   UNL     1      10.035  -3.281  24.357  0.00  0.00    +0.154 HD
ENDROOT
BRANCH   1   3
ATOM      3  C   UNL     1       9.511  -1.668  23.205  0.00  0.00    +0.033 A 
ATOM      4  C   UNL     1       9.266  -1.351  21.870  0.00  0.00    +0.023 A 
ATOM      5  C   UNL     1       9.488  -0.054  21.396  0.00  0.00    +0.002 A 
ATOM      6  C   UNL     1       9.976   0.935  22.242  0.00  0.00    +0.000 A 
ATOM      7  C   UNL     1      10.268   0.621  23.561  0.00  0.00    +0.002 A 
ATOM      8  C   UNL     1      10.051  -0.676  24.038  0.00  0.00    +0.023 A 
ENDBRANCH   1   3
BRANCH   1   9
ATOM      9  C   UNL     1       8.115  -3.660  23.940  0.00  0.00    +0.132 C 
ATOM     10  S   UNL     1       7.247  -4.556  22.840  0.00  0.00    -0.019 S 
BRANCH   9  11
ATOM     11  N   UNL     1       7.593  -3.534  25.199  0.00  0.00    -0.340 N 
ATOM     12  H   UNL     1       7.391  -2.637  25.616  0.00  0.00    +0.144 HD
ATOM     13  H   UNL     1       7.740  -4.315  25.831  0.00  0.00    +0.144 HD
ENDBRANCH   9  11
ENDBRANCH   1   9
TORSDOF 3
ENDMDL
