MODEL 1
REMARK VINA RESULT:      -7.9      0.000      0.000
REMARK  Name = 
REMARK  8 active torsions:
REMARK  status: ('A' for Active; 'I' for Inactive)
REMARK    1  A    between atoms: C_2  and  C_3
REMARK    2  A    between atoms: C_2  and  C_7
REMARK    3  A    between atoms: C_2  and  N_18
REMARK    4  A    between atoms: C_3  and  C_4
REMARK    5  A    between atoms: C_4  and  O_5
REMARK    6  A    between atoms: C_7  and  C_8
REMARK    7  A    between atoms: C_24  and  C_29
REMARK    8  A    between atoms: C_29  and  O_30
REMARK                            x       y       z     vdW  Elec       q    Type
REMARK                         _______ _______ _______ _____ _____    ______ ____
ROOT
ATOM      1  C   UNL     1       8.595  -2.971  24.585  0.00  0.00    +0.100 C 
ENDROOT
BRANCH   1   2
ATOM      2  N   UNL     1       9.083  -1.655  24.143  0.00  0.00    -0.230 N 
ATOM      3  C   UNL     1       9.085  -0.577  24.988  0.00  0.00    +0.254 C 
ATOM      4  O   UNL     1       8.771  -0.520  26.163  0.00  0.00    -0.270 OA
ATOM      5  C   UNL     1       9.479   0.585  24.205  0.00  0.00    +0.050 A 
ATOM      6  C   UNL     1       9.721   0.153  22.917  0.00  0.00    +0.049 A 
ATOM      7  C   UNL     1      10.064   1.037  21.913  0.00  0.00    +0.014 A 
ATOM      8  C   UNL     1      10.120   2.395  22.249  0.00  0.00    +0.016 A 
ATOM      9  C   UNL     1       9.839   2.840  23.565  0.00  0.00    +0.060 A 
ATOM     10  C   UNL     1       9.545   1.916  24.575  0.00  0.00    +0.028 A 
ATOM     11  C   UNL     1       9.475  -1.290  22.880  0.00  0.00    +0.254 C 
ATOM     12  O   UNL     1       9.617  -1.946  21.868  0.00  0.00    -0.270 OA
BRANCH   9  13
ATOM     13  C   UNL     1       9.876   4.302  23.827  0.00  0.00    +0.337 C 
ATOM     14  O   UNL     1       9.102   4.851  24.589  0.00  0.00    -0.245 OA
BRANCH  13  15
ATOM     15  O   UNL     1      10.867   4.958  23.187  0.00  0.00    -0.477 OA
ATOM     16  H   UNL     1      10.857   4.924  22.213  0.00  0.00    +0.295 HD
ENDBRANCH  13  15
ENDBRANCH   9  13
ENDBRANCH   1   2
BRANCH   1  17
ATOM     17  C   UNL     1       9.318  -3.478  25.850  0.00  0.00    +0.143 C 
BRANCH  17  18
ATOM     18  C   UNL     1       8.967  -4.861  26.323  0.00  0.00    +0.307 C 
ATOM     19  O   UNL     1       8.176  -5.132  27.208  0.00  0.00    -0.251 OA
BRANCH  18  20
ATOM     20  O   UNL     1       9.656  -5.818  25.658  0.00  0.00    -0.481 OA
ATOM     21  H   UNL     1      10.492  -5.512  25.255  0.00  0.00    +0.295 HD
ENDBRANCH  18  20
ENDBRANCH  17  18
ENDBRANCH   1  17
BRANCH   1  22
ATOM     22  C   UNL     1       7.055  -3.130  24.645  0.00  0.00    +0.059 C 
BRANCH  22  23
ATOM     23  C   UNL     1       6.440  -4.193  23.731  0.00  0.00    -0.038 A 
ATOM     24  C   UNL     1       5.049  -4.529  23.808  0.00  0.00    -0.015 A 
ATOM     25  C   UNL     1       4.539  -5.537  22.946  0.00  0.00    -0.018 A 
ATOM     26  C   UNL     1       3.182  -5.889  22.985  0.00  0.00    +0.008 A 
ATOM     27  C   UNL     1       2.302  -5.272  23.868  0.00  0.00    +0.001 A 
ATOM     28  C   UNL     1       2.773  -4.290  24.725  0.00  0.00    +0.001 A 
ATOM     29  C   UNL     1       5.388  -6.195  22.052  0.00  0.00    +0.008 A 
ATOM     30  C   UNL     1       6.741  -5.892  22.002  0.00  0.00    +0.001 A 
ATOM     31  C   UNL     1       4.124  -3.925  24.697  0.00  0.00    +0.009 A 
ATOM     32  C   UNL     1       7.261  -4.913  22.840  0.00  0.00    +0.004 A 
ENDBRANCH  22  23
ENDBRANCH   1  22
TORSDOF 8
ENDMDL
MODEL 2
REMARK VINA RESULT:      -7.9      2.382      3.475
REMARK  Name = 
REMARK  8 active torsions:
REMARK  status: ('A' for Active; 'I' for Inactive)
REMARK    1  A    between atoms: C_2  and  C_3
REMARK    2  A    between atoms: C_2  and  C_7
REMARK    3  A    between atoms: C_2  and  N_18
REMARK    4  A    between atoms: C_3  and  C_4
REMARK    5  A    between atoms: C_4  and  O_5
REMARK    6  A    between atoms: C_7  and  C_8
REMARK    7  A    between atoms: C_24  and  C_29
REMARK    8  A    between atoms: C_29  and  O_30
REMARK                            x       y       z     vdW  Elec       q    Type
REMARK                         _______ _______ _______ _____ _____    ______ ____
ROOT
ATOM      1  C   UNL     1       7.304  -3.955  23.775  0.00  0.00    +0.100 C 
ENDROOT
BRANCH   1   2
ATOM      2  N   UNL     1       7.966  -2.668  24.038  0.00  0.00    -0.230 N 
ATOM      3  C   UNL     1       7.243  -1.511  24.173  0.00  0.00    +0.254 C 
ATOM      4  O   UNL     1       6.037  -1.352  24.161  0.00  0.00    -0.270 OA
ATOM      5  C   UNL     1       8.196  -0.415  24.272  0.00  0.00    +0.050 A 
ATOM      6  C   UNL     1       9.462  -0.961  24.213  0.00  0.00    +0.049 A 
ATOM      7  C   UNL     1      10.591  -0.167  24.227  0.00  0.00    +0.014 A 
ATOM      8  C   UNL     1      10.397   1.220  24.265  0.00  0.00    +0.016 A 
ATOM      9  C   UNL     1       9.094   1.779  24.292  0.00  0.00    +0.060 A 
ATOM     10  C   UNL     1       7.969   0.947  24.330  0.00  0.00    +0.028 A 
ATOM     11  C   UNL     1       9.314  -2.411  24.073  0.00  0.00    +0.254 C 
ATOM     12  O   UNL     1      10.269  -3.158  24.004  0.00  0.00    -0.270 OA
BRANCH   9  13
ATOM     13  C   UNL     1       8.975   3.260  24.286  0.00  0.00    +0.337 C 
ATOM     14  O   UNL     1       8.518   3.884  25.227  0.00  0.00    -0.245 OA
BRANCH  13  15
ATOM     15  O   UNL     1       9.457   3.855  23.174  0.00  0.00    -0.477 OA
ATOM     16  H   UNL     1      10.423   3.969  23.123  0.00  0.00    +0.295 HD
ENDBRANCH  13  15
ENDBRANCH   9  13
ENDBRANCH   1   2
BRANCH   1  17
ATOM     17  C   UNL     1       7.420  -4.392  22.299  0.00  0.00    +0.143 C 
BRANCH  17  18
ATOM     18  C   UNL     1       6.145  -4.446  21.506  0.00  0.00    +0.307 C 
ATOM     19  O   UNL     1       5.836  -5.317  20.714  0.00  0.00    -0.251 OA
BRANCH  18  20
ATOM     20  O   UNL     1       5.346  -3.380  21.749  0.00  0.00    -0.481 OA
ATOM     21  H   UNL     1       5.565  -2.885  22.562  0.00  0.00    +0.295 HD
ENDBRANCH  18  20
ENDBRANCH  17  18
ENDBRANCH   1  17
BRANCH   1  22
ATOM     22  C   UNL     1       7.615  -5.089  24.783  0.00  0.00    +0.059 C 
BRANCH  22  23
ATOM     23  C   UNL     1       6.601  -5.304  25.909  0.00  0.00    -0.038 A 
ATOM     24  C   UNL     1       5.358  -5.976  25.676  0.00  0.00    -0.015 A 
ATOM     25  C   UNL     1       4.449  -6.130  26.757  0.00  0.00    -0.018 A 
ATOM     26  C   UNL     1       3.225  -6.789  26.572  0.00  0.00    +0.008 A 
ATOM     27  C   UNL     1       2.863  -7.303  25.330  0.00  0.00    +0.001 A 
ATOM     28  C   UNL     1       3.728  -7.163  24.257  0.00  0.00    +0.001 A 
ATOM     29  C   UNL     1       4.762  -5.617  28.019  0.00  0.00    +0.008 A 
ATOM     30  C   UNL     1       5.951  -4.937  28.235  0.00  0.00    +0.001 A 
ATOM     31  C   UNL     1       4.954  -6.510  24.425  0.00  0.00    +0.009 A 
ATOM     32  C   UNL     1       6.852  -4.772  27.190  0.00  0.00    +0.004 A 
ENDBRANCH  22  23
ENDBRANCH   1  22
TORSDOF 8
ENDMDL
MODEL 3
REMARK VINA RESULT:      -7.9      2.737      4.057
REMARK  Name = 
REMARK  8 active torsions:
REMARK  status: ('A' for Active; 'I' for Inactive)
REMARK    1  A    between atoms: C_2  and  C_3
REMARK    2  A    between atoms: C_2  and  C_7
REMARK    3  A    between atoms: C_2  and  N_18
REMARK    4  A    between atoms: C_3  and  C_4
REMARK    5  A    between atoms: C_4  and  O_5
REMARK    6  A    between atoms: C_7  and  C_8
REMARK    7  A    between atoms: C_24  and  C_29
REMARK    8  A    between atoms: C_29  and  O_30
REMARK                            x       y       z     vdW  Elec       q    Type
REMARK                         _______ _______ _______ _____ _____    ______ ____
ROOT
ATOM      1  C   UNL     1       8.092  -0.057  24.738  0.00  0.00    +0.100 C 
ENDROOT
BRANCH   1   2
ATOM      2  N   UNL     1       8.650   1.251  24.361  0.00  0.00    -0.230 N 
ATOM      3  C   UNL     1       9.945   1.374  23.928  0.00  0.00    +0.254 C 
ATOM      4  O   UNL     1      10.776   0.506  23.734  0.00  0.00    -0.270 OA
ATOM      5  C   UNL     1      10.220   2.796  23.787  0.00  0.00    +0.050 A 
ATOM      6  C   UNL     1       9.068   3.476  24.124  0.00  0.00    +0.049 A 
ATOM      7  C   UNL     1       9.024   4.856  24.142  0.00  0.00    +0.014 A 
ATOM      8  C   UNL     1      10.210   5.537  23.841  0.00  0.00    +0.016 A 
ATOM      9  C   UNL     1      11.402   4.835  23.528  0.00  0.00    +0.060 A 
ATOM     10  C   UNL     1      11.402   3.436  23.465  0.00  0.00    +0.028 A 
ATOM     11  C   UNL     1       8.055   2.481  24.484  0.00  0.00    +0.254 C 
ATOM     12  O   UNL     1       6.930   2.793  24.818  0.00  0.00    -0.270 OA
BRANCH   9  13
ATOM     13  C   UNL     1      12.628   5.633  23.265  0.00  0.00    +0.337 C 
ATOM     14  O   UNL     1      13.248   5.554  22.220  0.00  0.00    -0.245 OA
BRANCH  13  15
ATOM     15  O   UNL     1      12.966   6.481  24.259  0.00  0.00    -0.477 OA
ATOM     16  H   UNL     1      13.836   6.912  24.189  0.00  0.00    +0.295 HD
ENDBRANCH  13  15
ENDBRANCH   9  13
ENDBRANCH   1   2
BRANCH   1  17
ATOM     17  C   UNL     1       6.936   0.061  25.754  0.00  0.00    +0.143 C 
BRANCH  17  18
ATOM     18  C   UNL     1       5.554  -0.241  25.246  0.00  0.00    +0.307 C 
ATOM     19  O   UNL     1       4.958  -1.292  25.384  0.00  0.00    -0.251 OA
BRANCH  18  20
ATOM     20  O   UNL     1       5.018   0.806  24.573  0.00  0.00    -0.481 OA
ATOM     21  H   UNL     1       4.045   0.781  24.490  0.00  0.00    +0.295 HD
ENDBRANCH  18  20
ENDBRANCH  17  18
ENDBRANCH   1  17
BRANCH   1  22
ATOM     22  C   UNL     1       7.790  -1.022  23.565  0.00  0.00    +0.059 C 
BRANCH  22  23
ATOM     23  C   UNL     1       8.086  -2.505  23.803  0.00  0.00    -0.038 A 
ATOM     24  C   UNL     1       7.453  -3.527  23.025  0.00  0.00    -0.015 A 
ATOM     25  C   UNL     1       7.754  -4.887  23.304  0.00  0.00    -0.018 A 
ATOM     26  C   UNL     1       7.161  -5.917  22.560  0.00  0.00    +0.008 A 
ATOM     27  C   UNL     1       6.259  -5.640  21.537  0.00  0.00    +0.001 A 
ATOM     28  C   UNL     1       5.943  -4.323  21.247  0.00  0.00    +0.001 A 
ATOM     29  C   UNL     1       8.643  -5.215  24.333  0.00  0.00    +0.008 A 
ATOM     30  C   UNL     1       9.230  -4.225  25.107  0.00  0.00    +0.001 A 
ATOM     31  C   UNL     1       6.528  -3.283  21.978  0.00  0.00    +0.009 A 
ATOM     32  C   UNL     1       8.945  -2.889  24.853  0.00  0.00    +0.004 A 
ENDBRANCH  22  23
ENDBRANCH   1  22
TORSDOF 8
ENDMDL
MODEL 4
REMARK VINA RESULT:      -7.9      1.818      3.231
REMARK  Name = 
REMARK  8 active torsions:
REMARK  status: ('A' for Active; 'I' for Inactive)
REMARK    1  A    between atoms: C_2  and  C_3
REMARK    2  A    between atoms: C_2  and  C_7
REMARK    3  A    between atoms: C_2  and  N_18
REMARK    4  A    between atoms: C_3  and  C_4
REMARK    5  A    between atoms: C_4  and  O_5
REMARK    6  A    between atoms: C_7  and  C_8
REMARK    7  A    between atoms: C_24  and  C_29
REMARK    8  A    between atoms: C_29  and  O_30
REMARK                            x       y       z     vdW  Elec       q    Type
REMARK                         _______ _______ _______ _____ _____    ______ ____
ROOT
ATOM      1  C   UNL     1       7.978  -1.052  23.443  0.00  0.00    +0.100 C 
ENDROOT
BRANCH   1   2
ATOM      2  N   UNL     1       8.435   0.345  23.495  0.00  0.00    -0.230 N 
ATOM      3  C   UNL     1       9.585   0.742  22.862  0.00  0.00    +0.254 C 
ATOM      4  O   UNL     1      10.338   0.094  22.159  0.00  0.00    -0.270 OA
ATOM      5  C   UNL     1       9.827   2.128  23.234  0.00  0.00    +0.050 A 
ATOM      6  C   UNL     1       8.796   2.519  24.064  0.00  0.00    +0.049 A 
ATOM      7  C   UNL     1       8.767   3.777  24.634  0.00  0.00    +0.014 A 
ATOM      8  C   UNL     1       9.848   4.626  24.364  0.00  0.00    +0.016 A 
ATOM      9  C   UNL     1      10.922   4.209  23.538  0.00  0.00    +0.060 A 
ATOM     10  C   UNL     1      10.898   2.947  22.931  0.00  0.00    +0.028 A 
ATOM     11  C   UNL     1       7.896   1.376  24.224  0.00  0.00    +0.254 C 
ATOM     12  O   UNL     1       6.890   1.431  24.900  0.00  0.00    -0.270 OA
BRANCH   9  13
ATOM     13  C   UNL     1      12.051   5.154  23.338  0.00  0.00    +0.337 C 
ATOM     14  O   UNL     1      12.640   5.676  24.267  0.00  0.00    -0.245 OA
BRANCH  13  15
ATOM     15  O   UNL     1      12.396   5.346  22.047  0.00  0.00    -0.477 OA
ATOM     16  H   UNL     1      13.330   5.562  21.871  0.00  0.00    +0.295 HD
ENDBRANCH  13  15
ENDBRANCH   9  13
ENDBRANCH   1   2
BRANCH   1  17
ATOM     17  C   UNL     1       8.610  -1.925  24.547  0.00  0.00    +0.143 C 
BRANCH  17  18
ATOM     18  C   UNL     1       9.515  -3.038  24.096  0.00  0.00    +0.307 C 
ATOM     19  O   UNL     1       9.426  -4.206  24.426  0.00  0.00    -0.251 OA
BRANCH  18  20
ATOM     20  O   UNL     1      10.493  -2.597  23.269  0.00  0.00    -0.481 OA
ATOM     21  H   UNL     1      10.337  -2.776  22.322  0.00  0.00    +0.295 HD
ENDBRANCH  18  20
ENDBRANCH  17  18
ENDBRANCH   1  17
BRANCH   1  22
ATOM     22  C   UNL     1       6.450  -1.254  23.292  0.00  0.00    +0.059 C 
BRANCH  22  23
ATOM     23  C   UNL     1       5.862  -2.526  23.907  0.00  0.00    -0.038 A 
ATOM     24  C   UNL     1       5.977  -3.794  23.252  0.00  0.00    -0.015 A 
ATOM     25  C   UNL     1       5.395  -4.937  23.864  0.00  0.00    -0.018 A 
ATOM     26  C   UNL     1       5.492  -6.199  23.258  0.00  0.00    +0.008 A 
ATOM     27  C   UNL     1       6.151  -6.366  22.043  0.00  0.00    +0.001 A 
ATOM     28  C   UNL     1       6.723  -5.268  21.422  0.00  0.00    +0.001 A 
ATOM     29  C   UNL     1       4.711  -4.816  25.076  0.00  0.00    +0.008 A 
ATOM     30  C   UNL     1       4.572  -3.581  25.693  0.00  0.00    +0.001 A 
ATOM     31  C   UNL     1       6.637  -4.003  22.014  0.00  0.00    +0.009 A 
ATOM     32  C   UNL     1       5.129  -2.451  25.109  0.00  0.00    +0.004 A 
ENDBRANCH  22  23
ENDBRANCH   1  22
TORSDOF 8
ENDMDL
MODEL 5
REMARK VINA RESULT:      -7.9      3.157      8.799
REMARK  Name = 
REMARK  8 active torsions:
REMARK  status: ('A' for Active; 'I' for Inactive)
REMARK    1  A    between atoms: C_2  and  C_3
REMARK    2  A    between atoms: C_2  and  C_7
REMARK    3  A    between atoms: C_2  and  N_18
REMARK    4  A    between atoms: C_3  and  C_4
REMARK    5  A    between atoms: C_4  and  O_5
REMARK    6  A    between atoms: C_7  and  C_8
REMARK    7  A    between atoms: C_24  and  C_29
REMARK    8  A    between atoms: C_29  and  O_30
REMARK                            x       y       z     vdW  Elec       q    Type
REMARK                         _______ _______ _______ _____ _____    ______ ____
ROOT
ATOM      1  C   UNL     1       6.991  -4.327  24.368  0.00  0.00    +0.100 C 
ENDROOT
BRANCH   1   2
ATOM      2  N   UNL     1       5.707  -5.045  24.360  0.00  0.00    -0.230 N 
ATOM      3  C   UNL     1       5.380  -5.928  25.355  0.00  0.00    +0.254 C 
ATOM      4  O   UNL     1       5.998  -6.213  26.364  0.00  0.00    -0.270 OA
ATOM      5  C   UNL     1       4.131  -6.569  24.971  0.00  0.00    +0.050 A 
ATOM      6  C   UNL     1       3.743  -6.028  23.763  0.00  0.00    +0.049 A 
ATOM      7  C   UNL     1       2.614  -6.472  23.103  0.00  0.00    +0.014 A 
ATOM      8  C   UNL     1       1.900  -7.522  23.694  0.00  0.00    +0.016 A 
ATOM      9  C   UNL     1       2.319  -8.098  24.920  0.00  0.00    +0.060 A 
ATOM     10  C   UNL     1       3.438  -7.591  25.592  0.00  0.00    +0.028 A 
ATOM     11  C   UNL     1       4.752  -5.041  23.374  0.00  0.00    +0.254 C 
ATOM     12  O   UNL     1       4.668  -4.395  22.349  0.00  0.00    -0.270 OA
BRANCH   9  13
ATOM     13  C   UNL     1       1.531  -9.237  25.457  0.00  0.00    +0.337 C 
ATOM     14  O   UNL     1       0.447  -9.089  25.991  0.00  0.00    -0.245 OA
BRANCH  13  15
ATOM     15  O   UNL     1       2.095 -10.448  25.261  0.00  0.00    -0.477 OA
ATOM     16  H   UNL     1       2.548 -10.587  24.410  0.00  0.00    +0.295 HD
ENDBRANCH  13  15
ENDBRANCH   9  13
ENDBRANCH   1   2
BRANCH   1  17
ATOM     17  C   UNL     1       8.171  -5.215  23.923  0.00  0.00    +0.143 C 
BRANCH  17  18
ATOM     18  C   UNL     1       9.385  -5.226  24.810  0.00  0.00    +0.307 C 
ATOM     19  O   UNL     1      10.319  -4.449  24.747  0.00  0.00    -0.251 OA
BRANCH  18  20
ATOM     20  O   UNL     1       9.349  -6.236  25.711  0.00  0.00    -0.481 OA
ATOM     21  H   UNL     1       8.487  -6.355  26.155  0.00  0.00    +0.295 HD
ENDBRANCH  18  20
ENDBRANCH  17  18
ENDBRANCH   1  17
BRANCH   1  22
ATOM     22  C   UNL     1       6.983  -2.928  23.702  0.00  0.00    +0.059 C 
BRANCH  22  23
ATOM     23  C   UNL     1       7.857  -1.854  24.352  0.00  0.00    -0.038 A 
ATOM     24  C   UNL     1       8.592  -0.911  23.563  0.00  0.00    -0.015 A 
ATOM     25  C   UNL     1       9.401   0.053  24.223  0.00  0.00    -0.018 A 
ATOM     26  C   UNL     1      10.130   0.999  23.487  0.00  0.00    +0.008 A 
ATOM     27  C   UNL     1      10.088   1.017  22.096  0.00  0.00    +0.001 A 
ATOM     28  C   UNL     1       9.312   0.085  21.426  0.00  0.00    +0.001 A 
ATOM     29  C   UNL     1       9.486   0.064  25.619  0.00  0.00    +0.008 A 
ATOM     30  C   UNL     1       8.801  -0.871  26.380  0.00  0.00    +0.001 A 
ATOM     31  C   UNL     1       8.577  -0.863  22.146  0.00  0.00    +0.009 A 
ATOM     32  C   UNL     1       8.008  -1.824  25.753  0.00  0.00    +0.004 A 
ENDBRANCH  22  23
ENDBRANCH   1  22
TORSDOF 8
ENDMDL
MODEL 6
REMARK VINA RESULT:      -7.9      1.661      2.366
REMARK  Name = 
REMARK  8 active torsions:
REMARK  status: ('A' for Active; 'I' for Inactive)
REMARK    1  A    between atoms: C_2  and  C_3
REMARK    2  A    between atoms: C_2  and  C_7
REMARK    3  A    between atoms: C_2  and  N_18
REMARK    4  A    between atoms: C_3  and  C_4
REMARK    5  A    between atoms: C_4  and  O_5
REMARK    6  A    between atoms: C_7  and  C_8
REMARK    7  A    between atoms: C_24  and  C_29
REMARK    8  A    between atoms: C_29  and  O_30
REMARK                            x       y       z     vdW  Elec       q    Type
REMARK                         _______ _______ _______ _____ _____    ______ ____
ROOT
ATOM      1  C   UNL     1       7.986  -2.971  24.858  0.00  0.00    +0.100 C 
ENDROOT
BRANCH   1   2
ATOM      2  N   UNL     1       8.630  -1.782  24.278  0.00  0.00    -0.230 N 
ATOM      3  C   UNL     1       8.990  -0.716  25.060  0.00  0.00    +0.254 C 
ATOM      4  O   UNL     1       8.910  -0.586  26.267  0.00  0.00    -0.270 OA
ATOM      5  C   UNL     1       9.453   0.338  24.168  0.00  0.00    +0.050 A 
ATOM      6  C   UNL     1       9.371  -0.147  22.879  0.00  0.00    +0.049 A 
ATOM      7  C   UNL     1       9.691   0.642  21.791  0.00  0.00    +0.014 A 
ATOM      8  C   UNL     1      10.065   1.966  22.049  0.00  0.00    +0.016 A 
ATOM      9  C   UNL     1      10.116   2.471  23.373  0.00  0.00    +0.060 A 
ATOM     10  C   UNL     1       9.837   1.633  24.460  0.00  0.00    +0.028 A 
ATOM     11  C   UNL     1       8.851  -1.513  22.950  0.00  0.00    +0.254 C 
ATOM     12  O   UNL     1       8.680  -2.196  21.960  0.00  0.00    -0.270 OA
BRANCH   9  13
ATOM     13  C   UNL     1      10.479   3.900  23.557  0.00  0.00    +0.337 C 
ATOM     14  O   UNL     1       9.811   4.664  24.229  0.00  0.00    -0.245 OA
BRANCH  13  15
ATOM     15  O   UNL     1      11.632   4.264  22.958  0.00  0.00    -0.477 OA
ATOM     16  H   UNL     1      11.920   3.724  22.199  0.00  0.00    +0.295 HD
ENDBRANCH  13  15
ENDBRANCH   9  13
ENDBRANCH   1   2
BRANCH   1  17
ATOM     17  C   UNL     1       8.959  -3.820  25.703  0.00  0.00    +0.143 C 
BRANCH  17  18
ATOM     18  C   UNL     1       9.441  -5.107  25.094  0.00  0.00    +0.307 C 
ATOM     19  O   UNL     1       8.934  -5.682  24.150  0.00  0.00    -0.251 OA
BRANCH  18  20
ATOM     20  O   UNL     1      10.529  -5.598  25.735  0.00  0.00    -0.481 OA
ATOM     21  H   UNL     1      11.364  -5.134  25.533  0.00  0.00    +0.295 HD
ENDBRANCH  18  20
ENDBRANCH  17  18
ENDBRANCH   1  17
BRANCH   1  22
ATOM     22  C   UNL     1       6.620  -2.728  25.544  0.00  0.00    +0.059 C 
BRANCH  22  23
ATOM     23  C   UNL     1       5.994  -3.921  26.270  0.00  0.00    -0.038 A 
ATOM     24  C   UNL     1       5.321  -4.963  25.552  0.00  0.00    -0.015 A 
ATOM     25  C   UNL     1       4.745  -6.036  26.283  0.00  0.00    -0.018 A 
ATOM     26  C   UNL     1       4.085  -7.079  25.617  0.00  0.00    +0.008 A 
ATOM     27  C   UNL     1       3.968  -7.090  24.230  0.00  0.00    +0.001 A 
ATOM     28  C   UNL     1       4.516  -6.053  23.493  0.00  0.00    +0.001 A 
ATOM     29  C   UNL     1       4.824  -6.061  27.678  0.00  0.00    +0.008 A 
ATOM     30  C   UNL     1       5.446  -5.036  28.374  0.00  0.00    +0.001 A 
ATOM     31  C   UNL     1       5.180  -5.006  24.142  0.00  0.00    +0.009 A 
ATOM     32  C   UNL     1       6.012  -3.974  27.678  0.00  0.00    +0.004 A 
ENDBRANCH  22  23
ENDBRANCH   1  22
TORSDOF 8
ENDMDL
MODEL 7
REMARK VINA RESULT:      -7.8      2.431      8.409
REMARK  Name = 
REMARK  8 active torsions:
REMARK  status: ('A' for Active; 'I' for Inactive)
REMARK    1  A    between atoms: C_2  and  C_3
REMARK    2  A    between atoms: C_2  and  C_7
REMARK    3  A    between atoms: C_2  and  N_18
REMARK    4  A    between atoms: C_3  and  C_4
REMARK    5  A    between atoms: C_4  and  O_5
REMARK    6  A    between atoms: C_7  and  C_8
REMARK    7  A    between atoms: C_24  and  C_29
REMARK    8  A    between atoms: C_29  and  O_30
REMARK                            x       y       z     vdW  Elec       q    Type
REMARK                         _______ _______ _______ _____ _____    ______ ____
ROOT
ATOM      1  C   UNL     1       8.118  -0.056  24.217  0.00  0.00    +0.100 C 
ENDROOT
BRANCH   1   2
ATOM      2  N   UNL     1       7.464  -1.249  23.659  0.00  0.00    -0.230 N 
ATOM      3  C   UNL     1       6.199  -1.613  24.044  0.00  0.00    +0.254 C 
ATOM      4  O   UNL     1       5.432  -1.044  24.798  0.00  0.00    -0.270 OA
ATOM      5  C   UNL     1       5.914  -2.901  23.429  0.00  0.00    +0.050 A 
ATOM      6  C   UNL     1       7.017  -3.254  22.679  0.00  0.00    +0.049 A 
ATOM      7  C   UNL     1       7.077  -4.461  22.010  0.00  0.00    +0.014 A 
ATOM      8  C   UNL     1       5.988  -5.329  22.158  0.00  0.00    +0.016 A 
ATOM      9  C   UNL     1       4.871  -4.978  22.958  0.00  0.00    +0.060 A 
ATOM     10  C   UNL     1       4.814  -3.725  23.580  0.00  0.00    +0.028 A 
ATOM     11  C   UNL     1       8.009  -2.187  22.818  0.00  0.00    +0.254 C 
ATOM     12  O   UNL     1       9.085  -2.224  22.257  0.00  0.00    -0.270 OA
BRANCH   9  13
ATOM     13  C   UNL     1       3.777  -5.973  23.098  0.00  0.00    +0.337 C 
ATOM     14  O   UNL     1       2.645  -5.763  22.701  0.00  0.00    -0.245 OA
BRANCH  13  15
ATOM     15  O   UNL     1       4.155  -7.142  23.657  0.00  0.00    -0.477 OA
ATOM     16  H   UNL     1       3.449  -7.789  23.839  0.00  0.00    +0.295 HD
ENDBRANCH  13  15
ENDBRANCH   9  13
ENDBRANCH   1   2
BRANCH   1  17
ATOM     17  C   UNL     1       9.217  -0.406  25.242  0.00  0.00    +0.143 C 
BRANCH  17  18
ATOM     18  C   UNL     1       8.770  -1.060  26.519  0.00  0.00    +0.307 C 
ATOM     19  O   UNL     1       8.427  -2.221  26.642  0.00  0.00    -0.251 OA
BRANCH  18  20
ATOM     20  O   UNL     1       8.765  -0.195  27.561  0.00  0.00    -0.481 OA
ATOM     21  H   UNL     1       8.645   0.741  27.312  0.00  0.00    +0.295 HD
ENDBRANCH  18  20
ENDBRANCH  17  18
ENDBRANCH   1  17
BRANCH   1  22
ATOM     22  C   UNL     1       8.551   1.017  23.187  0.00  0.00    +0.059 C 
BRANCH  22  23
ATOM     23  C   UNL     1       8.308   2.477  23.574  0.00  0.00    -0.038 A 
ATOM     24  C   UNL     1       9.377   3.429  23.606  0.00  0.00    -0.015 A 
ATOM     25  C   UNL     1       9.093   4.767  23.991  0.00  0.00    -0.018 A 
ATOM     26  C   UNL     1      10.111   5.731  24.027  0.00  0.00    +0.008 A 
ATOM     27  C   UNL     1      11.423   5.407  23.697  0.00  0.00    +0.001 A 
ATOM     28  C   UNL     1      11.730   4.108  23.324  0.00  0.00    +0.001 A 
ATOM     29  C   UNL     1       7.792   5.137  24.345  0.00  0.00    +0.008 A 
ATOM     30  C   UNL     1       6.764   4.206  24.346  0.00  0.00    +0.001 A 
ATOM     31  C   UNL     1      10.726   3.135  23.280  0.00  0.00    +0.009 A 
ATOM     32  C   UNL     1       7.022   2.892  23.978  0.00  0.00    +0.004 A 
ENDBRANCH  22  23
ENDBRANCH   1  22
TORSDOF 8
ENDMDL
MODEL 8
REMARK VINA RESULT:      -7.8      1.587      2.391
REMARK  Name = 
REMARK  8 active torsions:
REMARK  status: ('A' for Active; 'I' for Inactive)
REMARK    1  A    between atoms: C_2  and  C_3
REMARK    2  A    between atoms: C_2  and  C_7
REMARK    3  A    between atoms: C_2  and  N_18
REMARK    4  A    between atoms: C_3  and  C_4
REMARK    5  A    between atoms: C_4  and  O_5
REMARK    6  A    between atoms: C_7  and  C_8
REMARK    7  A    between atoms: C_24  and  C_29
REMARK    8  A    between atoms: C_29  and  O_30
REMARK                            x       y       z     vdW  Elec       q    Type
REMARK                         _______ _______ _______ _____ _____    ______ ____
ROOT
ATOM      1  C   UNL     1       7.863  -1.858  23.468  0.00  0.00    +0.100 C 
ENDROOT
BRANCH   1   2
ATOM      2  N   UNL     1       8.158  -0.419  23.556  0.00  0.00    -0.230 N 
ATOM      3  C   UNL     1       9.213   0.133  22.877  0.00  0.00    +0.254 C 
ATOM      4  O   UNL     1       9.991  -0.395  22.105  0.00  0.00    -0.270 OA
ATOM      5  C   UNL     1       9.315   1.523  23.295  0.00  0.00    +0.050 A 
ATOM      6  C   UNL     1       8.300   1.759  24.199  0.00  0.00    +0.049 A 
ATOM      7  C   UNL     1       8.161   2.982  24.825  0.00  0.00    +0.014 A 
ATOM      8  C   UNL     1       9.118   3.962  24.532  0.00  0.00    +0.016 A 
ATOM      9  C   UNL     1      10.180   3.706  23.628  0.00  0.00    +0.060 A 
ATOM     10  C   UNL     1      10.265   2.473  22.969  0.00  0.00    +0.028 A 
ATOM     11  C   UNL     1       7.549   0.512  24.359  0.00  0.00    +0.254 C 
ATOM     12  O   UNL     1       6.587   0.424  25.094  0.00  0.00    -0.270 OA
BRANCH   9  13
ATOM     13  C   UNL     1      11.179   4.784  23.407  0.00  0.00    +0.337 C 
ATOM     14  O   UNL     1      12.377   4.571  23.379  0.00  0.00    -0.245 OA
BRANCH  13  15
ATOM     15  O   UNL     1      10.643   6.004  23.194  0.00  0.00    -0.477 OA
ATOM     16  H   UNL     1       9.977   6.308  23.836  0.00  0.00    +0.295 HD
ENDBRANCH  13  15
ENDBRANCH   9  13
ENDBRANCH   1   2
BRANCH   1  17
ATOM     17  C   UNL     1       8.409  -2.651  24.674  0.00  0.00    +0.143 C 
BRANCH  17  18
ATOM     18  C   UNL     1       9.583  -3.553  24.417  0.00  0.00    +0.307 C 
ATOM     19  O   UNL     1       9.723  -4.682  24.851  0.00  0.00    -0.251 OA
BRANCH  18  20
ATOM     20  O   UNL     1      10.522  -2.960  23.642  0.00  0.00    -0.481 OA
ATOM     21  H   UNL     1      10.798  -2.073  23.943  0.00  0.00    +0.295 HD
ENDBRANCH  18  20
ENDBRANCH  17  18
ENDBRANCH   1  17
BRANCH   1  22
ATOM     22  C   UNL     1       6.404  -2.223  23.096  0.00  0.00    +0.059 C 
BRANCH  22  23
ATOM     23  C   UNL     1       6.124  -3.695  22.786  0.00  0.00    -0.038 A 
ATOM     24  C   UNL     1       5.463  -4.545  23.731  0.00  0.00    -0.015 A 
ATOM     25  C   UNL     1       5.246  -5.908  23.394  0.00  0.00    -0.018 A 
ATOM     26  C   UNL     1       4.597  -6.770  24.289  0.00  0.00    +0.008 A 
ATOM     27  C   UNL     1       4.154  -6.322  25.530  0.00  0.00    +0.001 A 
ATOM     28  C   UNL     1       4.358  -4.999  25.888  0.00  0.00    +0.001 A 
ATOM     29  C   UNL     1       5.686  -6.408  22.165  0.00  0.00    +0.008 A 
ATOM     30  C   UNL     1       6.355  -5.593  21.264  0.00  0.00    +0.001 A 
ATOM     31  C   UNL     1       5.003  -4.125  25.005  0.00  0.00    +0.009 A 
ATOM     32  C   UNL     1       6.581  -4.258  21.577  0.00  0.00    +0.004 A 
ENDBRANCH  22  23
ENDBRANCH   1  22
TORSDOF 8
ENDMDL
MODEL 9
REMARK VINA RESULT:      -7.7      1.859      2.294
REMARK  Name = 
REMARK  8 active torsions:
REMARK  status: ('A' for Active; 'I' for Inactive)
REMARK    1  A    between atoms: C_2  and  C_3
REMARK    2  A    between atoms: C_2  and  C_7
REMARK    3  A    between atoms: C_2  and  N_18
REMARK    4  A    between atoms: C_3  and  C_4
REMARK    5  A    between atoms: C_4  and  O_5
REMARK    6  A    between atoms: C_7  and  C_8
REMARK    7  A    between atoms: C_24  and  C_29
REMARK    8  A    between atoms: C_29  and  O_30
REMARK                            x       y       z     vdW  Elec       q    Type
REMARK                         _______ _______ _______ _____ _____    ______ ____
ROOT
ATOM      1  C   UNL     1       7.450  -2.319  24.812  0.00  0.00    +0.100 C 
ENDROOT
BRANCH   1   2
ATOM      2  N   UNL     1       8.282  -1.239  24.259  0.00  0.00    -0.230 N 
ATOM      3  C   UNL     1       8.705  -0.196  25.041  0.00  0.00    +0.254 C 
ATOM      4  O   UNL     1       8.542  -0.014  26.233  0.00  0.00    -0.270 OA
ATOM      5  C   UNL     1       9.367   0.760  24.166  0.00  0.00    +0.050 A 
ATOM      6  C   UNL     1       9.332   0.243  22.887  0.00  0.00    +0.049 A 
ATOM      7  C   UNL     1       9.836   0.946  21.811  0.00  0.00    +0.014 A 
ATOM      8  C   UNL     1      10.348   2.224  22.066  0.00  0.00    +0.016 A 
ATOM      9  C   UNL     1      10.352   2.767  23.376  0.00  0.00    +0.060 A 
ATOM     10  C   UNL     1       9.883   2.009  24.456  0.00  0.00    +0.028 A 
ATOM     11  C   UNL     1       8.643  -1.047  22.949  0.00  0.00    +0.254 C 
ATOM     12  O   UNL     1       8.471  -1.739  21.966  0.00  0.00    -0.270 OA
BRANCH   9  13
ATOM     13  C   UNL     1      10.873   4.147  23.554  0.00  0.00    +0.337 C 
ATOM     14  O   UNL     1      10.166   5.075  23.903  0.00  0.00    -0.245 OA
BRANCH  13  15
ATOM     15  O   UNL     1      12.200   4.274  23.342  0.00  0.00    -0.477 OA
ATOM     16  H   UNL     1      12.690   4.842  23.963  0.00  0.00    +0.295 HD
ENDBRANCH  13  15
ENDBRANCH   9  13
ENDBRANCH   1   2
BRANCH   1  17
ATOM     17  C   UNL     1       5.943  -2.090  24.573  0.00  0.00    +0.143 C 
BRANCH  17  18
ATOM     18  C   UNL     1       5.110  -1.746  25.776  0.00  0.00    +0.307 C 
ATOM     19  O   UNL     1       3.896  -1.798  25.841  0.00  0.00    -0.251 OA
BRANCH  18  20
ATOM     20  O   UNL     1       5.869  -1.337  26.821  0.00  0.00    -0.481 OA
ATOM     21  H   UNL     1       6.761  -1.732  26.856  0.00  0.00    +0.295 HD
ENDBRANCH  18  20
ENDBRANCH  17  18
ENDBRANCH   1  17
BRANCH   1  22
ATOM     22  C   UNL     1       7.917  -3.760  24.486  0.00  0.00    +0.059 C 
BRANCH  22  23
ATOM     23  C   UNL     1       6.922  -4.651  23.739  0.00  0.00    -0.038 A 
ATOM     24  C   UNL     1       5.983  -5.474  24.440  0.00  0.00    -0.015 A 
ATOM     25  C   UNL     1       5.096  -6.293  23.692  0.00  0.00    -0.018 A 
ATOM     26  C   UNL     1       4.156  -7.107  24.341  0.00  0.00    +0.008 A 
ATOM     27  C   UNL     1       4.070  -7.142  25.730  0.00  0.00    +0.001 A 
ATOM     28  C   UNL     1       4.927  -6.357  26.485  0.00  0.00    +0.001 A 
ATOM     29  C   UNL     1       5.155  -6.303  22.295  0.00  0.00    +0.008 A 
ATOM     30  C   UNL     1       6.087  -5.531  21.618  0.00  0.00    +0.001 A 
ATOM     31  C   UNL     1       5.868  -5.538  25.852  0.00  0.00    +0.009 A 
ATOM     32  C   UNL     1       6.966  -4.726  22.331  0.00  0.00    +0.004 A 
ENDBRANCH  22  23
ENDBRANCH   1  22
TORSDOF 8
ENDMDL
