MODEL 1
REMARK VINA RESULT:      -5.8      0.000      0.000
REMARK  Name = 
REMARK  8 active torsions:
REMARK  status: ('A' for Active; 'I' for Inactive)
REMARK    1  A    between atoms: C_2  and  O_3
REMARK    2  A    between atoms: C_7  and  C_8
REMARK    3  A    between atoms: C_8  and  C_10
REMARK    4  A    between atoms: C_10  and  C_11
REMARK    5  A    between atoms: C_11  and  C_12
REMARK    6  A    between atoms: C_12  and  O_13
REMARK    7  A    between atoms: C_15  and  C_17
REMARK    8  A    between atoms: C_17  and  O_18
REMARK                            x       y       z     vdW  Elec       q    Type
REMARK                         _______ _______ _______ _____ _____    ______ ____
ROOT
ATOM      1  C   UNL     1       9.302   1.890  22.740  0.00  0.00    +0.156 C 
ATOM      2  C   UNL     1       8.656   0.483  22.754  0.00  0.00    +0.163 C 
ATOM      3  C   UNL     1       9.479  -0.592  23.426  0.00  0.00    +0.012 C 
ATOM      4  C   UNL     1      10.533  -0.289  24.210  0.00  0.00    +0.008 C 
ATOM      5  C   UNL     1      10.931   1.075  24.447  0.00  0.00    -0.001 C 
ATOM      6  C   UNL     1      10.386   2.089  23.761  0.00  0.00    +0.005 C 
ENDROOT
BRANCH   2   7
ATOM      7  C   UNL     1       7.271   0.600  23.370  0.00  0.00    +0.315 C 
ATOM      8  O   UNL     1       7.034   1.343  24.314  0.00  0.00    -0.250 OA
BRANCH   7   9
ATOM      9  O   UNL     1       6.308  -0.184  22.840  0.00  0.00    -0.480 OA
ATOM     10  H   UNL     1       6.499  -0.585  21.970  0.00  0.00    +0.295 HD
ENDBRANCH   7   9
ENDBRANCH   2   7
BRANCH   3  11
ATOM     11  C   UNL     1       9.149  -2.039  23.239  0.00  0.00    +0.161 C 
ATOM     12  O   UNL     1       8.357  -2.398  22.364  0.00  0.00    -0.292 OA
BRANCH  11  13
ATOM     13  C   UNL     1       9.681  -3.088  24.187  0.00  0.00    +0.090 C 
BRANCH  13  14
ATOM     14  C   UNL     1       8.566  -4.016  24.640  0.00  0.00    +0.128 C 
BRANCH  14  15
ATOM     15  C   UNL     1       8.933  -5.242  25.450  0.00  0.00    +0.305 C 
ATOM     16  O   UNL     1       8.110  -5.781  26.182  0.00  0.00    -0.251 OA
BRANCH  15  17
ATOM     17  O   UNL     1      10.176  -5.736  25.334  0.00  0.00    -0.481 OA
ATOM     18  H   UNL     1      10.755  -5.780  26.128  0.00  0.00    +0.295 HD
ENDBRANCH  15  17
ENDBRANCH  14  15
ENDBRANCH  13  14
ENDBRANCH  11  13
ENDBRANCH   3  11
BRANCH   1  19
ATOM     19  O   UNL     1       9.891   2.102  21.457  0.00  0.00    -0.387 OA
ATOM     20  H   UNL     1      10.486   1.357  21.272  0.00  0.00    +0.210 HD
ENDBRANCH   1  19
TORSDOF 8
ENDMDL
MODEL 2
REMARK VINA RESULT:      -5.7      1.714      2.258
REMARK  Name = 
REMARK  8 active torsions:
REMARK  status: ('A' for Active; 'I' for Inactive)
REMARK    1  A    between atoms: C_2  and  O_3
REMARK    2  A    between atoms: C_7  and  C_8
REMARK    3  A    between atoms: C_8  and  C_10
REMARK    4  A    between atoms: C_10  and  C_11
REMARK    5  A    between atoms: C_11  and  C_12
REMARK    6  A    between atoms: C_12  and  O_13
REMARK    7  A    between atoms: C_15  and  C_17
REMARK    8  A    between atoms: C_17  and  O_18
REMARK                            x       y       z     vdW  Elec       q    Type
REMARK                         _______ _______ _______ _____ _____    ______ ____
ROOT
ATOM      1  C   UNL     1       7.668   1.146  23.108  0.00  0.00    +0.156 C 
ATOM      2  C   UNL     1       8.054  -0.100  23.942  0.00  0.00    +0.163 C 
ATOM      3  C   UNL     1       8.949  -1.092  23.235  0.00  0.00    +0.012 C 
ATOM      4  C   UNL     1       9.600  -0.770  22.098  0.00  0.00    +0.008 C 
ATOM      5  C   UNL     1       9.475   0.533  21.499  0.00  0.00    -0.001 C 
ATOM      6  C   UNL     1       8.573   1.420  21.941  0.00  0.00    +0.005 C 
ENDROOT
BRANCH   2   7
ATOM      7  C   UNL     1       8.662   0.373  25.253  0.00  0.00    +0.315 C 
ATOM      8  O   UNL     1       8.054   0.320  26.315  0.00  0.00    -0.250 OA
BRANCH   7   9
ATOM      9  O   UNL     1       9.910   0.885  25.188  0.00  0.00    -0.480 OA
ATOM     10  H   UNL     1      10.476   0.762  25.974  0.00  0.00    +0.295 HD
ENDBRANCH   7   9
ENDBRANCH   2   7
BRANCH   3  11
ATOM     11  C   UNL     1       9.141  -2.472  23.776  0.00  0.00    +0.161 C 
ATOM     12  O   UNL     1      10.262  -2.988  23.808  0.00  0.00    -0.292 OA
BRANCH  11  13
ATOM     13  C   UNL     1       7.961  -3.319  24.190  0.00  0.00    +0.090 C 
BRANCH  13  14
ATOM     14  C   UNL     1       8.316  -4.795  24.141  0.00  0.00    +0.128 C 
BRANCH  14  15
ATOM     15  C   UNL     1       8.930  -5.431  25.372  0.00  0.00    +0.305 C 
ATOM     16  O   UNL     1       8.230  -5.761  26.323  0.00  0.00    -0.251 OA
BRANCH  15  17
ATOM     17  O   UNL     1      10.256  -5.638  25.391  0.00  0.00    -0.481 OA
ATOM     18  H   UNL     1      10.715  -5.908  24.565  0.00  0.00    +0.295 HD
ENDBRANCH  15  17
ENDBRANCH  14  15
ENDBRANCH  13  14
ENDBRANCH  11  13
ENDBRANCH   3  11
BRANCH   1  19
ATOM     19  O   UNL     1       6.356   0.947  22.582  0.00  0.00    -0.387 OA
ATOM     20  H   UNL     1       5.892   1.801  22.598  0.00  0.00    +0.210 HD
ENDBRANCH   1  19
TORSDOF 8
ENDMDL
MODEL 3
REMARK VINA RESULT:      -5.7      2.375      5.464
REMARK  Name = 
REMARK  8 active torsions:
REMARK  status: ('A' for Active; 'I' for Inactive)
REMARK    1  A    between atoms: C_2  and  O_3
REMARK    2  A    between atoms: C_7  and  C_8
REMARK    3  A    between atoms: C_8  and  C_10
REMARK    4  A    between atoms: C_10  and  C_11
REMARK    5  A    between atoms: C_11  and  C_12
REMARK    6  A    between atoms: C_12  and  O_13
REMARK    7  A    between atoms: C_15  and  C_17
REMARK    8  A    between atoms: C_17  and  O_18
REMARK                            x       y       z     vdW  Elec       q    Type
REMARK                         _______ _______ _______ _____ _____    ______ ____
ROOT
ATOM      1  C   UNL     1       7.417  -2.316  23.138  0.00  0.00    +0.156 C 
ATOM      2  C   UNL     1       8.402  -1.122  23.148  0.00  0.00    +0.163 C 
ATOM      3  C   UNL     1       8.880  -0.698  24.518  0.00  0.00    +0.012 C 
ATOM      4  C   UNL     1       8.706  -1.482  25.601  0.00  0.00    +0.008 C 
ATOM      5  C   UNL     1       8.056  -2.763  25.510  0.00  0.00    -0.001 C 
ATOM      6  C   UNL     1       7.438  -3.153  24.386  0.00  0.00    +0.005 C 
ENDROOT
BRANCH   2   7
ATOM      7  C   UNL     1       9.563  -1.454  22.225  0.00  0.00    +0.315 C 
ATOM      8  O   UNL     1      10.449  -2.239  22.541  0.00  0.00    -0.250 OA
BRANCH   7   9
ATOM      9  O   UNL     1       9.588  -0.816  21.035  0.00  0.00    -0.480 OA
ATOM     10  H   UNL     1       8.723  -0.582  20.645  0.00  0.00    +0.295 HD
ENDBRANCH   7   9
ENDBRANCH   2   7
BRANCH   3  11
ATOM     11  C   UNL     1       9.564   0.616  24.717  0.00  0.00    +0.161 C 
ATOM     12  O   UNL     1      10.780   0.671  24.923  0.00  0.00    -0.292 OA
BRANCH  11  13
ATOM     13  C   UNL     1       8.776   1.904  24.790  0.00  0.00    +0.090 C 
BRANCH  13  14
ATOM     14  C   UNL     1       9.156   2.830  23.647  0.00  0.00    +0.128 C 
BRANCH  14  15
ATOM     15  C   UNL     1       9.111   2.287  22.234  0.00  0.00    +0.305 C 
ATOM     16  O   UNL     1       8.043   1.997  21.706  0.00  0.00    -0.251 OA
BRANCH  15  17
ATOM     17  O   UNL     1      10.268   2.146  21.566  0.00  0.00    -0.481 OA
ATOM     18  H   UNL     1      10.604   2.890  21.019  0.00  0.00    +0.295 HD
ENDBRANCH  15  17
ENDBRANCH  14  15
ENDBRANCH  13  14
ENDBRANCH  11  13
ENDBRANCH   3  11
BRANCH   1  19
ATOM     19  O   UNL     1       6.091  -1.805  23.001  0.00  0.00    -0.387 OA
ATOM     20  H   UNL     1       5.866  -1.326  23.816  0.00  0.00    +0.210 HD
ENDBRANCH   1  19
TORSDOF 8
ENDMDL
MODEL 4
REMARK VINA RESULT:      -5.6      1.870      6.122
REMARK  Name = 
REMARK  8 active torsions:
REMARK  status: ('A' for Active; 'I' for Inactive)
REMARK    1  A    between atoms: C_2  and  O_3
REMARK    2  A    between atoms: C_7  and  C_8
REMARK    3  A    between atoms: C_8  and  C_10
REMARK    4  A    between atoms: C_10  and  C_11
REMARK    5  A    between atoms: C_11  and  C_12
REMARK    6  A    between atoms: C_12  and  O_13
REMARK    7  A    between atoms: C_15  and  C_17
REMARK    8  A    between atoms: C_17  and  O_18
REMARK                            x       y       z     vdW  Elec       q    Type
REMARK                         _______ _______ _______ _____ _____    ______ ____
ROOT
ATOM      1  C   UNL     1       6.985  -5.254  23.448  0.00  0.00    +0.156 C 
ATOM      2  C   UNL     1       8.314  -4.496  23.683  0.00  0.00    +0.163 C 
ATOM      3  C   UNL     1       8.205  -2.989  23.654  0.00  0.00    +0.012 C 
ATOM      4  C   UNL     1       7.011  -2.365  23.725  0.00  0.00    +0.008 C 
ATOM      5  C   UNL     1       5.779  -3.102  23.832  0.00  0.00    -0.001 C 
ATOM      6  C   UNL     1       5.749  -4.434  23.686  0.00  0.00    +0.005 C 
ENDROOT
BRANCH   2   7
ATOM      7  C   UNL     1       8.922  -4.991  24.985  0.00  0.00    +0.315 C 
ATOM      8  O   UNL     1       8.260  -5.134  26.006  0.00  0.00    -0.250 OA
BRANCH   7   9
ATOM      9  O   UNL     1      10.249  -5.245  24.972  0.00  0.00    -0.480 OA
ATOM     10  H   UNL     1      10.715  -5.094  24.128  0.00  0.00    +0.295 HD
ENDBRANCH   7   9
ENDBRANCH   2   7
BRANCH   3  11
ATOM     11  C   UNL     1       9.427  -2.134  23.542  0.00  0.00    +0.161 C 
ATOM     12  O   UNL     1      10.509  -2.620  23.201  0.00  0.00    -0.292 OA
BRANCH  11  13
ATOM     13  C   UNL     1       9.402  -0.680  23.953  0.00  0.00    +0.090 C 
BRANCH  13  14
ATOM     14  C   UNL     1      10.372   0.132  23.111  0.00  0.00    +0.128 C 
BRANCH  14  15
ATOM     15  C   UNL     1       9.841   0.841  21.882  0.00  0.00    +0.305 C 
ATOM     16  O   UNL     1       9.113   0.258  21.086  0.00  0.00    -0.251 OA
BRANCH  15  17
ATOM     17  O   UNL     1      10.174   2.128  21.694  0.00  0.00    -0.481 OA
ATOM     18  H   UNL     1      10.895   2.525  22.231  0.00  0.00    +0.295 HD
ENDBRANCH  15  17
ENDBRANCH  14  15
ENDBRANCH  13  14
ENDBRANCH  11  13
ENDBRANCH   3  11
BRANCH   1  19
ATOM     19  O   UNL     1       6.946  -5.685  22.088  0.00  0.00    -0.387 OA
ATOM     20  H   UNL     1       7.171  -6.631  22.065  0.00  0.00    +0.210 HD
ENDBRANCH   1  19
TORSDOF 8
ENDMDL
MODEL 5
REMARK VINA RESULT:      -5.6      2.166      3.410
REMARK  Name = 
REMARK  8 active torsions:
REMARK  status: ('A' for Active; 'I' for Inactive)
REMARK    1  A    between atoms: C_2  and  O_3
REMARK    2  A    between atoms: C_7  and  C_8
REMARK    3  A    between atoms: C_8  and  C_10
REMARK    4  A    between atoms: C_10  and  C_11
REMARK    5  A    between atoms: C_11  and  C_12
REMARK    6  A    between atoms: C_12  and  O_13
REMARK    7  A    between atoms: C_15  and  C_17
REMARK    8  A    between atoms: C_17  and  O_18
REMARK                            x       y       z     vdW  Elec       q    Type
REMARK                         _______ _______ _______ _____ _____    ______ ____
ROOT
ATOM      1  C   UNL     1       7.894   0.707  23.202  0.00  0.00    +0.156 C 
ATOM      2  C   UNL     1       8.239  -0.559  24.022  0.00  0.00    +0.163 C 
ATOM      3  C   UNL     1       8.998  -1.625  23.267  0.00  0.00    +0.012 C 
ATOM      4  C   UNL     1       9.590  -1.365  22.082  0.00  0.00    +0.008 C 
ATOM      5  C   UNL     1       9.526  -0.061  21.476  0.00  0.00    -0.001 C 
ATOM      6  C   UNL     1       8.731   0.899  21.969  0.00  0.00    +0.005 C 
ENDROOT
BRANCH   2   7
ATOM      7  C   UNL     1       8.976  -0.126  25.280  0.00  0.00    +0.315 C 
ATOM      8  O   UNL     1       8.743  -0.617  26.378  0.00  0.00    -0.250 OA
BRANCH   7   9
ATOM      9  O   UNL     1       9.892   0.855  25.134  0.00  0.00    -0.480 OA
ATOM     10  H   UNL     1      10.364   0.890  24.279  0.00  0.00    +0.295 HD
ENDBRANCH   7   9
ENDBRANCH   2   7
BRANCH   3  11
ATOM     11  C   UNL     1       9.119  -3.012  23.811  0.00  0.00    +0.161 C 
ATOM     12  O   UNL     1      10.219  -3.471  24.133  0.00  0.00    -0.292 OA
BRANCH  11  13
ATOM     13  C   UNL     1       7.922  -3.932  23.874  0.00  0.00    +0.090 C 
BRANCH  13  14
ATOM     14  C   UNL     1       7.276  -4.064  22.506  0.00  0.00    +0.128 C 
BRANCH  14  15
ATOM     15  C   UNL     1       5.867  -3.539  22.320  0.00  0.00    +0.305 C 
ATOM     16  O   UNL     1       4.926  -4.308  22.155  0.00  0.00    -0.251 OA
BRANCH  15  17
ATOM     17  O   UNL     1       5.671  -2.211  22.356  0.00  0.00    -0.481 OA
ATOM     18  H   UNL     1       6.297  -1.616  21.887  0.00  0.00    +0.295 HD
ENDBRANCH  15  17
ENDBRANCH  14  15
ENDBRANCH  13  14
ENDBRANCH  11  13
ENDBRANCH   3  11
BRANCH   1  19
ATOM     19  O   UNL     1       6.536   0.611  22.773  0.00  0.00    -0.387 OA
ATOM     20  H   UNL     1       6.059   0.047  23.406  0.00  0.00    +0.210 HD
ENDBRANCH   1  19
TORSDOF 8
ENDMDL
MODEL 6
REMARK VINA RESULT:      -5.5      1.911      2.870
REMARK  Name = 
REMARK  8 active torsions:
REMARK  status: ('A' for Active; 'I' for Inactive)
REMARK    1  A    between atoms: C_2  and  O_3
REMARK    2  A    between atoms: C_7  and  C_8
REMARK    3  A    between atoms: C_8  and  C_10
REMARK    4  A    between atoms: C_10  and  C_11
REMARK    5  A    between atoms: C_11  and  C_12
REMARK    6  A    between atoms: C_12  and  O_13
REMARK    7  A    between atoms: C_15  and  C_17
REMARK    8  A    between atoms: C_17  and  O_18
REMARK                            x       y       z     vdW  Elec       q    Type
REMARK                         _______ _______ _______ _____ _____    ______ ____
ROOT
ATOM      1  C   UNL     1       9.514   1.344  21.597  0.00  0.00    +0.156 C 
ATOM      2  C   UNL     1       9.738   0.292  22.711  0.00  0.00    +0.163 C 
ATOM      3  C   UNL     1       8.643   0.216  23.749  0.00  0.00    +0.012 C 
ATOM      4  C   UNL     1       7.440   0.793  23.551  0.00  0.00    +0.008 C 
ATOM      5  C   UNL     1       7.137   1.512  22.341  0.00  0.00    -0.001 C 
ATOM      6  C   UNL     1       8.089   1.792  21.440  0.00  0.00    +0.005 C 
ENDROOT
BRANCH   2   7
ATOM      7  C   UNL     1       9.983  -1.056  22.051  0.00  0.00    +0.315 C 
ATOM      8  O   UNL     1      10.742  -1.891  22.527  0.00  0.00    -0.250 OA
BRANCH   7   9
ATOM      9  O   UNL     1       9.337  -1.283  20.887  0.00  0.00    -0.480 OA
ATOM     10  H   UNL     1       8.363  -1.330  20.928  0.00  0.00    +0.295 HD
ENDBRANCH   7   9
ENDBRANCH   2   7
BRANCH   3  11
ATOM     11  C   UNL     1       8.859  -0.505  25.041  0.00  0.00    +0.161 C 
ATOM     12  O   UNL     1       9.873  -0.304  25.715  0.00  0.00    -0.292 OA
BRANCH  11  13
ATOM     13  C   UNL     1       7.907  -1.585  25.501  0.00  0.00    +0.090 C 
BRANCH  13  14
ATOM     14  C   UNL     1       7.865  -2.726  24.499  0.00  0.00    +0.128 C 
BRANCH  14  15
ATOM     15  C   UNL     1       8.721  -3.948  24.762  0.00  0.00    +0.305 C 
ATOM     16  O   UNL     1       8.239  -4.955  25.269  0.00  0.00    -0.251 OA
BRANCH  15  17
ATOM     17  O   UNL     1      10.017  -3.907  24.412  0.00  0.00    -0.481 OA
ATOM     18  H   UNL     1      10.469  -4.734  24.133  0.00  0.00    +0.295 HD
ENDBRANCH  15  17
ENDBRANCH  14  15
ENDBRANCH  13  14
ENDBRANCH  11  13
ENDBRANCH   3  11
BRANCH   1  19
ATOM     19  O   UNL     1      10.285   2.504  21.912  0.00  0.00    -0.387 OA
ATOM     20  H   UNL     1      11.081   2.497  21.354  0.00  0.00    +0.210 HD
ENDBRANCH   1  19
TORSDOF 8
ENDMDL
MODEL 7
REMARK VINA RESULT:      -5.5      1.791      5.855
REMARK  Name = 
REMARK  8 active torsions:
REMARK  status: ('A' for Active; 'I' for Inactive)
REMARK    1  A    between atoms: C_2  and  O_3
REMARK    2  A    between atoms: C_7  and  C_8
REMARK    3  A    between atoms: C_8  and  C_10
REMARK    4  A    between atoms: C_10  and  C_11
REMARK    5  A    between atoms: C_11  and  C_12
REMARK    6  A    between atoms: C_12  and  O_13
REMARK    7  A    between atoms: C_15  and  C_17
REMARK    8  A    between atoms: C_17  and  O_18
REMARK                            x       y       z     vdW  Elec       q    Type
REMARK                         _______ _______ _______ _____ _____    ______ ____
ROOT
ATOM      1  C   UNL     1       9.003  -4.411  25.020  0.00  0.00    +0.156 C 
ATOM      2  C   UNL     1       9.085  -2.877  24.834  0.00  0.00    +0.163 C 
ATOM      3  C   UNL     1       8.592  -2.366  23.500  0.00  0.00    +0.012 C 
ATOM      4  C   UNL     1       7.862  -3.142  22.672  0.00  0.00    +0.008 C 
ATOM      5  C   UNL     1       7.517  -4.498  23.016  0.00  0.00    -0.001 C 
ATOM      6  C   UNL     1       8.053  -5.103  24.085  0.00  0.00    +0.005 C 
ENDROOT
BRANCH   2   7
ATOM      7  C   UNL     1       8.357  -2.217  25.994  0.00  0.00    +0.315 C 
ATOM      8  O   UNL     1       7.259  -2.597  26.381  0.00  0.00    -0.250 OA
BRANCH   7   9
ATOM      9  O   UNL     1       8.972  -1.160  26.568  0.00  0.00    -0.480 OA
ATOM     10  H   UNL     1       9.922  -1.264  26.771  0.00  0.00    +0.295 HD
ENDBRANCH   7   9
ENDBRANCH   2   7
BRANCH   3  11
ATOM     11  C   UNL     1       8.900  -0.974  23.051  0.00  0.00    +0.161 C 
ATOM     12  O   UNL     1       8.042  -0.287  22.489  0.00  0.00    -0.292 OA
BRANCH  11  13
ATOM     13  C   UNL     1      10.297  -0.409  23.164  0.00  0.00    +0.090 C 
BRANCH  13  14
ATOM     14  C   UNL     1      10.265   0.982  23.774  0.00  0.00    +0.128 C 
BRANCH  14  15
ATOM     15  C   UNL     1      10.392   2.177  22.852  0.00  0.00    +0.305 C 
ATOM     16  O   UNL     1      10.916   3.216  23.239  0.00  0.00    -0.251 OA
BRANCH  15  17
ATOM     17  O   UNL     1       9.932   2.066  21.595  0.00  0.00    -0.481 OA
ATOM     18  H   UNL     1       9.165   1.480  21.411  0.00  0.00    +0.295 HD
ENDBRANCH  15  17
ENDBRANCH  14  15
ENDBRANCH  13  14
ENDBRANCH  11  13
ENDBRANCH   3  11
BRANCH   1  19
ATOM     19  O   UNL     1      10.298  -4.964  24.783  0.00  0.00    -0.387 OA
ATOM     20  H   UNL     1      10.906  -4.232  24.582  0.00  0.00    +0.210 HD
ENDBRANCH   1  19
TORSDOF 8
ENDMDL
MODEL 8
REMARK VINA RESULT:      -5.4      2.369      3.925
REMARK  Name = 
REMARK  8 active torsions:
REMARK  status: ('A' for Active; 'I' for Inactive)
REMARK    1  A    between atoms: C_2  and  O_3
REMARK    2  A    between atoms: C_7  and  C_8
REMARK    3  A    between atoms: C_8  and  C_10
REMARK    4  A    between atoms: C_10  and  C_11
REMARK    5  A    between atoms: C_11  and  C_12
REMARK    6  A    between atoms: C_12  and  O_13
REMARK    7  A    between atoms: C_15  and  C_17
REMARK    8  A    between atoms: C_17  and  O_18
REMARK                            x       y       z     vdW  Elec       q    Type
REMARK                         _______ _______ _______ _____ _____    ______ ____
ROOT
ATOM      1  C   UNL     1       8.540   5.317  23.361  0.00  0.00    +0.156 C 
ATOM      2  C   UNL     1       8.575   3.770  23.325  0.00  0.00    +0.163 C 
ATOM      3  C   UNL     1       9.954   3.163  23.207  0.00  0.00    +0.012 C 
ATOM      4  C   UNL     1      11.068   3.892  23.425  0.00  0.00    +0.008 C 
ATOM      5  C   UNL     1      11.001   5.286  23.780  0.00  0.00    -0.001 C 
ATOM      6  C   UNL     1       9.845   5.962  23.735  0.00  0.00    +0.005 C 
ENDROOT
BRANCH   2   7
ATOM      7  C   UNL     1       7.833   3.248  24.545  0.00  0.00    +0.315 C 
ATOM      8  O   UNL     1       8.245   3.417  25.686  0.00  0.00    -0.250 OA
BRANCH   7   9
ATOM      9  O   UNL     1       6.697   2.557  24.308  0.00  0.00    -0.480 OA
ATOM     10  H   UNL     1       6.038   2.983  23.727  0.00  0.00    +0.295 HD
ENDBRANCH   7   9
ENDBRANCH   2   7
BRANCH   3  11
ATOM     11  C   UNL     1      10.130   1.725  22.840  0.00  0.00    +0.161 C 
ATOM     12  O   UNL     1       9.839   1.321  21.711  0.00  0.00    -0.292 OA
BRANCH  11  13
ATOM     13  C   UNL     1      10.554   0.703  23.870  0.00  0.00    +0.090 C 
BRANCH  13  14
ATOM     14  C   UNL     1       9.634  -0.505  23.838  0.00  0.00    +0.128 C 
BRANCH  14  15
ATOM     15  C   UNL     1      10.101  -1.748  23.110  0.00  0.00    +0.305 C 
ATOM     16  O   UNL     1      10.249  -2.808  23.708  0.00  0.00    -0.251 OA
BRANCH  15  17
ATOM     17  O   UNL     1      10.333  -1.666  21.790  0.00  0.00    -0.481 OA
ATOM     18  H   UNL     1       9.782  -2.191  21.168  0.00  0.00    +0.295 HD
ENDBRANCH  15  17
ENDBRANCH  14  15
ENDBRANCH  13  14
ENDBRANCH  11  13
ENDBRANCH   3  11
BRANCH   1  19
ATOM     19  O   UNL     1       8.198   5.791  22.059  0.00  0.00    -0.387 OA
ATOM     20  H   UNL     1       8.630   5.215  21.406  0.00  0.00    +0.210 HD
ENDBRANCH   1  19
TORSDOF 8
ENDMDL
MODEL 9
REMARK VINA RESULT:      -5.3      1.828      2.612
REMARK  Name = 
REMARK  8 active torsions:
REMARK  status: ('A' for Active; 'I' for Inactive)
REMARK    1  A    between atoms: C_2  and  O_3
REMARK    2  A    between atoms: C_7  and  C_8
REMARK    3  A    between atoms: C_8  and  C_10
REMARK    4  A    between atoms: C_10  and  C_11
REMARK    5  A    between atoms: C_11  and  C_12
REMARK    6  A    between atoms: C_12  and  O_13
REMARK    7  A    between atoms: C_15  and  C_17
REMARK    8  A    between atoms: C_17  and  O_18
REMARK                            x       y       z     vdW  Elec       q    Type
REMARK                         _______ _______ _______ _____ _____    ______ ____
ROOT
ATOM      1  C   UNL     1       9.714   0.671  24.290  0.00  0.00    +0.156 C 
ATOM      2  C   UNL     1       9.820  -0.759  23.709  0.00  0.00    +0.163 C 
ATOM      3  C   UNL     1       8.908  -1.780  24.352  0.00  0.00    +0.012 C 
ATOM      4  C   UNL     1       7.880  -1.410  25.143  0.00  0.00    +0.008 C 
ATOM      5  C   UNL     1       7.599  -0.025  25.419  0.00  0.00    -0.001 C 
ATOM      6  C   UNL     1       8.447   0.945  25.049  0.00  0.00    +0.005 C 
ENDROOT
BRANCH   2   7
ATOM      7  C   UNL     1       9.606  -0.681  22.206  0.00  0.00    +0.315 C 
ATOM      8  O   UNL     1       8.840   0.125  21.694  0.00  0.00    -0.250 OA
BRANCH   7   9
ATOM      9  O   UNL     1      10.289  -1.571  21.454  0.00  0.00    -0.480 OA
ATOM     10  H   UNL     1      10.979  -1.209  20.865  0.00  0.00    +0.295 HD
ENDBRANCH   7   9
ENDBRANCH   2   7
BRANCH   3  11
ATOM     11  C   UNL     1       9.119  -3.243  24.130  0.00  0.00    +0.161 C 
ATOM     12  O   UNL     1      10.250  -3.735  24.187  0.00  0.00    -0.292 OA
BRANCH  11  13
ATOM     13  C   UNL     1       7.977  -4.142  23.717  0.00  0.00    +0.090 C 
BRANCH  13  14
ATOM     14  C   UNL     1       7.472  -4.947  24.902  0.00  0.00    +0.128 C 
BRANCH  14  15
ATOM     15  C   UNL     1       8.455  -5.318  25.993  0.00  0.00    +0.305 C 
ATOM     16  O   UNL     1       8.299  -4.918  27.142  0.00  0.00    -0.251 OA
BRANCH  15  17
ATOM     17  O   UNL     1       9.494  -6.108  25.676  0.00  0.00    -0.481 OA
ATOM     18  H   UNL     1       9.371  -6.826  25.017  0.00  0.00    +0.295 HD
ENDBRANCH  15  17
ENDBRANCH  14  15
ENDBRANCH  13  14
ENDBRANCH  11  13
ENDBRANCH   3  11
BRANCH   1  19
ATOM     19  O   UNL     1      10.797   0.870  25.199  0.00  0.00    -0.387 OA
ATOM     20  H   UNL     1      11.386   0.099  25.138  0.00  0.00    +0.210 HD
ENDBRANCH   1  19
TORSDOF 8
ENDMDL
