MODEL 1
REMARK VINA RESULT:      -6.2      0.000      0.000
REMARK  Name = 
REMARK  21 active torsions:
REMARK  status: ('A' for Active; 'I' for Inactive)
REMARK    1  A    between atoms: C_2  and  C_49
REMARK    2  A    between atoms: C_6  and  C_8
REMARK    3  A    between atoms: C_8  and  C_9
REMARK    4  A    between atoms: C_8  and  C_10
REMARK    5  A    between atoms: N_11  and  C_12
REMARK    6  A    between atoms: C_15  and  C_46
REMARK    7  A    between atoms: C_20  and  C_22
REMARK    8  A    between atoms: C_22  and  C_23
REMARK    9  A    between atoms: C_22  and  C_24
REMARK   10  A    between atoms: N_25  and  C_26
REMARK   11  A    between atoms: C_29  and  C_43
REMARK   12  A    between atoms: C_34  and  C_36
REMARK   13  A    between atoms: C_36  and  C_37
REMARK   14  A    between atoms: C_36  and  C_38
REMARK   15  A    between atoms: N_39  and  C_40
REMARK   16  A    between atoms: C_43  and  C_44
REMARK   17  A    between atoms: C_43  and  C_45
REMARK   18  A    between atoms: C_46  and  C_47
REMARK   19  A    between atoms: C_46  and  C_48
REMARK   20  A    between atoms: C_49  and  C_50
REMARK   21  A    between atoms: C_49  and  C_51
REMARK                            x       y       z     vdW  Elec       q    Type
REMARK                         _______ _______ _______ _____ _____    ______ ____
ROOT
ATOM      1  C   UNL     1       2.461  -2.243  27.659  0.00  0.00    +0.264 C 
ATOM      2  C   UNL     1       2.270  -0.628  27.271  0.00  0.00    +0.257 C 
ATOM      3  O   UNL     1       1.405  -0.350  26.426  0.00  0.00    -0.272 OA
ATOM      4  N   UNL     1       3.159   0.406  27.690  0.00  0.00    -0.288 N 
ATOM      5  C   UNL     1       3.180   0.720  29.113  0.00  0.00    +0.133 C 
ATOM      6  C   UNL     1       3.663   1.506  26.678  0.00  0.00    +0.187 C 
ATOM      7  C   UNL     1       5.011   2.359  26.965  0.00  0.00    +0.329 C 
ATOM      8  O   UNL     1       5.283   2.917  28.025  0.00  0.00    -0.249 OA
ATOM      9  O   UNL     1       5.904   2.259  25.897  0.00  0.00    -0.450 OA
ATOM     10  C   UNL     1       7.312   1.945  26.170  0.00  0.00    +0.264 C 
ATOM     11  C   UNL     1       8.347   2.175  24.945  0.00  0.00    +0.257 C 
ATOM     12  O   UNL     1       8.718   3.323  24.693  0.00  0.00    -0.272 OA
ATOM     13  N   UNL     1       9.045   1.064  24.383  0.00  0.00    -0.288 N 
ATOM     14  C   UNL     1      10.503   1.112  24.546  0.00  0.00    +0.133 C 
ATOM     15  C   UNL     1       8.398  -0.058  23.584  0.00  0.00    +0.187 C 
ATOM     16  C   UNL     1       8.845  -1.574  23.767  0.00  0.00    +0.329 C 
ATOM     17  O   UNL     1       9.993  -2.014  23.676  0.00  0.00    -0.249 OA
ATOM     18  O   UNL     1       7.734  -2.303  24.115  0.00  0.00    -0.450 OA
ATOM     19  C   UNL     1       7.656  -3.728  24.636  0.00  0.00    +0.264 C 
ATOM     20  C   UNL     1       6.256  -4.067  24.003  0.00  0.00    +0.257 C 
ATOM     21  O   UNL     1       5.998  -3.737  22.840  0.00  0.00    -0.272 OA
ATOM     22  N   UNL     1       5.253  -4.649  24.793  0.00  0.00    -0.288 N 
ATOM     23  C   UNL     1       5.389  -6.067  25.074  0.00  0.00    +0.133 C 
ATOM     24  C   UNL     1       3.863  -4.052  24.664  0.00  0.00    +0.187 C 
ATOM     25  C   UNL     1       3.029  -4.013  25.972  0.00  0.00    +0.329 C 
ATOM     26  O   UNL     1       2.671  -4.975  26.637  0.00  0.00    -0.249 OA
ATOM     27  O   UNL     1       2.798  -2.708  26.297  0.00  0.00    -0.450 OA
ENDROOT
BRANCH   1  28
ATOM     28  C   UNL     1       3.572  -2.700  28.665  0.00  0.00    +0.033 C 
ATOM     29  C   UNL     1       2.829  -3.281  29.814  0.00  0.00    +0.011 C 
ATOM     30  C   UNL     1       4.541  -1.749  29.375  0.00  0.00    +0.011 C 
ENDBRANCH   1  28
BRANCH   6  31
ATOM     31  C   UNL     1       2.606   2.489  26.090  0.00  0.00    +0.014 C 
ATOM     32  C   UNL     1       3.103   3.050  24.738  0.00  0.00    +0.009 C 
ATOM     33  C   UNL     1       2.250   3.654  27.015  0.00  0.00    +0.009 C 
ENDBRANCH   6  31
BRANCH  10  34
ATOM     34  C   UNL     1       7.326   0.482  26.540  0.00  0.00    +0.033 C 
ATOM     35  C   UNL     1       6.177  -0.362  26.159  0.00  0.00    +0.011 C 
ATOM     36  C   UNL     1       7.710   0.027  27.914  0.00  0.00    +0.011 C 
ENDBRANCH  10  34
BRANCH  15  37
ATOM     37  C   UNL     1       8.060   0.285  22.120  0.00  0.00    +0.014 C 
ATOM     38  C   UNL     1       9.351   0.210  21.287  0.00  0.00    +0.009 C 
ATOM     39  C   UNL     1       7.389   1.648  21.915  0.00  0.00    +0.009 C 
ENDBRANCH  15  37
BRANCH  19  40
ATOM     40  C   UNL     1       7.783  -3.569  26.172  0.00  0.00    +0.033 C 
ATOM     41  C   UNL     1       8.975  -4.365  26.740  0.00  0.00    +0.011 C 
ATOM     42  C   UNL     1       6.638  -3.898  27.123  0.00  0.00    +0.011 C 
ENDBRANCH  19  40
BRANCH  24  43
ATOM     43  C   UNL     1       2.981  -4.522  23.482  0.00  0.00    +0.014 C 
ATOM     44  C   UNL     1       1.494  -4.417  23.883  0.00  0.00    +0.009 C 
ATOM     45  C   UNL     1       3.245  -5.948  22.993  0.00  0.00    +0.009 C 
ENDBRANCH  24  43
TORSDOF 6
ENDMDL
MODEL 2
REMARK VINA RESULT:      -6.1      2.112      7.842
REMARK  Name = 
REMARK  21 active torsions:
REMARK  status: ('A' for Active; 'I' for Inactive)
REMARK    1  A    between atoms: C_2  and  C_49
REMARK    2  A    between atoms: C_6  and  C_8
REMARK    3  A    between atoms: C_8  and  C_9
REMARK    4  A    between atoms: C_8  and  C_10
REMARK    5  A    between atoms: N_11  and  C_12
REMARK    6  A    between atoms: C_15  and  C_46
REMARK    7  A    between atoms: C_20  and  C_22
REMARK    8  A    between atoms: C_22  and  C_23
REMARK    9  A    between atoms: C_22  and  C_24
REMARK   10  A    between atoms: N_25  and  C_26
REMARK   11  A    between atoms: C_29  and  C_43
REMARK   12  A    between atoms: C_34  and  C_36
REMARK   13  A    between atoms: C_36  and  C_37
REMARK   14  A    between atoms: C_36  and  C_38
REMARK   15  A    between atoms: N_39  and  C_40
REMARK   16  A    between atoms: C_43  and  C_44
REMARK   17  A    between atoms: C_43  and  C_45
REMARK   18  A    between atoms: C_46  and  C_47
REMARK   19  A    between atoms: C_46  and  C_48
REMARK   20  A    between atoms: C_49  and  C_50
REMARK   21  A    between atoms: C_49  and  C_51
REMARK                            x       y       z     vdW  Elec       q    Type
REMARK                         _______ _______ _______ _____ _____    ______ ____
ROOT
ATOM      1  C   UNL     1       7.028   3.778  23.457  0.00  0.00    +0.264 C 
ATOM      2  C   UNL     1       7.557   2.298  22.887  0.00  0.00    +0.257 C 
ATOM      3  O   UNL     1       7.196   1.973  21.745  0.00  0.00    -0.272 OA
ATOM      4  N   UNL     1       8.213   1.320  23.692  0.00  0.00    -0.288 N 
ATOM      5  C   UNL     1       9.550   1.648  24.168  0.00  0.00    +0.133 C 
ATOM      6  C   UNL     1       7.800  -0.201  23.621  0.00  0.00    +0.187 C 
ATOM      7  C   UNL     1       8.148  -1.224  24.829  0.00  0.00    +0.329 C 
ATOM      8  O   UNL     1       9.246  -1.335  25.369  0.00  0.00    -0.249 OA
ATOM      9  O   UNL     1       6.997  -1.867  25.287  0.00  0.00    -0.450 OA
ATOM     10  C   UNL     1       6.735  -1.921  26.731  0.00  0.00    +0.264 C 
ATOM     11  C   UNL     1       5.585  -2.956  27.211  0.00  0.00    +0.257 C 
ATOM     12  O   UNL     1       5.861  -4.156  27.280  0.00  0.00    -0.272 OA
ATOM     13  N   UNL     1       4.396  -2.464  27.829  0.00  0.00    -0.288 N 
ATOM     14  C   UNL     1       4.211  -2.888  29.223  0.00  0.00    +0.133 C 
ATOM     15  C   UNL     1       3.323  -1.646  27.127  0.00  0.00    +0.187 C 
ATOM     16  C   UNL     1       2.611  -0.417  27.845  0.00  0.00    +0.329 C 
ATOM     17  O   UNL     1       2.045  -0.437  28.938  0.00  0.00    -0.249 OA
ATOM     18  O   UNL     1       2.799   0.695  27.060  0.00  0.00    -0.450 OA
ATOM     19  C   UNL     1       2.539   2.153  27.400  0.00  0.00    +0.264 C 
ATOM     20  C   UNL     1       2.173   2.608  25.939  0.00  0.00    +0.257 C 
ATOM     21  O   UNL     1       1.430   1.915  25.235  0.00  0.00    -0.272 OA
ATOM     22  N   UNL     1       2.777   3.749  25.389  0.00  0.00    -0.288 N 
ATOM     23  C   UNL     1       2.271   5.033  25.839  0.00  0.00    +0.133 C 
ATOM     24  C   UNL     1       3.296   3.617  23.968  0.00  0.00    +0.187 C 
ATOM     25  C   UNL     1       4.603   4.396  23.659  0.00  0.00    +0.329 C 
ATOM     26  O   UNL     1       4.760   5.607  23.719  0.00  0.00    -0.249 OA
ATOM     27  O   UNL     1       5.581   3.494  23.357  0.00  0.00    -0.450 OA
ENDROOT
BRANCH   1  28
ATOM     28  C   UNL     1       7.375   4.249  24.911  0.00  0.00    +0.033 C 
ATOM     29  C   UNL     1       8.735   4.839  24.806  0.00  0.00    +0.011 C 
ATOM     30  C   UNL     1       7.540   3.307  26.108  0.00  0.00    +0.011 C 
ENDBRANCH   1  28
BRANCH   6  31
ATOM     31  C   UNL     1       8.052  -0.958  22.282  0.00  0.00    +0.014 C 
ATOM     32  C   UNL     1       7.496  -2.397  22.378  0.00  0.00    +0.009 C 
ATOM     33  C   UNL     1       9.521  -1.017  21.861  0.00  0.00    +0.009 C 
ENDBRANCH   6  31
BRANCH  10  34
ATOM     34  C   UNL     1       6.309  -0.524  27.107  0.00  0.00    +0.033 C 
ATOM     35  C   UNL     1       5.760   0.362  26.061  0.00  0.00    +0.011 C 
ATOM     36  C   UNL     1       7.175   0.357  27.953  0.00  0.00    +0.011 C 
ENDBRANCH  10  34
BRANCH  15  37
ATOM     37  C   UNL     1       2.354  -2.453  26.240  0.00  0.00    +0.014 C 
ATOM     38  C   UNL     1       1.408  -3.257  27.149  0.00  0.00    +0.009 C 
ATOM     39  C   UNL     1       3.030  -3.393  25.235  0.00  0.00    +0.009 C 
ENDBRANCH  15  37
BRANCH  19  40
ATOM     40  C   UNL     1       3.869   2.628  28.039  0.00  0.00    +0.033 C 
ATOM     41  C   UNL     1       4.128   1.956  29.402  0.00  0.00    +0.011 C 
ATOM     42  C   UNL     1       4.170   4.100  28.295  0.00  0.00    +0.011 C 
ENDBRANCH  19  40
BRANCH  24  43
ATOM     43  C   UNL     1       2.284   3.791  22.810  0.00  0.00    +0.014 C 
ATOM     44  C   UNL     1       2.949   3.358  21.485  0.00  0.00    +0.009 C 
ATOM     45  C   UNL     1       1.732   5.206  22.628  0.00  0.00    +0.009 C 
ENDBRANCH  24  43
TORSDOF 6
ENDMDL
MODEL 3
REMARK VINA RESULT:      -5.7      2.090      7.793
REMARK  Name = 
REMARK  21 active torsions:
REMARK  status: ('A' for Active; 'I' for Inactive)
REMARK    1  A    between atoms: C_2  and  C_49
REMARK    2  A    between atoms: C_6  and  C_8
REMARK    3  A    between atoms: C_8  and  C_9
REMARK    4  A    between atoms: C_8  and  C_10
REMARK    5  A    between atoms: N_11  and  C_12
REMARK    6  A    between atoms: C_15  and  C_46
REMARK    7  A    between atoms: C_20  and  C_22
REMARK    8  A    between atoms: C_22  and  C_23
REMARK    9  A    between atoms: C_22  and  C_24
REMARK   10  A    between atoms: N_25  and  C_26
REMARK   11  A    between atoms: C_29  and  C_43
REMARK   12  A    between atoms: C_34  and  C_36
REMARK   13  A    between atoms: C_36  and  C_37
REMARK   14  A    between atoms: C_36  and  C_38
REMARK   15  A    between atoms: N_39  and  C_40
REMARK   16  A    between atoms: C_43  and  C_44
REMARK   17  A    between atoms: C_43  and  C_45
REMARK   18  A    between atoms: C_46  and  C_47
REMARK   19  A    between atoms: C_46  and  C_48
REMARK   20  A    between atoms: C_49  and  C_50
REMARK   21  A    between atoms: C_49  and  C_51
REMARK                            x       y       z     vdW  Elec       q    Type
REMARK                         _______ _______ _______ _____ _____    ______ ____
ROOT
ATOM      1  C   UNL     1       8.546   0.881  23.138  0.00  0.00    +0.264 C 
ATOM      2  C   UNL     1       8.263  -0.607  22.431  0.00  0.00    +0.257 C 
ATOM      3  O   UNL     1       7.507  -0.629  21.448  0.00  0.00    -0.272 OA
ATOM      4  N   UNL     1       8.666  -1.852  23.000  0.00  0.00    -0.288 N 
ATOM      5  C   UNL     1      10.098  -2.117  23.057  0.00  0.00    +0.133 C 
ATOM      6  C   UNL     1       7.679  -3.081  23.050  0.00  0.00    +0.187 C 
ATOM      7  C   UNL     1       7.904  -4.298  24.096  0.00  0.00    +0.329 C 
ATOM      8  O   UNL     1       8.968  -4.883  24.284  0.00  0.00    -0.249 OA
ATOM      9  O   UNL     1       6.764  -4.507  24.874  0.00  0.00    -0.450 OA
ATOM     10  C   UNL     1       6.906  -4.633  26.331  0.00  0.00    +0.264 C 
ATOM     11  C   UNL     1       5.617  -5.204  27.128  0.00  0.00    +0.257 C 
ATOM     12  O   UNL     1       5.399  -6.416  27.108  0.00  0.00    -0.272 OA
ATOM     13  N   UNL     1       4.940  -4.376  28.075  0.00  0.00    -0.288 N 
ATOM     14  C   UNL     1       4.988  -4.865  29.459  0.00  0.00    +0.133 C 
ATOM     15  C   UNL     1       4.136  -3.132  27.727  0.00  0.00    +0.187 C 
ATOM     16  C   UNL     1       4.199  -1.822  28.629  0.00  0.00    +0.329 C 
ATOM     17  O   UNL     1       3.993  -1.759  29.842  0.00  0.00    -0.249 OA
ATOM     18  O   UNL     1       4.594  -0.778  27.828  0.00  0.00    -0.450 OA
ATOM     19  C   UNL     1       5.040   0.616  28.235  0.00  0.00    +0.264 C 
ATOM     20  C   UNL     1       4.504   1.350  26.951  0.00  0.00    +0.257 C 
ATOM     21  O   UNL     1       3.385   1.083  26.498  0.00  0.00    -0.272 OA
ATOM     22  N   UNL     1       5.339   2.234  26.250  0.00  0.00    -0.288 N 
ATOM     23  C   UNL     1       5.530   3.549  26.834  0.00  0.00    +0.133 C 
ATOM     24  C   UNL     1       5.354   2.089  24.738  0.00  0.00    +0.187 C 
ATOM     25  C   UNL     1       6.725   2.344  24.056  0.00  0.00    +0.329 C 
ATOM     26  O   UNL     1       7.362   3.387  24.071  0.00  0.00    -0.249 OA
ATOM     27  O   UNL     1       7.138   1.183  23.473  0.00  0.00    -0.450 OA
ENDROOT
BRANCH   1  28
ATOM     28  C   UNL     1       9.434   1.004  24.424  0.00  0.00    +0.033 C 
ATOM     29  C   UNL     1      10.588   1.844  24.011  0.00  0.00    +0.011 C 
ATOM     30  C   UNL     1      10.139  -0.175  25.103  0.00  0.00    +0.011 C 
ENDBRANCH   1  28
BRANCH   6  31
ATOM     31  C   UNL     1       7.232  -3.708  21.695  0.00  0.00    +0.014 C 
ATOM     32  C   UNL     1       5.751  -3.363  21.418  0.00  0.00    +0.009 C 
ATOM     33  C   UNL     1       7.417  -5.224  21.614  0.00  0.00    +0.009 C 
ENDBRANCH   6  31
BRANCH  10  34
ATOM     34  C   UNL     1       7.193  -3.235  26.822  0.00  0.00    +0.033 C 
ATOM     35  C   UNL     1       6.597  -2.090  26.106  0.00  0.00    +0.011 C 
ATOM     36  C   UNL     1       8.582  -2.800  27.174  0.00  0.00    +0.011 C 
ENDBRANCH  10  34
BRANCH  15  37
ATOM     37  C   UNL     1       2.725  -3.396  27.167  0.00  0.00    +0.014 C 
ATOM     38  C   UNL     1       2.792  -3.371  25.631  0.00  0.00    +0.009 C 
ATOM     39  C   UNL     1       1.645  -2.423  27.654  0.00  0.00    +0.009 C 
ENDBRANCH  15  37
BRANCH  19  40
ATOM     40  C   UNL     1       6.568   0.468  28.450  0.00  0.00    +0.033 C 
ATOM     41  C   UNL     1       7.083   1.374  29.585  0.00  0.00    +0.011 C 
ATOM     42  C   UNL     1       7.574   0.686  27.325  0.00  0.00    +0.011 C 
ENDBRANCH  19  40
BRANCH  24  43
ATOM     43  C   UNL     1       4.222   2.774  23.935  0.00  0.00    +0.014 C 
ATOM     44  C   UNL     1       4.727   3.086  22.510  0.00  0.00    +0.009 C 
ATOM     45  C   UNL     1       3.676   4.068  24.543  0.00  0.00    +0.009 C 
ENDBRANCH  24  43
TORSDOF 6
ENDMDL
MODEL 4
REMARK VINA RESULT:      -5.5      0.957      6.914
REMARK  Name = 
REMARK  21 active torsions:
REMARK  status: ('A' for Active; 'I' for Inactive)
REMARK    1  A    between atoms: C_2  and  C_49
REMARK    2  A    between atoms: C_6  and  C_8
REMARK    3  A    between atoms: C_8  and  C_9
REMARK    4  A    between atoms: C_8  and  C_10
REMARK    5  A    between atoms: N_11  and  C_12
REMARK    6  A    between atoms: C_15  and  C_46
REMARK    7  A    between atoms: C_20  and  C_22
REMARK    8  A    between atoms: C_22  and  C_23
REMARK    9  A    between atoms: C_22  and  C_24
REMARK   10  A    between atoms: N_25  and  C_26
REMARK   11  A    between atoms: C_29  and  C_43
REMARK   12  A    between atoms: C_34  and  C_36
REMARK   13  A    between atoms: C_36  and  C_37
REMARK   14  A    between atoms: C_36  and  C_38
REMARK   15  A    between atoms: N_39  and  C_40
REMARK   16  A    between atoms: C_43  and  C_44
REMARK   17  A    between atoms: C_43  and  C_45
REMARK   18  A    between atoms: C_46  and  C_47
REMARK   19  A    between atoms: C_46  and  C_48
REMARK   20  A    between atoms: C_49  and  C_50
REMARK   21  A    between atoms: C_49  and  C_51
REMARK                            x       y       z     vdW  Elec       q    Type
REMARK                         _______ _______ _______ _____ _____    ______ ____
ROOT
ATOM      1  C   UNL     1       7.901  -4.016  24.146  0.00  0.00    +0.264 C 
ATOM      2  C   UNL     1       6.331  -4.457  23.779  0.00  0.00    +0.257 C 
ATOM      3  O   UNL     1       5.995  -4.408  22.586  0.00  0.00    -0.272 OA
ATOM      4  N   UNL     1       5.315  -4.685  24.756  0.00  0.00    -0.288 N 
ATOM      5  C   UNL     1       5.476  -5.853  25.613  0.00  0.00    +0.133 C 
ATOM      6  C   UNL     1       3.868  -4.084  24.580  0.00  0.00    +0.187 C 
ATOM      7  C   UNL     1       2.877  -3.894  25.848  0.00  0.00    +0.329 C 
ATOM      8  O   UNL     1       2.641  -4.751  26.697  0.00  0.00    -0.249 OA
ATOM      9  O   UNL     1       2.431  -2.575  25.942  0.00  0.00    -0.450 OA
ATOM     10  C   UNL     1       2.498  -1.889  27.239  0.00  0.00    +0.264 C 
ATOM     11  C   UNL     1       1.666  -0.503  27.358  0.00  0.00    +0.257 C 
ATOM     12  O   UNL     1       0.446  -0.559  27.522  0.00  0.00    -0.272 OA
ATOM     13  N   UNL     1       2.358   0.726  27.581  0.00  0.00    -0.288 N 
ATOM     14  C   UNL     1       2.045   1.381  28.857  0.00  0.00    +0.133 C 
ATOM     15  C   UNL     1       3.279   1.402  26.577  0.00  0.00    +0.187 C 
ATOM     16  C   UNL     1       4.637   2.098  27.031  0.00  0.00    +0.329 C 
ATOM     17  O   UNL     1       4.761   2.961  27.901  0.00  0.00    -0.249 OA
ATOM     18  O   UNL     1       5.664   1.516  26.329  0.00  0.00    -0.450 OA
ATOM     19  C   UNL     1       7.161   1.639  26.557  0.00  0.00    +0.264 C 
ATOM     20  C   UNL     1       7.580   1.477  25.049  0.00  0.00    +0.257 C 
ATOM     21  O   UNL     1       6.961   2.074  24.160  0.00  0.00    -0.272 OA
ATOM     22  N   UNL     1       8.590   0.569  24.696  0.00  0.00    -0.288 N 
ATOM     23  C   UNL     1       9.956   0.984  24.957  0.00  0.00    +0.133 C 
ATOM     24  C   UNL     1       8.304  -0.323  23.501  0.00  0.00    +0.187 C 
ATOM     25  C   UNL     1       8.869  -1.766  23.596  0.00  0.00    +0.329 C 
ATOM     26  O   UNL     1      10.047  -2.082  23.687  0.00  0.00    -0.249 OA
ATOM     27  O   UNL     1       7.821  -2.639  23.614  0.00  0.00    -0.450 OA
ENDROOT
BRANCH   1  28
ATOM     28  C   UNL     1       8.400  -3.981  25.631  0.00  0.00    +0.033 C 
ATOM     29  C   UNL     1       9.089  -5.282  25.832  0.00  0.00    +0.011 C 
ATOM     30  C   UNL     1       7.475  -3.931  26.852  0.00  0.00    +0.011 C 
ENDBRANCH   1  28
BRANCH   6  31
ATOM     31  C   UNL     1       3.007  -4.605  23.390  0.00  0.00    +0.014 C 
ATOM     32  C   UNL     1       1.513  -4.306  23.650  0.00  0.00    +0.009 C 
ATOM     33  C   UNL     1       3.176  -6.097  23.098  0.00  0.00    +0.009 C 
ENDBRANCH   6  31
BRANCH  10  34
ATOM     34  C   UNL     1       3.961  -1.589  27.452  0.00  0.00    +0.033 C 
ATOM     35  C   UNL     1       4.863  -1.565  26.285  0.00  0.00    +0.011 C 
ATOM     36  C   UNL     1       4.744  -2.255  28.541  0.00  0.00    +0.011 C 
ENDBRANCH  10  34
BRANCH  15  37
ATOM     37  C   UNL     1       2.570   2.173  25.447  0.00  0.00    +0.014 C 
ATOM     38  C   UNL     1       3.611   3.033  24.709  0.00  0.00    +0.009 C 
ATOM     39  C   UNL     1       1.400   3.053  25.902  0.00  0.00    +0.009 C 
ENDBRANCH  15  37
BRANCH  19  40
ATOM     40  C   UNL     1       7.477   0.504  27.564  0.00  0.00    +0.033 C 
ATOM     41  C   UNL     1       7.587   1.028  29.010  0.00  0.00    +0.011 C 
ATOM     42  C   UNL     1       8.690  -0.406  27.413  0.00  0.00    +0.011 C 
ENDBRANCH  19  40
BRANCH  24  43
ATOM     43  C   UNL     1       8.554   0.257  22.089  0.00  0.00    +0.014 C 
ATOM     44  C   UNL     1       9.139  -0.847  21.181  0.00  0.00    +0.009 C 
ATOM     45  C   UNL     1       9.489   1.467  22.033  0.00  0.00    +0.009 C 
ENDBRANCH  24  43
TORSDOF 6
ENDMDL
MODEL 5
REMARK VINA RESULT:      -5.5      2.517      8.170
REMARK  Name = 
REMARK  21 active torsions:
REMARK  status: ('A' for Active; 'I' for Inactive)
REMARK    1  A    between atoms: C_2  and  C_49
REMARK    2  A    between atoms: C_6  and  C_8
REMARK    3  A    between atoms: C_8  and  C_9
REMARK    4  A    between atoms: C_8  and  C_10
REMARK    5  A    between atoms: N_11  and  C_12
REMARK    6  A    between atoms: C_15  and  C_46
REMARK    7  A    between atoms: C_20  and  C_22
REMARK    8  A    between atoms: C_22  and  C_23
REMARK    9  A    between atoms: C_22  and  C_24
REMARK   10  A    between atoms: N_25  and  C_26
REMARK   11  A    between atoms: C_29  and  C_43
REMARK   12  A    between atoms: C_34  and  C_36
REMARK   13  A    between atoms: C_36  and  C_37
REMARK   14  A    between atoms: C_36  and  C_38
REMARK   15  A    between atoms: N_39  and  C_40
REMARK   16  A    between atoms: C_43  and  C_44
REMARK   17  A    between atoms: C_43  and  C_45
REMARK   18  A    between atoms: C_46  and  C_47
REMARK   19  A    between atoms: C_46  and  C_48
REMARK   20  A    between atoms: C_49  and  C_50
REMARK   21  A    between atoms: C_49  and  C_51
REMARK                            x       y       z     vdW  Elec       q    Type
REMARK                         _______ _______ _______ _____ _____    ______ ____
ROOT
ATOM      1  C   UNL     1       7.431   3.559  23.021  0.00  0.00    +0.264 C 
ATOM      2  C   UNL     1       7.599   1.937  22.651  0.00  0.00    +0.257 C 
ATOM      3  O   UNL     1       7.093   1.546  21.589  0.00  0.00    -0.272 OA
ATOM      4  N   UNL     1       8.100   0.958  23.561  0.00  0.00    -0.288 N 
ATOM      5  C   UNL     1       9.509   1.053  23.920  0.00  0.00    +0.133 C 
ATOM      6  C   UNL     1       7.380  -0.434  23.734  0.00  0.00    +0.187 C 
ATOM      7  C   UNL     1       7.601  -1.336  25.063  0.00  0.00    +0.329 C 
ATOM      8  O   UNL     1       8.691  -1.606  25.561  0.00  0.00    -0.249 OA
ATOM      9  O   UNL     1       6.382  -1.650  25.664  0.00  0.00    -0.450 OA
ATOM     10  C   UNL     1       6.226  -1.452  27.111  0.00  0.00    +0.264 C 
ATOM     11  C   UNL     1       4.928  -2.142  27.792  0.00  0.00    +0.257 C 
ATOM     12  O   UNL     1       4.956  -3.352  28.024  0.00  0.00    -0.272 OA
ATOM     13  N   UNL     1       3.916  -1.328  28.386  0.00  0.00    -0.288 N 
ATOM     14  C   UNL     1       3.756  -1.511  29.833  0.00  0.00    +0.133 C 
ATOM     15  C   UNL     1       2.983  -0.401  27.621  0.00  0.00    +0.187 C 
ATOM     16  C   UNL     1       2.597   1.037  28.181  0.00  0.00    +0.329 C 
ATOM     17  O   UNL     1       2.124   1.287  29.291  0.00  0.00    -0.249 OA
ATOM     18  O   UNL     1       2.948   1.968  27.234  0.00  0.00    -0.450 OA
ATOM     19  C   UNL     1       3.020   3.480  27.366  0.00  0.00    +0.264 C 
ATOM     20  C   UNL     1       2.645   3.801  25.872  0.00  0.00    +0.257 C 
ATOM     21  O   UNL     1       1.723   3.195  25.314  0.00  0.00    -0.272 OA
ATOM     22  N   UNL     1       3.426   4.702  25.133  0.00  0.00    -0.288 N 
ATOM     23  C   UNL     1       3.230   6.113  25.411  0.00  0.00    +0.133 C 
ATOM     24  C   UNL     1       3.796   4.272  23.724  0.00  0.00    +0.187 C 
ATOM     25  C   UNL     1       5.208   4.703  23.243  0.00  0.00    +0.329 C 
ATOM     26  O   UNL     1       5.614   5.849  23.116  0.00  0.00    -0.249 OA
ATOM     27  O   UNL     1       5.953   3.581  23.032  0.00  0.00    -0.450 OA
ENDROOT
BRANCH   1  28
ATOM     28  C   UNL     1       7.978   4.136  24.372  0.00  0.00    +0.033 C 
ATOM     29  C   UNL     1       9.440   4.291  24.155  0.00  0.00    +0.011 C 
ATOM     30  C   UNL     1       7.942   3.387  25.709  0.00  0.00    +0.011 C 
ENDBRANCH   1  28
BRANCH   6  31
ATOM     31  C   UNL     1       7.367  -1.401  22.512  0.00  0.00    +0.014 C 
ATOM     32  C   UNL     1       6.248  -2.454  22.685  0.00  0.00    +0.009 C 
ATOM     33  C   UNL     1       8.695  -2.118  22.265  0.00  0.00    +0.009 C 
ENDBRANCH   6  31
BRANCH  10  34
ATOM     34  C   UNL     1       6.126   0.042  27.296  0.00  0.00    +0.033 C 
ATOM     35  C   UNL     1       5.740   0.881  26.144  0.00  0.00    +0.011 C 
ATOM     36  C   UNL     1       7.194   0.815  28.005  0.00  0.00    +0.011 C 
ENDBRANCH  10  34
BRANCH  15  37
ATOM     37  C   UNL     1       1.805  -1.093  26.909  0.00  0.00    +0.014 C 
ATOM     38  C   UNL     1       0.647  -0.088  26.783  0.00  0.00    +0.009 C 
ATOM     39  C   UNL     1       1.306  -2.376  27.584  0.00  0.00    +0.009 C 
ENDBRANCH  15  37
BRANCH  19  40
ATOM     40  C   UNL     1       4.464   3.740  27.865  0.00  0.00    +0.033 C 
ATOM     41  C   UNL     1       4.674   3.247  29.310  0.00  0.00    +0.011 C 
ATOM     42  C   UNL     1       5.091   5.129  27.859  0.00  0.00    +0.011 C 
ENDBRANCH  19  40
BRANCH  24  43
ATOM     43  C   UNL     1       2.756   4.501  22.601  0.00  0.00    +0.014 C 
ATOM     44  C   UNL     1       2.860   3.356  21.570  0.00  0.00    +0.009 C 
ATOM     45  C   UNL     1       2.879   5.830  21.854  0.00  0.00    +0.009 C 
ENDBRANCH  24  43
TORSDOF 6
ENDMDL
MODEL 6
REMARK VINA RESULT:      -5.4      1.801      2.861
REMARK  Name = 
REMARK  21 active torsions:
REMARK  status: ('A' for Active; 'I' for Inactive)
REMARK    1  A    between atoms: C_2  and  C_49
REMARK    2  A    between atoms: C_6  and  C_8
REMARK    3  A    between atoms: C_8  and  C_9
REMARK    4  A    between atoms: C_8  and  C_10
REMARK    5  A    between atoms: N_11  and  C_12
REMARK    6  A    between atoms: C_15  and  C_46
REMARK    7  A    between atoms: C_20  and  C_22
REMARK    8  A    between atoms: C_22  and  C_23
REMARK    9  A    between atoms: C_22  and  C_24
REMARK   10  A    between atoms: N_25  and  C_26
REMARK   11  A    between atoms: C_29  and  C_43
REMARK   12  A    between atoms: C_34  and  C_36
REMARK   13  A    between atoms: C_36  and  C_37
REMARK   14  A    between atoms: C_36  and  C_38
REMARK   15  A    between atoms: N_39  and  C_40
REMARK   16  A    between atoms: C_43  and  C_44
REMARK   17  A    between atoms: C_43  and  C_45
REMARK   18  A    between atoms: C_46  and  C_47
REMARK   19  A    between atoms: C_46  and  C_48
REMARK   20  A    between atoms: C_49  and  C_50
REMARK   21  A    between atoms: C_49  and  C_51
REMARK                            x       y       z     vdW  Elec       q    Type
REMARK                         _______ _______ _______ _____ _____    ______ ____
ROOT
ATOM      1  C   UNL     1       4.016  -4.348  27.398  0.00  0.00    +0.264 C 
ATOM      2  C   UNL     1       2.899  -3.123  27.619  0.00  0.00    +0.257 C 
ATOM      3  O   UNL     1       1.844  -3.199  26.971  0.00  0.00    -0.272 OA
ATOM      4  N   UNL     1       3.166  -1.918  28.336  0.00  0.00    -0.288 N 
ATOM      5  C   UNL     1       3.365  -2.039  29.775  0.00  0.00    +0.133 C 
ATOM      6  C   UNL     1       2.733  -0.516  27.759  0.00  0.00    +0.187 C 
ATOM      7  C   UNL     1       3.434   0.854  28.266  0.00  0.00    +0.329 C 
ATOM      8  O   UNL     1       3.616   1.164  29.441  0.00  0.00    -0.249 OA
ATOM      9  O   UNL     1       3.946   1.583  27.191  0.00  0.00    -0.450 OA
ATOM     10  C   UNL     1       5.318   2.100  27.267  0.00  0.00    +0.264 C 
ATOM     11  C   UNL     1       5.729   3.205  26.156  0.00  0.00    +0.257 C 
ATOM     12  O   UNL     1       5.350   4.368  26.311  0.00  0.00    -0.272 OA
ATOM     13  N   UNL     1       6.750   2.913  25.202  0.00  0.00    -0.288 N 
ATOM     14  C   UNL     1       7.941   3.765  25.301  0.00  0.00    +0.133 C 
ATOM     15  C   UNL     1       6.633   1.883  24.088  0.00  0.00    +0.187 C 
ATOM     16  C   UNL     1       7.853   0.938  23.697  0.00  0.00    +0.329 C 
ATOM     17  O   UNL     1       8.992   1.300  23.401  0.00  0.00    -0.249 OA
ATOM     18  O   UNL     1       7.432  -0.364  23.816  0.00  0.00    -0.450 OA
ATOM     19  C   UNL     1       8.262  -1.637  23.798  0.00  0.00    +0.264 C 
ATOM     20  C   UNL     1       7.158  -2.554  23.154  0.00  0.00    +0.257 C 
ATOM     21  O   UNL     1       6.486  -2.149  22.199  0.00  0.00    -0.272 OA
ATOM     22  N   UNL     1       6.856  -3.797  23.732  0.00  0.00    -0.288 N 
ATOM     23  C   UNL     1       7.795  -4.875  23.484  0.00  0.00    +0.133 C 
ATOM     24  C   UNL     1       5.381  -4.123  23.891  0.00  0.00    +0.187 C 
ATOM     25  C   UNL     1       5.008  -4.927  25.166  0.00  0.00    +0.329 C 
ATOM     26  O   UNL     1       5.399  -6.047  25.461  0.00  0.00    -0.249 OA
ATOM     27  O   UNL     1       4.203  -4.150  25.945  0.00  0.00    -0.450 OA
ENDROOT
BRANCH   1  28
ATOM     28  C   UNL     1       5.406  -4.308  28.120  0.00  0.00    +0.033 C 
ATOM     29  C   UNL     1       6.231  -3.379  27.305  0.00  0.00    +0.011 C 
ATOM     30  C   UNL     1       6.343  -5.512  28.258  0.00  0.00    +0.011 C 
ENDBRANCH   1  28
BRANCH   6  31
ATOM     31  C   UNL     1       1.208  -0.232  27.611  0.00  0.00    +0.014 C 
ATOM     32  C   UNL     1       0.991   1.108  26.872  0.00  0.00    +0.009 C 
ATOM     33  C   UNL     1       0.444  -0.202  28.936  0.00  0.00    +0.009 C 
ENDBRANCH   6  31
BRANCH  10  34
ATOM     34  C   UNL     1       6.205   0.892  27.091  0.00  0.00    +0.033 C 
ATOM     35  C   UNL     1       5.651  -0.314  26.445  0.00  0.00    +0.011 C 
ATOM     36  C   UNL     1       7.062   0.382  28.207  0.00  0.00    +0.011 C 
ENDBRANCH  10  34
BRANCH  15  37
ATOM     37  C   UNL     1       5.816   2.330  22.860  0.00  0.00    +0.014 C 
ATOM     38  C   UNL     1       6.688   3.261  22.001  0.00  0.00    +0.009 C 
ATOM     39  C   UNL     1       4.486   3.019  23.186  0.00  0.00    +0.009 C 
ENDBRANCH  15  37
BRANCH  19  40
ATOM     40  C   UNL     1       8.657  -1.842  25.283  0.00  0.00    +0.033 C 
ATOM     41  C   UNL     1       9.496  -0.669  25.826  0.00  0.00    +0.011 C 
ATOM     42  C   UNL     1       9.408  -3.079  25.763  0.00  0.00    +0.011 C 
ENDBRANCH  19  40
BRANCH  24  43
ATOM     43  C   UNL     1       4.631  -4.693  22.663  0.00  0.00    +0.014 C 
ATOM     44  C   UNL     1       3.246  -5.210  23.107  0.00  0.00    +0.009 C 
ATOM     45  C   UNL     1       5.348  -5.822  21.921  0.00  0.00    +0.009 C 
ENDBRANCH  24  43
TORSDOF 6
ENDMDL
MODEL 7
REMARK VINA RESULT:      -4.9      3.075      5.412
REMARK  Name = 
REMARK  21 active torsions:
REMARK  status: ('A' for Active; 'I' for Inactive)
REMARK    1  A    between atoms: C_2  and  C_49
REMARK    2  A    between atoms: C_6  and  C_8
REMARK    3  A    between atoms: C_8  and  C_9
REMARK    4  A    between atoms: C_8  and  C_10
REMARK    5  A    between atoms: N_11  and  C_12
REMARK    6  A    between atoms: C_15  and  C_46
REMARK    7  A    between atoms: C_20  and  C_22
REMARK    8  A    between atoms: C_22  and  C_23
REMARK    9  A    between atoms: C_22  and  C_24
REMARK   10  A    between atoms: N_25  and  C_26
REMARK   11  A    between atoms: C_29  and  C_43
REMARK   12  A    between atoms: C_34  and  C_36
REMARK   13  A    between atoms: C_36  and  C_37
REMARK   14  A    between atoms: C_36  and  C_38
REMARK   15  A    between atoms: N_39  and  C_40
REMARK   16  A    between atoms: C_43  and  C_44
REMARK   17  A    between atoms: C_43  and  C_45
REMARK   18  A    between atoms: C_46  and  C_47
REMARK   19  A    between atoms: C_46  and  C_48
REMARK   20  A    between atoms: C_49  and  C_50
REMARK   21  A    between atoms: C_49  and  C_51
REMARK                            x       y       z     vdW  Elec       q    Type
REMARK                         _______ _______ _______ _____ _____    ______ ____
ROOT
ATOM      1  C   UNL     1       2.223   4.417  27.530  0.00  0.00    +0.264 C 
ATOM      2  C   UNL     1       2.236   4.685  25.879  0.00  0.00    +0.257 C 
ATOM      3  O   UNL     1       1.316   4.179  25.219  0.00  0.00    -0.272 OA
ATOM      4  N   UNL     1       3.329   5.273  25.174  0.00  0.00    -0.288 N 
ATOM      5  C   UNL     1       3.599   6.681  25.436  0.00  0.00    +0.133 C 
ATOM      6  C   UNL     1       3.852   4.653  23.822  0.00  0.00    +0.187 C 
ATOM      7  C   UNL     1       5.345   4.969  23.275  0.00  0.00    +0.329 C 
ATOM      8  O   UNL     1       5.848   6.086  23.195  0.00  0.00    -0.249 OA
ATOM      9  O   UNL     1       6.052   3.788  23.039  0.00  0.00    -0.450 OA
ATOM     10  C   UNL     1       7.417   3.656  23.564  0.00  0.00    +0.264 C 
ATOM     11  C   UNL     1       8.292   2.425  22.978  0.00  0.00    +0.257 C 
ATOM     12  O   UNL     1       8.800   2.541  21.861  0.00  0.00    -0.272 OA
ATOM     13  N   UNL     1       8.719   1.376  23.847  0.00  0.00    -0.288 N 
ATOM     14  C   UNL     1      10.175   1.265  24.002  0.00  0.00    +0.133 C 
ATOM     15  C   UNL     1       7.797   0.364  24.510  0.00  0.00    +0.187 C 
ATOM     16  C   UNL     1       8.020  -0.105  26.015  0.00  0.00    +0.329 C 
ATOM     17  O   UNL     1       9.059  -0.565  26.490  0.00  0.00    -0.249 OA
ATOM     18  O   UNL     1       6.868   0.159  26.714  0.00  0.00    -0.450 OA
ATOM     19  C   UNL     1       6.640   0.132  28.216  0.00  0.00    +0.264 C 
ATOM     20  C   UNL     1       5.128  -0.302  28.153  0.00  0.00    +0.257 C 
ATOM     21  O   UNL     1       4.765  -1.194  27.378  0.00  0.00    -0.272 OA
ATOM     22  N   UNL     1       4.168   0.398  28.898  0.00  0.00    -0.288 N 
ATOM     23  C   UNL     1       4.115   0.115  30.321  0.00  0.00    +0.133 C 
ATOM     24  C   UNL     1       2.885   0.761  28.170  0.00  0.00    +0.187 C 
ATOM     25  C   UNL     1       2.260   2.128  28.559  0.00  0.00    +0.329 C 
ATOM     26  O   UNL     1       1.852   2.453  29.665  0.00  0.00    -0.249 OA
ATOM     27  O   UNL     1       2.287   2.941  27.465  0.00  0.00    -0.450 OA
ENDROOT
BRANCH   1  28
ATOM     28  C   UNL     1       3.378   4.957  28.441  0.00  0.00    +0.033 C 
ATOM     29  C   UNL     1       2.770   6.083  29.197  0.00  0.00    +0.011 C 
ATOM     30  C   UNL     1       4.665   5.599  27.914  0.00  0.00    +0.011 C 
ENDBRANCH   1  28
BRANCH   6  31
ATOM     31  C   UNL     1       2.892   4.675  22.595  0.00  0.00    +0.014 C 
ATOM     32  C   UNL     1       3.067   3.382  21.766  0.00  0.00    +0.009 C 
ATOM     33  C   UNL     1       3.072   5.885  21.678  0.00  0.00    +0.009 C 
ENDBRANCH   6  31
BRANCH  10  34
ATOM     34  C   UNL     1       7.251   3.460  25.051  0.00  0.00    +0.033 C 
ATOM     35  C   UNL     1       5.950   2.995  25.570  0.00  0.00    +0.011 C 
ATOM     36  C   UNL     1       7.721   4.489  26.032  0.00  0.00    +0.011 C 
ENDBRANCH  10  34
BRANCH  15  37
ATOM     37  C   UNL     1       7.315  -0.783  23.600  0.00  0.00    +0.014 C 
ATOM     38  C   UNL     1       6.068  -1.423  24.233  0.00  0.00    +0.009 C 
ATOM     39  C   UNL     1       8.364  -1.864  23.314  0.00  0.00    +0.009 C 
ENDBRANCH  15  37
BRANCH  19  40
ATOM     40  C   UNL     1       7.005   1.568  28.672  0.00  0.00    +0.033 C 
ATOM     41  C   UNL     1       7.832   1.568  29.973  0.00  0.00    +0.011 C 
ATOM     42  C   UNL     1       5.949   2.640  28.912  0.00  0.00    +0.011 C 
ENDBRANCH  19  40
BRANCH  24  43
ATOM     43  C   UNL     1       1.783  -0.320  28.065  0.00  0.00    +0.014 C 
ATOM     44  C   UNL     1       0.770   0.090  26.974  0.00  0.00    +0.009 C 
ATOM     45  C   UNL     1       1.010  -0.596  29.356  0.00  0.00    +0.009 C 
ENDBRANCH  24  43
TORSDOF 6
ENDMDL
MODEL 8
REMARK VINA RESULT:      -4.7      2.177      7.982
REMARK  Name = 
REMARK  21 active torsions:
REMARK  status: ('A' for Active; 'I' for Inactive)
REMARK    1  A    between atoms: C_2  and  C_49
REMARK    2  A    between atoms: C_6  and  C_8
REMARK    3  A    between atoms: C_8  and  C_9
REMARK    4  A    between atoms: C_8  and  C_10
REMARK    5  A    between atoms: N_11  and  C_12
REMARK    6  A    between atoms: C_15  and  C_46
REMARK    7  A    between atoms: C_20  and  C_22
REMARK    8  A    between atoms: C_22  and  C_23
REMARK    9  A    between atoms: C_22  and  C_24
REMARK   10  A    between atoms: N_25  and  C_26
REMARK   11  A    between atoms: C_29  and  C_43
REMARK   12  A    between atoms: C_34  and  C_36
REMARK   13  A    between atoms: C_36  and  C_37
REMARK   14  A    between atoms: C_36  and  C_38
REMARK   15  A    between atoms: N_39  and  C_40
REMARK   16  A    between atoms: C_43  and  C_44
REMARK   17  A    between atoms: C_43  and  C_45
REMARK   18  A    between atoms: C_46  and  C_47
REMARK   19  A    between atoms: C_46  and  C_48
REMARK   20  A    between atoms: C_49  and  C_50
REMARK   21  A    between atoms: C_49  and  C_51
REMARK                            x       y       z     vdW  Elec       q    Type
REMARK                         _______ _______ _______ _____ _____    ______ ____
ROOT
ATOM      1  C   UNL     1       8.525   1.724  22.592  0.00  0.00    +0.264 C 
ATOM      2  C   UNL     1       8.261   0.095  22.322  0.00  0.00    +0.257 C 
ATOM      3  O   UNL     1       7.638  -0.212  21.294  0.00  0.00    -0.272 OA
ATOM      4  N   UNL     1       8.522  -0.927  23.283  0.00  0.00    -0.288 N 
ATOM      5  C   UNL     1       9.919  -1.177  23.615  0.00  0.00    +0.133 C 
ATOM      6  C   UNL     1       7.475  -2.075  23.555  0.00  0.00    +0.187 C 
ATOM      7  C   UNL     1       7.500  -2.926  24.934  0.00  0.00    +0.329 C 
ATOM      8  O   UNL     1       8.499  -3.439  25.432  0.00  0.00    -0.249 OA
ATOM      9  O   UNL     1       6.259  -2.881  25.572  0.00  0.00    -0.450 OA
ATOM     10  C   UNL     1       6.204  -2.567  27.006  0.00  0.00    +0.264 C 
ATOM     11  C   UNL     1       4.794  -2.861  27.748  0.00  0.00    +0.257 C 
ATOM     12  O   UNL     1       4.519  -4.022  28.056  0.00  0.00    -0.272 OA
ATOM     13  N   UNL     1       4.044  -1.781  28.305  0.00  0.00    -0.288 N 
ATOM     14  C   UNL     1       3.887  -1.834  29.764  0.00  0.00    +0.133 C 
ATOM     15  C   UNL     1       3.356  -0.690  27.498  0.00  0.00    +0.187 C 
ATOM     16  C   UNL     1       3.368   0.829  27.973  0.00  0.00    +0.329 C 
ATOM     17  O   UNL     1       3.009   1.254  29.072  0.00  0.00    -0.249 OA
ATOM     18  O   UNL     1       3.917   1.582  26.963  0.00  0.00    -0.450 OA
ATOM     19  C   UNL     1       4.377   3.029  27.000  0.00  0.00    +0.264 C 
ATOM     20  C   UNL     1       4.050   3.351  25.494  0.00  0.00    +0.257 C 
ATOM     21  O   UNL     1       2.988   2.972  24.989  0.00  0.00    -0.272 OA
ATOM     22  N   UNL     1       5.013   3.977  24.688  0.00  0.00    -0.288 N 
ATOM     23  C   UNL     1       5.194   5.404  24.880  0.00  0.00    +0.133 C 
ATOM     24  C   UNL     1       5.217   3.386  23.303  0.00  0.00    +0.187 C 
ATOM     25  C   UNL     1       6.677   3.412  22.775  0.00  0.00    +0.329 C 
ATOM     26  O   UNL     1       7.359   4.406  22.570  0.00  0.00    -0.249 OA
ATOM     27  O   UNL     1       7.103   2.126  22.623  0.00  0.00    -0.450 OA
ENDROOT
BRANCH   1  28
ATOM     28  C   UNL     1       9.243   2.216  23.895  0.00  0.00    +0.033 C 
ATOM     29  C   UNL     1      10.686   2.253  23.543  0.00  0.00    +0.011 C 
ATOM     30  C   UNL     1       9.267   1.438  25.214  0.00  0.00    +0.011 C 
ENDBRANCH   1  28
BRANCH   6  31
ATOM     31  C   UNL     1       7.177  -3.073  22.396  0.00  0.00    +0.014 C 
ATOM     32  C   UNL     1       5.676  -3.024  22.031  0.00  0.00    +0.009 C 
ATOM     33  C   UNL     1       7.571  -4.520  22.698  0.00  0.00    +0.009 C 
ENDBRANCH   6  31
BRANCH  10  34
ATOM     34  C   UNL     1       6.496  -1.090  27.098  0.00  0.00    +0.033 C 
ATOM     35  C   UNL     1       6.179  -0.225  25.944  0.00  0.00    +0.011 C 
ATOM     36  C   UNL     1       7.803  -0.583  27.623  0.00  0.00    +0.011 C 
ENDBRANCH  10  34
BRANCH  15  37
ATOM     37  C   UNL     1       2.018  -1.095  26.850  0.00  0.00    +0.014 C 
ATOM     38  C   UNL     1       0.886  -0.851  27.862  0.00  0.00    +0.009 C 
ATOM     39  C   UNL     1       1.957  -2.541  26.343  0.00  0.00    +0.009 C 
ENDBRANCH  15  37
BRANCH  19  40
ATOM     40  C   UNL     1       5.854   2.937  27.459  0.00  0.00    +0.033 C 
ATOM     41  C   UNL     1       5.979   2.413  28.903  0.00  0.00    +0.011 C 
ATOM     42  C   UNL     1       6.795   4.136  27.424  0.00  0.00    +0.011 C 
ENDBRANCH  19  40
BRANCH  24  43
ATOM     43  C   UNL     1       4.236   3.812  22.184  0.00  0.00    +0.014 C 
ATOM     44  C   UNL     1       3.839   5.289  22.391  0.00  0.00    +0.009 C 
ATOM     45  C   UNL     1       2.955   2.981  22.084  0.00  0.00    +0.009 C 
ENDBRANCH  24  43
TORSDOF 6
ENDMDL
MODEL 9
REMARK VINA RESULT:      -4.7      1.310      7.081
REMARK  Name = 
REMARK  21 active torsions:
REMARK  status: ('A' for Active; 'I' for Inactive)
REMARK    1  A    between atoms: C_2  and  C_49
REMARK    2  A    between atoms: C_6  and  C_8
REMARK    3  A    between atoms: C_8  and  C_9
REMARK    4  A    between atoms: C_8  and  C_10
REMARK    5  A    between atoms: N_11  and  C_12
REMARK    6  A    between atoms: C_15  and  C_46
REMARK    7  A    between atoms: C_20  and  C_22
REMARK    8  A    between atoms: C_22  and  C_23
REMARK    9  A    between atoms: C_22  and  C_24
REMARK   10  A    between atoms: N_25  and  C_26
REMARK   11  A    between atoms: C_29  and  C_43
REMARK   12  A    between atoms: C_34  and  C_36
REMARK   13  A    between atoms: C_36  and  C_37
REMARK   14  A    between atoms: C_36  and  C_38
REMARK   15  A    between atoms: N_39  and  C_40
REMARK   16  A    between atoms: C_43  and  C_44
REMARK   17  A    between atoms: C_43  and  C_45
REMARK   18  A    between atoms: C_46  and  C_47
REMARK   19  A    between atoms: C_46  and  C_48
REMARK   20  A    between atoms: C_49  and  C_50
REMARK   21  A    between atoms: C_49  and  C_51
REMARK                            x       y       z     vdW  Elec       q    Type
REMARK                         _______ _______ _______ _____ _____    ______ ____
ROOT
ATOM      1  C   UNL     1       6.914   1.558  26.913  0.00  0.00    +0.264 C 
ATOM      2  C   UNL     1       7.486   1.004  25.443  0.00  0.00    +0.257 C 
ATOM      3  O   UNL     1       7.178   1.659  24.435  0.00  0.00    -0.272 OA
ATOM      4  N   UNL     1       8.122  -0.260  25.257  0.00  0.00    -0.288 N 
ATOM      5  C   UNL     1       9.433  -0.433  25.868  0.00  0.00    +0.133 C 
ATOM      6  C   UNL     1       7.733  -1.196  24.049  0.00  0.00    +0.187 C 
ATOM      7  C   UNL     1       8.044  -2.786  24.083  0.00  0.00    +0.329 C 
ATOM      8  O   UNL     1       9.121  -3.291  24.395  0.00  0.00    -0.249 OA
ATOM      9  O   UNL     1       6.885  -3.528  23.855  0.00  0.00    -0.450 OA
ATOM     10  C   UNL     1       6.563  -4.646  24.751  0.00  0.00    +0.264 C 
ATOM     11  C   UNL     1       5.409  -5.662  24.242  0.00  0.00    +0.257 C 
ATOM     12  O   UNL     1       5.698  -6.508  23.394  0.00  0.00    -0.272 OA
ATOM     13  N   UNL     1       4.188  -5.779  24.974  0.00  0.00    -0.288 N 
ATOM     14  C   UNL     1       3.952  -7.103  25.561  0.00  0.00    +0.133 C 
ATOM     15  C   UNL     1       3.134  -4.688  25.090  0.00  0.00    +0.187 C 
ATOM     16  C   UNL     1       2.376  -4.406  26.461  0.00  0.00    +0.329 C 
ATOM     17  O   UNL     1       1.765  -5.231  27.142  0.00  0.00    -0.249 OA
ATOM     18  O   UNL     1       2.582  -3.088  26.792  0.00  0.00    -0.450 OA
ATOM     19  C   UNL     1       2.287  -2.381  28.105  0.00  0.00    +0.264 C 
ATOM     20  C   UNL     1       1.976  -0.973  27.475  0.00  0.00    +0.257 C 
ATOM     21  O   UNL     1       1.273  -0.881  26.463  0.00  0.00    -0.272 OA
ATOM     22  N   UNL     1       2.587   0.177  27.998  0.00  0.00    -0.288 N 
ATOM     23  C   UNL     1       2.045   0.693  29.242  0.00  0.00    +0.133 C 
ATOM     24  C   UNL     1       3.167   1.150  26.986  0.00  0.00    +0.187 C 
ATOM     25  C   UNL     1       4.474   1.865  27.420  0.00  0.00    +0.329 C 
ATOM     26  O   UNL     1       4.612   2.612  28.378  0.00  0.00    -0.249 OA
ATOM     27  O   UNL     1       5.476   1.479  26.579  0.00  0.00    -0.450 OA
ENDROOT
BRANCH   1  28
ATOM     28  C   UNL     1       7.193   0.763  28.235  0.00  0.00    +0.033 C 
ATOM     29  C   UNL     1       6.167  -0.311  28.257  0.00  0.00    +0.011 C 
ATOM     30  C   UNL     1       7.054   1.352  29.643  0.00  0.00    +0.011 C 
ENDBRANCH   1  28
BRANCH   6  31
ATOM     31  C   UNL     1       8.051  -0.690  22.609  0.00  0.00    +0.014 C 
ATOM     32  C   UNL     1       8.031  -1.876  21.618  0.00  0.00    +0.009 C 
ATOM     33  C   UNL     1       9.386   0.046  22.483  0.00  0.00    +0.009 C 
ENDBRANCH   6  31
BRANCH  10  34
ATOM     34  C   UNL     1       6.103  -4.003  26.036  0.00  0.00    +0.033 C 
ATOM     35  C   UNL     1       5.609  -2.612  26.001  0.00  0.00    +0.011 C 
ATOM     36  C   UNL     1       6.909  -4.103  27.293  0.00  0.00    +0.011 C 
ENDBRANCH  10  34
BRANCH  15  37
ATOM     37  C   UNL     1       2.214  -4.528  23.864  0.00  0.00    +0.014 C 
ATOM     38  C   UNL     1       0.822  -4.087  24.347  0.00  0.00    +0.009 C 
ATOM     39  C   UNL     1       2.087  -5.777  22.985  0.00  0.00    +0.009 C 
ENDBRANCH  15  37
BRANCH  19  40
ATOM     40  C   UNL     1       3.583  -2.581  28.932  0.00  0.00    +0.033 C 
ATOM     41  C   UNL     1       3.912  -4.072  29.140  0.00  0.00    +0.011 C 
ATOM     42  C   UNL     1       3.769  -1.970  30.316  0.00  0.00    +0.011 C 
ENDBRANCH  19  40
BRANCH  24  43
ATOM     43  C   UNL     1       2.202   2.160  26.319  0.00  0.00    +0.014 C 
ATOM     44  C   UNL     1       2.933   2.876  25.164  0.00  0.00    +0.009 C 
ATOM     45  C   UNL     1       1.621   3.225  27.251  0.00  0.00    +0.009 C 
ENDBRANCH  24  43
TORSDOF 6
ENDMDL
