MODEL 1
REMARK VINA RESULT:      -5.7      0.000      0.000
REMARK  Name = 
REMARK  1 active torsions:
REMARK  status: ('A' for Active; 'I' for Inactive)
REMARK    1  A    between atoms: O_1  and  N_2
REMARK                            x       y       z     vdW  Elec       q    Type
REMARK                         _______ _______ _______ _____ _____    ______ ____
ROOT
ATOM      1  N   UNL     1       7.740  -5.435  26.205  0.00  0.00    -0.138 N 
ATOM      2  C   UNL     1       6.462  -5.494  25.640  0.00  0.00    +0.159 A 
ATOM      3  C   UNL     1       6.355  -5.273  24.268  0.00  0.00    +0.274 A 
ATOM      4  C   UNL     1       5.115  -5.350  23.619  0.00  0.00    +0.084 A 
ATOM      5  C   UNL     1       3.970  -5.640  24.361  0.00  0.00    +0.007 A 
ATOM      6  C   UNL     1       4.065  -5.844  25.736  0.00  0.00    +0.003 A 
ATOM      7  N   UNL     1       7.575  -4.950  23.517  0.00  0.00    -0.043 N 
ATOM      8  O   UNL     1       7.440  -4.647  22.283  0.00  0.00    -0.595 OA
ATOM      9  N   UNL     1       8.726  -4.946  24.052  0.00  0.00    +0.058 NA
ATOM     10  C   UNL     1       5.307  -5.774  26.376  0.00  0.00    +0.036 A 
ATOM     11  C   UNL     1       8.826  -5.288  25.368  0.00  0.00    +0.323 A 
ATOM     12  N   UNL     1      10.043  -5.452  25.786  0.00  0.00    -0.259 NA
ATOM     13  H   UNL     1       9.984  -5.750  26.764  0.00  0.00    +0.190 HD
ENDROOT
BRANCH   1  14
ATOM     14  O   UNL     1       8.006  -5.898  27.493  0.00  0.00    -0.423 OA
ATOM     15  H   UNL     1       8.688  -6.581  27.335  0.00  0.00    +0.326 HD
ENDBRANCH   1  14
TORSDOF 1
ENDMDL
MODEL 2
REMARK VINA RESULT:      -5.5      1.634      2.948
REMARK  Name = 
REMARK  1 active torsions:
REMARK  status: ('A' for Active; 'I' for Inactive)
REMARK    1  A    between atoms: O_1  and  N_2
REMARK                            x       y       z     vdW  Elec       q    Type
REMARK                         _______ _______ _______ _____ _____    ______ ____
ROOT
ATOM      1  N   UNL     1       8.553  -4.818  24.801  0.00  0.00    -0.138 N 
ATOM      2  C   UNL     1       7.394  -5.008  24.043  0.00  0.00    +0.159 A 
ATOM      3  C   UNL     1       6.291  -5.570  24.685  0.00  0.00    +0.274 A 
ATOM      4  C   UNL     1       5.080  -5.759  24.005  0.00  0.00    +0.084 A 
ATOM      5  C   UNL     1       4.982  -5.392  22.664  0.00  0.00    +0.007 A 
ATOM      6  C   UNL     1       6.085  -4.847  22.009  0.00  0.00    +0.003 A 
ATOM      7  N   UNL     1       6.431  -5.965  26.092  0.00  0.00    -0.043 N 
ATOM      8  O   UNL     1       5.445  -6.574  26.630  0.00  0.00    -0.595 OA
ATOM      9  N   UNL     1       7.484  -5.740  26.764  0.00  0.00    +0.058 NA
ATOM     10  C   UNL     1       7.288  -4.652  22.695  0.00  0.00    +0.036 A 
ATOM     11  C   UNL     1       8.508  -5.076  26.156  0.00  0.00    +0.323 A 
ATOM     12  N   UNL     1       9.460  -4.712  26.957  0.00  0.00    -0.259 NA
ATOM     13  H   UNL     1      10.138  -4.188  26.396  0.00  0.00    +0.190 HD
ENDROOT
BRANCH   1  14
ATOM     14  O   UNL     1       9.614  -4.029  24.354  0.00  0.00    -0.423 OA
ATOM     15  H   UNL     1       9.248  -3.624  23.543  0.00  0.00    +0.326 HD
ENDBRANCH   1  14
TORSDOF 1
ENDMDL
MODEL 3
REMARK VINA RESULT:      -5.5      1.852      2.628
REMARK  Name = 
REMARK  1 active torsions:
REMARK  status: ('A' for Active; 'I' for Inactive)
REMARK    1  A    between atoms: O_1  and  N_2
REMARK                            x       y       z     vdW  Elec       q    Type
REMARK                         _______ _______ _______ _____ _____    ______ ____
ROOT
ATOM      1  N   UNL     1       6.303  -5.761  25.811  0.00  0.00    -0.138 N 
ATOM      2  C   UNL     1       6.363  -5.586  24.425  0.00  0.00    +0.159 A 
ATOM      3  C   UNL     1       7.520  -5.012  23.900  0.00  0.00    +0.274 A 
ATOM      4  C   UNL     1       7.673  -4.836  22.517  0.00  0.00    +0.084 A 
ATOM      5  C   UNL     1       6.648  -5.229  21.658  0.00  0.00    +0.007 A 
ATOM      6  C   UNL     1       5.480  -5.786  22.176  0.00  0.00    +0.003 A 
ATOM      7  N   UNL     1       8.573  -4.589  24.831  0.00  0.00    -0.043 N 
ATOM      8  O   UNL     1       9.576  -3.971  24.338  0.00  0.00    -0.595 OA
ATOM      9  N   UNL     1       8.506  -4.801  26.080  0.00  0.00    +0.058 NA
ATOM     10  C   UNL     1       5.337  -5.968  23.555  0.00  0.00    +0.036 A 
ATOM     11  C   UNL     1       7.424  -5.476  26.563  0.00  0.00    +0.323 A 
ATOM     12  N   UNL     1       7.523  -5.825  27.808  0.00  0.00    -0.259 NA
ATOM     13  H   UNL     1       6.680  -6.360  28.036  0.00  0.00    +0.190 HD
ENDROOT
BRANCH   1  14
ATOM     14  O   UNL     1       5.332  -6.558  26.419  0.00  0.00    -0.423 OA
ATOM     15  H   UNL     1       5.588  -6.518  27.362  0.00  0.00    +0.326 HD
ENDBRANCH   1  14
TORSDOF 1
ENDMDL
MODEL 4
REMARK VINA RESULT:      -5.4      1.552      1.608
REMARK  Name = 
REMARK  1 active torsions:
REMARK  status: ('A' for Active; 'I' for Inactive)
REMARK    1  A    between atoms: O_1  and  N_2
REMARK                            x       y       z     vdW  Elec       q    Type
REMARK                         _______ _______ _______ _____ _____    ______ ____
ROOT
ATOM      1  N   UNL     1       8.153  -4.973  25.967  0.00  0.00    -0.138 N 
ATOM      2  C   UNL     1       6.973  -4.407  25.476  0.00  0.00    +0.159 A 
ATOM      3  C   UNL     1       7.065  -3.623  24.327  0.00  0.00    +0.274 A 
ATOM      4  C   UNL     1       5.922  -3.050  23.752  0.00  0.00    +0.084 A 
ATOM      5  C   UNL     1       4.678  -3.258  24.345  0.00  0.00    +0.007 A 
ATOM      6  C   UNL     1       4.579  -4.025  25.505  0.00  0.00    +0.003 A 
ATOM      7  N   UNL     1       8.392  -3.405  23.737  0.00  0.00    -0.043 N 
ATOM      8  O   UNL     1       8.467  -2.599  22.749  0.00  0.00    -0.595 OA
ATOM      9  N   UNL     1       9.438  -3.968  24.182  0.00  0.00    +0.058 NA
ATOM     10  C   UNL     1       5.721  -4.602  26.069  0.00  0.00    +0.036 A 
ATOM     11  C   UNL     1       9.311  -4.832  25.230  0.00  0.00    +0.323 A 
ATOM     12  N   UNL     1      10.382  -5.512  25.496  0.00  0.00    -0.259 NA
ATOM     13  H   UNL     1      10.148  -6.150  26.261  0.00  0.00    +0.190 HD
ENDROOT
BRANCH   1  14
ATOM     14  O   UNL     1       8.151  -5.980  26.932  0.00  0.00    -0.423 OA
ATOM     15  H   UNL     1       8.477  -5.512  27.726  0.00  0.00    +0.326 HD
ENDBRANCH   1  14
TORSDOF 1
ENDMDL
MODEL 5
REMARK VINA RESULT:      -5.4      5.755      7.035
REMARK  Name = 
REMARK  1 active torsions:
REMARK  status: ('A' for Active; 'I' for Inactive)
REMARK    1  A    between atoms: O_1  and  N_2
REMARK                            x       y       z     vdW  Elec       q    Type
REMARK                         _______ _______ _______ _____ _____    ______ ____
ROOT
ATOM      1  N   UNL     1       9.837  -1.291  22.976  0.00  0.00    -0.138 N 
ATOM      2  C   UNL     1       9.703   0.090  23.153  0.00  0.00    +0.159 A 
ATOM      3  C   UNL     1       9.224   0.536  24.384  0.00  0.00    +0.274 A 
ATOM      4  C   UNL     1       9.095   1.906  24.653  0.00  0.00    +0.084 A 
ATOM      5  C   UNL     1       9.438   2.834  23.670  0.00  0.00    +0.007 A 
ATOM      6  C   UNL     1       9.899   2.395  22.430  0.00  0.00    +0.003 A 
ATOM      7  N   UNL     1       8.852  -0.464  25.391  0.00  0.00    -0.043 N 
ATOM      8  O   UNL     1       8.318  -0.038  26.470  0.00  0.00    -0.595 OA
ATOM      9  N   UNL     1       9.027  -1.709  25.216  0.00  0.00    +0.058 NA
ATOM     10  C   UNL     1      10.035   1.028  22.171  0.00  0.00    +0.036 A 
ATOM     11  C   UNL     1       9.613  -2.121  24.055  0.00  0.00    +0.323 A 
ATOM     12  N   UNL     1       9.935  -3.377  24.035  0.00  0.00    -0.259 NA
ATOM     13  H   UNL     1      10.404  -3.550  23.141  0.00  0.00    +0.190 HD
ENDROOT
BRANCH   1  14
ATOM     14  O   UNL     1      10.549  -1.839  21.909  0.00  0.00    -0.423 OA
ATOM     15  H   UNL     1      10.547  -1.109  21.258  0.00  0.00    +0.326 HD
ENDBRANCH   1  14
TORSDOF 1
ENDMDL
MODEL 6
REMARK VINA RESULT:      -5.3      5.529      6.502
REMARK  Name = 
REMARK  1 active torsions:
REMARK  status: ('A' for Active; 'I' for Inactive)
REMARK    1  A    between atoms: O_1  and  N_2
REMARK                            x       y       z     vdW  Elec       q    Type
REMARK                         _______ _______ _______ _____ _____    ______ ____
ROOT
ATOM      1  N   UNL     1       9.396  -0.583  25.382  0.00  0.00    -0.138 N 
ATOM      2  C   UNL     1       9.657   0.282  24.315  0.00  0.00    +0.159 A 
ATOM      3  C   UNL     1       9.590  -0.247  23.026  0.00  0.00    +0.274 A 
ATOM      4  C   UNL     1       9.802   0.563  21.902  0.00  0.00    +0.084 A 
ATOM      5  C   UNL     1      10.099   1.914  22.076  0.00  0.00    +0.007 A 
ATOM      6  C   UNL     1      10.188   2.447  23.361  0.00  0.00    +0.003 A 
ATOM      7  N   UNL     1       9.296  -1.678  22.876  0.00  0.00    -0.043 N 
ATOM      8  O   UNL     1       9.343  -2.164  21.695  0.00  0.00    -0.595 OA
ATOM      9  N   UNL     1       9.021  -2.426  23.863  0.00  0.00    +0.058 NA
ATOM     10  C   UNL     1       9.965   1.636  24.478  0.00  0.00    +0.036 A 
ATOM     11  C   UNL     1       8.968  -1.865  25.104  0.00  0.00    +0.323 A 
ATOM     12  N   UNL     1       8.491  -2.644  26.024  0.00  0.00    -0.259 NA
ATOM     13  H   UNL     1       8.459  -2.098  26.890  0.00  0.00    +0.190 HD
ENDROOT
BRANCH   1  14
ATOM     14  O   UNL     1       9.169  -0.119  26.677  0.00  0.00    -0.423 OA
ATOM     15  H   UNL     1       8.658   0.700  26.521  0.00  0.00    +0.326 HD
ENDBRANCH   1  14
TORSDOF 1
ENDMDL
MODEL 7
REMARK VINA RESULT:      -5.3      2.399      3.656
REMARK  Name = 
REMARK  1 active torsions:
REMARK  status: ('A' for Active; 'I' for Inactive)
REMARK    1  A    between atoms: O_1  and  N_2
REMARK                            x       y       z     vdW  Elec       q    Type
REMARK                         _______ _______ _______ _____ _____    ______ ____
ROOT
ATOM      1  N   UNL     1       8.767  -4.797  25.926  0.00  0.00    -0.138 N 
ATOM      2  C   UNL     1       8.645  -3.916  24.847  0.00  0.00    +0.159 A 
ATOM      3  C   UNL     1       7.379  -3.762  24.283  0.00  0.00    +0.274 A 
ATOM      4  C   UNL     1       7.166  -2.870  23.222  0.00  0.00    +0.084 A 
ATOM      5  C   UNL     1       8.239  -2.138  22.716  0.00  0.00    +0.007 A 
ATOM      6  C   UNL     1       9.512  -2.300  23.261  0.00  0.00    +0.003 A 
ATOM      7  N   UNL     1       6.273  -4.562  24.824  0.00  0.00    -0.043 N 
ATOM      8  O   UNL     1       5.148  -4.484  24.225  0.00  0.00    -0.595 OA
ATOM      9  N   UNL     1       6.408  -5.321  25.832  0.00  0.00    +0.058 NA
ATOM     10  C   UNL     1       9.716  -3.184  24.325  0.00  0.00    +0.036 A 
ATOM     11  C   UNL     1       7.623  -5.364  26.449  0.00  0.00    +0.323 A 
ATOM     12  N   UNL     1       7.628  -6.002  27.578  0.00  0.00    -0.259 NA
ATOM     13  H   UNL     1       8.574  -5.924  27.961  0.00  0.00    +0.190 HD
ENDROOT
BRANCH   1  14
ATOM     14  O   UNL     1       9.903  -4.830  26.734  0.00  0.00    -0.423 OA
ATOM     15  H   UNL     1      10.499  -4.198  26.286  0.00  0.00    +0.326 HD
ENDBRANCH   1  14
TORSDOF 1
ENDMDL
MODEL 8
REMARK VINA RESULT:      -5.2      2.596      4.945
REMARK  Name = 
REMARK  1 active torsions:
REMARK  status: ('A' for Active; 'I' for Inactive)
REMARK    1  A    between atoms: O_1  and  N_2
REMARK                            x       y       z     vdW  Elec       q    Type
REMARK                         _______ _______ _______ _____ _____    ______ ____
ROOT
ATOM      1  N   UNL     1       6.187  -4.014  22.301  0.00  0.00    -0.138 N 
ATOM      2  C   UNL     1       7.374  -3.467  22.798  0.00  0.00    +0.159 A 
ATOM      3  C   UNL     1       7.895  -4.017  23.968  0.00  0.00    +0.274 A 
ATOM      4  C   UNL     1       9.100  -3.549  24.510  0.00  0.00    +0.084 A 
ATOM      5  C   UNL     1       9.781  -2.511  23.876  0.00  0.00    +0.007 A 
ATOM      6  C   UNL     1       9.258  -1.942  22.716  0.00  0.00    +0.003 A 
ATOM      7  N   UNL     1       7.146  -5.096  24.624  0.00  0.00    -0.043 N 
ATOM      8  O   UNL     1       7.584  -5.512  25.750  0.00  0.00    -0.595 OA
ATOM      9  N   UNL     1       6.093  -5.599  24.125  0.00  0.00    +0.058 NA
ATOM     10  C   UNL     1       8.060  -2.419  22.175  0.00  0.00    +0.036 A 
ATOM     11  C   UNL     1       5.667  -5.134  22.916  0.00  0.00    +0.323 A 
ATOM     12  N   UNL     1       4.709  -5.827  22.383  0.00  0.00    -0.259 NA
ATOM     13  H   UNL     1       4.513  -5.412  21.468  0.00  0.00    +0.190 HD
ENDROOT
BRANCH   1  14
ATOM     14  O   UNL     1       5.721  -3.738  21.015  0.00  0.00    -0.423 OA
ATOM     15  H   UNL     1       6.134  -4.448  20.485  0.00  0.00    +0.326 HD
ENDBRANCH   1  14
TORSDOF 1
ENDMDL
MODEL 9
REMARK VINA RESULT:      -5.1      6.548      7.785
REMARK  Name = 
REMARK  1 active torsions:
REMARK  status: ('A' for Active; 'I' for Inactive)
REMARK    1  A    between atoms: O_1  and  N_2
REMARK                            x       y       z     vdW  Elec       q    Type
REMARK                         _______ _______ _______ _____ _____    ______ ____
ROOT
ATOM      1  N   UNL     1       9.776   1.870  22.824  0.00  0.00    -0.138 N 
ATOM      2  C   UNL     1       9.699   0.540  23.248  0.00  0.00    +0.159 A 
ATOM      3  C   UNL     1       8.975   0.277  24.410  0.00  0.00    +0.274 A 
ATOM      4  C   UNL     1       8.819  -1.034  24.881  0.00  0.00    +0.084 A 
ATOM      5  C   UNL     1       9.408  -2.088  24.184  0.00  0.00    +0.007 A 
ATOM      6  C   UNL     1      10.149  -1.832  23.032  0.00  0.00    +0.003 A 
ATOM      7  N   UNL     1       8.384   1.410  25.134  0.00  0.00    -0.043 N 
ATOM      8  O   UNL     1       7.817   1.158  26.251  0.00  0.00    -0.595 OA
ATOM      9  N   UNL     1       8.436   2.601  24.700  0.00  0.00    +0.058 NA
ATOM     10  C   UNL     1      10.293  -0.523  22.561  0.00  0.00    +0.036 A 
ATOM     11  C   UNL     1       9.040   2.823  23.497  0.00  0.00    +0.323 A 
ATOM     12  N   UNL     1       8.879   4.023  23.032  0.00  0.00    -0.259 NA
ATOM     13  H   UNL     1       9.332   4.050  22.114  0.00  0.00    +0.190 HD
ENDROOT
BRANCH   1  14
ATOM     14  O   UNL     1      10.232   2.221  21.553  0.00  0.00    -0.423 OA
ATOM     15  H   UNL     1       9.693   3.011  21.347  0.00  0.00    +0.326 HD
ENDBRANCH   1  14
TORSDOF 1
ENDMDL
