MODEL 1
REMARK VINA RESULT:      -4.1      0.000      0.000
REMARK  Name = 
REMARK  1 active torsions:
REMARK  status: ('A' for Active; 'I' for Inactive)
REMARK    1  A    between atoms: O_1  and  C_2
REMARK                            x       y       z     vdW  Elec       q    Type
REMARK                         _______ _______ _______ _____ _____    ______ ____
ROOT
ATOM      1  C   UNL     1      10.157   1.394  22.520  0.00  0.00    +0.118 A 
ATOM      2  C   UNL     1       9.583   0.197  22.104  0.00  0.00    +0.065 A 
ATOM      3  C   UNL     1       9.466  -0.852  23.012  0.00  0.00    +0.044 A 
ATOM      4 CL   UNL     1       8.761  -2.341  22.515  0.00  0.00    -0.083 Cl
ATOM      5  C   UNL     1       9.915  -0.705  24.325  0.00  0.00    +0.020 A 
ATOM      6  C   UNL     1      10.487   0.501  24.733  0.00  0.00    +0.005 A 
ATOM      7  C   UNL     1      10.609   1.557  23.828  0.00  0.00    +0.045 A 
ENDROOT
BRANCH   1   8
ATOM      8  O   UNL     1      10.262   2.399  21.603  0.00  0.00    -0.507 OA
ATOM      9  H   UNL     1      11.130   2.340  21.171  0.00  0.00    +0.292 HD
ENDBRANCH   1   8
TORSDOF 1
ENDMDL
MODEL 2
REMARK VINA RESULT:      -4.0      2.523      3.011
REMARK  Name = 
REMARK  1 active torsions:
REMARK  status: ('A' for Active; 'I' for Inactive)
REMARK    1  A    between atoms: O_1  and  C_2
REMARK                            x       y       z     vdW  Elec       q    Type
REMARK                         _______ _______ _______ _____ _____    ______ ____
ROOT
ATOM      1  C   UNL     1       9.824  -0.175  22.132  0.00  0.00    +0.118 A 
ATOM      2  C   UNL     1      10.039   1.199  22.167  0.00  0.00    +0.065 A 
ATOM      3  C   UNL     1      10.350   1.808  23.380  0.00  0.00    +0.044 A 
ATOM      4 CL   UNL     1      10.616   3.507  23.443  0.00  0.00    -0.083 Cl
ATOM      5  C   UNL     1      10.449   1.050  24.548  0.00  0.00    +0.020 A 
ATOM      6  C   UNL     1      10.234  -0.329  24.501  0.00  0.00    +0.005 A 
ATOM      7  C   UNL     1       9.920  -0.946  23.288  0.00  0.00    +0.045 A 
ENDROOT
BRANCH   1   8
ATOM      8  O   UNL     1       9.516  -0.737  20.929  0.00  0.00    -0.507 OA
ATOM      9  H   UNL     1       9.527  -1.705  21.023  0.00  0.00    +0.292 HD
ENDBRANCH   1   8
TORSDOF 1
ENDMDL
MODEL 3
REMARK VINA RESULT:      -3.9      1.605      2.370
REMARK  Name = 
REMARK  1 active torsions:
REMARK  status: ('A' for Active; 'I' for Inactive)
REMARK    1  A    between atoms: O_1  and  C_2
REMARK                            x       y       z     vdW  Elec       q    Type
REMARK                         _______ _______ _______ _____ _____    ______ ____
ROOT
ATOM      1  C   UNL     1       9.792   1.019  22.102  0.00  0.00    +0.118 A 
ATOM      2  C   UNL     1       9.781   0.939  23.490  0.00  0.00    +0.065 A 
ATOM      3  C   UNL     1       9.445  -0.267  24.099  0.00  0.00    +0.044 A 
ATOM      4 CL   UNL     1       9.424  -0.384  25.815  0.00  0.00    -0.083 Cl
ATOM      5  C   UNL     1       9.125  -1.385  23.327  0.00  0.00    +0.020 A 
ATOM      6  C   UNL     1       9.142  -1.294  21.934  0.00  0.00    +0.005 A 
ATOM      7  C   UNL     1       9.477  -0.088  21.316  0.00  0.00    +0.045 A 
ENDROOT
BRANCH   1   8
ATOM      8  O   UNL     1      10.121   2.217  21.539  0.00  0.00    -0.507 OA
ATOM      9  H   UNL     1      10.070   2.908  22.220  0.00  0.00    +0.292 HD
ENDBRANCH   1   8
TORSDOF 1
ENDMDL
MODEL 4
REMARK VINA RESULT:      -3.9      2.824      3.744
REMARK  Name = 
REMARK  1 active torsions:
REMARK  status: ('A' for Active; 'I' for Inactive)
REMARK    1  A    between atoms: O_1  and  C_2
REMARK                            x       y       z     vdW  Elec       q    Type
REMARK                         _______ _______ _______ _____ _____    ______ ____
ROOT
ATOM      1  C   UNL     1       9.982  -1.462  23.186  0.00  0.00    +0.118 A 
ATOM      2  C   UNL     1      10.374  -0.282  23.808  0.00  0.00    +0.065 A 
ATOM      3  C   UNL     1      10.244   0.923  23.123  0.00  0.00    +0.044 A 
ATOM      4 CL   UNL     1      10.727   2.393  23.875  0.00  0.00    -0.083 Cl
ATOM      5  C   UNL     1       9.723   0.949  21.828  0.00  0.00    +0.020 A 
ATOM      6  C   UNL     1       9.330  -0.242  21.215  0.00  0.00    +0.005 A 
ATOM      7  C   UNL     1       9.459  -1.454  21.895  0.00  0.00    +0.045 A 
ENDROOT
BRANCH   1   8
ATOM      8  O   UNL     1      10.128  -2.625  23.884  0.00  0.00    -0.507 OA
ATOM      9  H   UNL     1       9.295  -3.124  23.840  0.00  0.00    +0.292 HD
ENDBRANCH   1   8
TORSDOF 1
ENDMDL
MODEL 5
REMARK VINA RESULT:      -3.8      1.622      2.355
REMARK  Name = 
REMARK  1 active torsions:
REMARK  status: ('A' for Active; 'I' for Inactive)
REMARK    1  A    between atoms: O_1  and  C_2
REMARK                            x       y       z     vdW  Elec       q    Type
REMARK                         _______ _______ _______ _____ _____    ______ ____
ROOT
ATOM      1  C   UNL     1      10.177   0.514  24.181  0.00  0.00    +0.118 A 
ATOM      2  C   UNL     1       9.560  -0.671  23.795  0.00  0.00    +0.065 A 
ATOM      3  C   UNL     1       9.122  -0.813  22.481  0.00  0.00    +0.044 A 
ATOM      4 CL   UNL     1       8.355  -2.272  21.987  0.00  0.00    -0.083 Cl
ATOM      5  C   UNL     1       9.300   0.220  21.560  0.00  0.00    +0.020 A 
ATOM      6  C   UNL     1       9.923   1.404  21.957  0.00  0.00    +0.005 A 
ATOM      7  C   UNL     1      10.364   1.554  23.273  0.00  0.00    +0.045 A 
ENDROOT
BRANCH   1   8
ATOM      8  O   UNL     1      10.589   0.621  25.477  0.00  0.00    -0.507 OA
ATOM      9  H   UNL     1       9.863   0.991  26.007  0.00  0.00    +0.292 HD
ENDBRANCH   1   8
TORSDOF 1
ENDMDL
MODEL 6
REMARK VINA RESULT:      -3.7      2.151      2.654
REMARK  Name = 
REMARK  1 active torsions:
REMARK  status: ('A' for Active; 'I' for Inactive)
REMARK    1  A    between atoms: O_1  and  C_2
REMARK                            x       y       z     vdW  Elec       q    Type
REMARK                         _______ _______ _______ _____ _____    ______ ____
ROOT
ATOM      1  C   UNL     1       9.921  -0.536  22.316  0.00  0.00    +0.118 A 
ATOM      2  C   UNL     1       9.666  -0.975  23.611  0.00  0.00    +0.065 A 
ATOM      3  C   UNL     1       9.493  -0.037  24.625  0.00  0.00    +0.044 A 
ATOM      4 CL   UNL     1       9.180  -0.563  26.234  0.00  0.00    -0.083 Cl
ATOM      5  C   UNL     1       9.570   1.328  24.348  0.00  0.00    +0.020 A 
ATOM      6  C   UNL     1       9.822   1.758  23.044  0.00  0.00    +0.005 A 
ATOM      7  C   UNL     1       9.999   0.824  22.022  0.00  0.00    +0.045 A 
ENDROOT
BRANCH   1   8
ATOM      8  O   UNL     1      10.091  -1.481  21.348  0.00  0.00    -0.507 OA
ATOM      9  H   UNL     1      11.032  -1.517  21.107  0.00  0.00    +0.292 HD
ENDBRANCH   1   8
TORSDOF 1
ENDMDL
MODEL 7
REMARK VINA RESULT:      -3.7      2.111      2.850
REMARK  Name = 
REMARK  1 active torsions:
REMARK  status: ('A' for Active; 'I' for Inactive)
REMARK    1  A    between atoms: O_1  and  C_2
REMARK                            x       y       z     vdW  Elec       q    Type
REMARK                         _______ _______ _______ _____ _____    ______ ____
ROOT
ATOM      1  C   UNL     1       8.753   2.441  22.337  0.00  0.00    +0.118 A 
ATOM      2  C   UNL     1       9.502   2.138  23.470  0.00  0.00    +0.065 A 
ATOM      3  C   UNL     1      10.118   0.893  23.565  0.00  0.00    +0.044 A 
ATOM      4 CL   UNL     1      11.045   0.499  24.960  0.00  0.00    -0.083 Cl
ATOM      5  C   UNL     1       9.989  -0.041  22.535  0.00  0.00    +0.020 A 
ATOM      6  C   UNL     1       9.238   0.274  21.402  0.00  0.00    +0.005 A 
ATOM      7  C   UNL     1       8.616   1.520  21.300  0.00  0.00    +0.045 A 
ENDROOT
BRANCH   1   8
ATOM      8  O   UNL     1       8.159   3.667  22.280  0.00  0.00    -0.507 OA
ATOM      9  H   UNL     1       8.841   4.351  22.387  0.00  0.00    +0.292 HD
ENDBRANCH   1   8
TORSDOF 1
ENDMDL
MODEL 8
REMARK VINA RESULT:      -3.7      2.785      3.492
REMARK  Name = 
REMARK  1 active torsions:
REMARK  status: ('A' for Active; 'I' for Inactive)
REMARK    1  A    between atoms: O_1  and  C_2
REMARK                            x       y       z     vdW  Elec       q    Type
REMARK                         _______ _______ _______ _____ _____    ______ ____
ROOT
ATOM      1  C   UNL     1      10.010   0.881  24.018  0.00  0.00    +0.118 A 
ATOM      2  C   UNL     1       9.195   1.990  23.812  0.00  0.00    +0.065 A 
ATOM      3  C   UNL     1       8.636   2.198  22.554  0.00  0.00    +0.044 A 
ATOM      4 CL   UNL     1       7.627   3.565  22.281  0.00  0.00    -0.083 Cl
ATOM      5  C   UNL     1       8.887   1.305  21.512  0.00  0.00    +0.020 A 
ATOM      6  C   UNL     1       9.704   0.194  21.730  0.00  0.00    +0.005 A 
ATOM      7  C   UNL     1      10.269  -0.020  22.988  0.00  0.00    +0.045 A 
ENDROOT
BRANCH   1   8
ATOM      8  O   UNL     1      10.545   0.711  25.261  0.00  0.00    -0.507 OA
ATOM      9  H   UNL     1      10.386  -0.204  25.548  0.00  0.00    +0.292 HD
ENDBRANCH   1   8
TORSDOF 1
ENDMDL
MODEL 9
REMARK VINA RESULT:      -3.7      2.678      3.427
REMARK  Name = 
REMARK  1 active torsions:
REMARK  status: ('A' for Active; 'I' for Inactive)
REMARK    1  A    between atoms: O_1  and  C_2
REMARK                            x       y       z     vdW  Elec       q    Type
REMARK                         _______ _______ _______ _____ _____    ______ ____
ROOT
ATOM      1  C   UNL     1       9.576  -0.461  25.074  0.00  0.00    +0.118 A 
ATOM      2  C   UNL     1       9.755   0.672  24.287  0.00  0.00    +0.065 A 
ATOM      3  C   UNL     1       9.967   0.522  22.919  0.00  0.00    +0.044 A 
ATOM      4 CL   UNL     1      10.194   1.912  21.930  0.00  0.00    -0.083 Cl
ATOM      5  C   UNL     1       9.997  -0.748  22.342  0.00  0.00    +0.020 A 
ATOM      6  C   UNL     1       9.813  -1.878  23.140  0.00  0.00    +0.005 A 
ATOM      7  C   UNL     1       9.601  -1.736  24.513  0.00  0.00    +0.045 A 
ENDROOT
BRANCH   1   8
ATOM      8  O   UNL     1       9.376  -0.278  26.410  0.00  0.00    -0.507 OA
ATOM      9  H   UNL     1       8.522   0.167  26.542  0.00  0.00    +0.292 HD
ENDBRANCH   1   8
TORSDOF 1
ENDMDL
