MODEL 1
REMARK VINA RESULT:      -8.0      0.000      0.000
REMARK  Name = 
REMARK  10 active torsions:
REMARK  status: ('A' for Active; 'I' for Inactive)
REMARK    1  A    between atoms: C_4  and  C_5
REMARK    2  A    between atoms: C_4  and  C_6
REMARK    3  A    between atoms: CA_7  and  C_38
REMARK    4  A    between atoms: CA_12  and  N_14
REMARK    5  A    between atoms: C_15  and  CA_17
REMARK    6  A    between atoms: CA_17  and  N_19
REMARK    7  A    between atoms: CA_17  and  C_32
REMARK    8  A    between atoms: N_25  and  S_28
REMARK    9  A    between atoms: S_28  and  C_29
REMARK   10  A    between atoms: C_38  and  O_39
REMARK                            x       y       z     vdW  Elec       q    Type
REMARK                         _______ _______ _______ _____ _____    ______ ____
ROOT
ATOM      1  CA  UNL     1       8.444  -3.250  24.146  0.00  0.00    +0.191 C 
ENDROOT
BRANCH   1   2
ATOM      2  N   UNL     1       8.389  -1.805  23.964  0.00  0.00    -0.284 N 
ATOM      3  H   UNL     1       7.626  -1.282  24.383  0.00  0.00    +0.151 HD
ATOM      4  C   UNL     1       9.381  -1.118  23.325  0.00  0.00    +0.311 C 
ATOM      5  N   UNL     1       9.187   0.241  23.202  0.00  0.00    -0.207 N 
ATOM      6  C   UNL     1       8.416   1.047  24.025  0.00  0.00    +0.331 C 
ATOM      7  O   UNL     1       7.413   0.719  24.637  0.00  0.00    -0.250 OA
ATOM      8  N   UNL     1       8.977   2.335  24.004  0.00  0.00    -0.158 N 
ATOM      9  C   UNL     1      10.160   2.406  23.132  0.00  0.00    +0.155 C 
ATOM     10  C   UNL     1      10.096   1.059  22.419  0.00  0.00    +0.140 C 
ATOM     11  O   UNL     1      10.391  -1.669  22.894  0.00  0.00    -0.252 OA
BRANCH   8  12
ATOM     12  S   UNL     1       8.213   3.741  24.418  0.00  0.00    +0.046 S 
ATOM     13  O   UNL     1       7.975   3.717  25.843  0.00  0.00    -0.155 OA
ATOM     14  O   UNL     1       7.105   3.909  23.495  0.00  0.00    -0.155 OA
ATOM     15  C   UNL     1       9.403   5.010  24.035  0.00  0.00    +0.219 C 
ENDBRANCH   8  12
ENDBRANCH   1   2
BRANCH   1  16
ATOM     16  C   UNL     1       7.620  -3.997  23.104  0.00  0.00    -0.018 A 
ATOM     17  C   UNL     1       6.706  -3.344  22.258  0.00  0.00    +0.006 A 
ATOM     18  C   UNL     1       5.947  -4.068  21.338  0.00  0.00    +0.000 A 
ATOM     19  C   UNL     1       6.089  -5.451  21.247  0.00  0.00    +0.000 A 
ATOM     20  C   UNL     1       6.985  -6.114  22.081  0.00  0.00    +0.000 A 
ATOM     21  C   UNL     1       7.743  -5.393  23.006  0.00  0.00    +0.006 A 
ENDBRANCH   1  16
BRANCH   1  24
ATOM     22  N   UNL     1       6.725  -3.636  25.919  0.00  0.00    -0.300 N 
ATOM     23  H   UNL     1       6.040  -3.555  25.174  0.00  0.00    +0.150 HD
ATOM     24  C   UNL     1       8.070  -3.587  25.610  0.00  0.00    +0.239 C 
ATOM     25  O   UNL     1       8.916  -3.681  26.502  0.00  0.00    -0.273 OA
BRANCH  22  27
ATOM     26  C   UNL     1       4.755  -4.022  27.560  0.00  0.00    +0.165 C 
ATOM     27  CA  UNL     1       6.277  -3.839  27.321  0.00  0.00    +0.190 C 
ATOM     28  C   UNL     1       6.387  -5.273  27.884  0.00  0.00    +0.240 C 
ATOM     29  O   UNL     1       7.207  -6.164  27.870  0.00  0.00    -0.273 OA
ATOM     30  N   UNL     1       5.071  -5.293  28.254  0.00  0.00    -0.271 N 
ATOM     31  CA  UNL     1       4.230  -6.457  27.903  0.00  0.00    +0.201 C 
ATOM     32  C   UNL     1       3.841  -6.309  26.411  0.00  0.00    +0.042 C 
ATOM     33  C   UNL     1       4.946  -6.830  25.469  0.00  0.00    +0.025 C 
ATOM     34  C   UNL     1       2.539  -7.003  25.994  0.00  0.00    +0.025 C 
ATOM     35  S   UNL     1       3.704  -4.488  26.124  0.00  0.00    -0.127 S 
BRANCH  31  36
ATOM     36  C   UNL     1       3.057  -6.506  28.902  0.00  0.00    +0.327 C 
ATOM     37  OXT UNL     1       2.337  -5.563  29.185  0.00  0.00    -0.249 OA
BRANCH  36  38
ATOM     38  O   UNL     1       2.817  -7.749  29.397  0.00  0.00    -0.479 OA
ATOM     39  H   UNL     1       2.312  -7.689  30.235  0.00  0.00    +0.295 HD
ENDBRANCH  36  38
ENDBRANCH  31  36
ENDBRANCH  22  27
ENDBRANCH   1  24
TORSDOF 7
ENDMDL
MODEL 2
REMARK VINA RESULT:      -7.3      3.200      5.551
REMARK  Name = 
REMARK  10 active torsions:
REMARK  status: ('A' for Active; 'I' for Inactive)
REMARK    1  A    between atoms: C_4  and  C_5
REMARK    2  A    between atoms: C_4  and  C_6
REMARK    3  A    between atoms: CA_7  and  C_38
REMARK    4  A    between atoms: CA_12  and  N_14
REMARK    5  A    between atoms: C_15  and  CA_17
REMARK    6  A    between atoms: CA_17  and  N_19
REMARK    7  A    between atoms: CA_17  and  C_32
REMARK    8  A    between atoms: N_25  and  S_28
REMARK    9  A    between atoms: S_28  and  C_29
REMARK   10  A    between atoms: C_38  and  O_39
REMARK                            x       y       z     vdW  Elec       q    Type
REMARK                         _______ _______ _______ _____ _____    ______ ____
ROOT
ATOM      1  CA  UNL     1       8.901  -0.911  24.862  0.00  0.00    +0.191 C 
ENDROOT
BRANCH   1   2
ATOM      2  N   UNL     1       7.619  -0.541  25.447  0.00  0.00    -0.284 N 
ATOM      3  H   UNL     1       6.795  -0.512  24.855  0.00  0.00    +0.151 HD
ATOM      4  C   UNL     1       7.472  -0.321  26.787  0.00  0.00    +0.311 C 
ATOM      5  N   UNL     1       6.209   0.048  27.199  0.00  0.00    -0.207 N 
ATOM      6  C   UNL     1       5.011  -0.243  26.565  0.00  0.00    +0.331 C 
ATOM      7  O   UNL     1       4.836  -0.389  25.366  0.00  0.00    -0.250 OA
ATOM      8  N   UNL     1       4.013  -0.306  27.551  0.00  0.00    -0.158 N 
ATOM      9  C   UNL     1       4.550  -0.041  28.896  0.00  0.00    +0.155 C 
ATOM     10  C   UNL     1       5.958   0.449  28.571  0.00  0.00    +0.140 C 
ATOM     11  O   UNL     1       8.399  -0.450  27.581  0.00  0.00    -0.252 OA
BRANCH   8  12
ATOM     12  S   UNL     1       2.385  -0.159  27.305  0.00  0.00    +0.046 S 
ATOM     13  O   UNL     1       1.901  -1.410  26.767  0.00  0.00    -0.155 OA
ATOM     14  O   UNL     1       2.176   1.079  26.578  0.00  0.00    -0.155 OA
ATOM     15  C   UNL     1       1.720   0.081  28.940  0.00  0.00    +0.219 C 
ENDBRANCH   8  12
ENDBRANCH   1   2
BRANCH   1  16
ATOM     16  C   UNL     1       9.453   0.172  23.942  0.00  0.00    -0.018 A 
ATOM     17  C   UNL     1      10.229   1.241  24.421  0.00  0.00    +0.006 A 
ATOM     18  C   UNL     1      10.690   2.231  23.552  0.00  0.00    +0.000 A 
ATOM     19  C   UNL     1      10.384   2.167  22.195  0.00  0.00    +0.000 A 
ATOM     20  C   UNL     1       9.612   1.118  21.704  0.00  0.00    +0.000 A 
ATOM     21  C   UNL     1       9.145   0.129  22.572  0.00  0.00    +0.006 A 
ENDBRANCH   1  16
BRANCH   1  24
ATOM     22  N   UNL     1       7.487  -2.778  23.988  0.00  0.00    -0.300 N 
ATOM     23  H   UNL     1       6.695  -2.173  24.178  0.00  0.00    +0.150 HD
ATOM     24  C   UNL     1       8.767  -2.302  24.195  0.00  0.00    +0.239 C 
ATOM     25  O   UNL     1       9.742  -3.023  23.970  0.00  0.00    -0.273 OA
BRANCH  22  27
ATOM     26  C   UNL     1       6.755  -5.219  24.458  0.00  0.00    +0.165 C 
ATOM     27  CA  UNL     1       7.266  -4.148  23.459  0.00  0.00    +0.190 C 
ATOM     28  C   UNL     1       5.928  -4.404  22.732  0.00  0.00    +0.240 C 
ATOM     29  O   UNL     1       5.247  -3.827  21.913  0.00  0.00    -0.273 OA
ATOM     30  N   UNL     1       5.630  -5.474  23.528  0.00  0.00    -0.271 N 
ATOM     31  CA  UNL     1       4.288  -5.581  24.139  0.00  0.00    +0.201 C 
ATOM     32  C   UNL     1       4.261  -4.625  25.358  0.00  0.00    +0.042 C 
ATOM     33  C   UNL     1       3.953  -3.170  24.948  0.00  0.00    +0.025 C 
ATOM     34  C   UNL     1       3.268  -4.994  26.466  0.00  0.00    +0.025 C 
ATOM     35  S   UNL     1       5.984  -4.644  26.025  0.00  0.00    -0.127 S 
BRANCH  31  36
ATOM     36  C   UNL     1       4.029  -7.069  24.445  0.00  0.00    +0.327 C 
ATOM     37  OXT UNL     1       4.469  -7.674  25.409  0.00  0.00    -0.249 OA
BRANCH  36  38
ATOM     38  O   UNL     1       3.167  -7.660  23.575  0.00  0.00    -0.479 OA
ATOM     39  H   UNL     1       3.511  -7.596  22.660  0.00  0.00    +0.295 HD
ENDBRANCH  36  38
ENDBRANCH  31  36
ENDBRANCH  22  27
ENDBRANCH   1  24
TORSDOF 7
ENDMDL
MODEL 3
REMARK VINA RESULT:      -6.9      2.495      9.086
REMARK  Name = 
REMARK  10 active torsions:
REMARK  status: ('A' for Active; 'I' for Inactive)
REMARK    1  A    between atoms: C_4  and  C_5
REMARK    2  A    between atoms: C_4  and  C_6
REMARK    3  A    between atoms: CA_7  and  C_38
REMARK    4  A    between atoms: CA_12  and  N_14
REMARK    5  A    between atoms: C_15  and  CA_17
REMARK    6  A    between atoms: CA_17  and  N_19
REMARK    7  A    between atoms: CA_17  and  C_32
REMARK    8  A    between atoms: N_25  and  S_28
REMARK    9  A    between atoms: S_28  and  C_29
REMARK   10  A    between atoms: C_38  and  O_39
REMARK                            x       y       z     vdW  Elec       q    Type
REMARK                         _______ _______ _______ _____ _____    ______ ____
ROOT
ATOM      1  CA  UNL     1       6.430  -1.882  23.922  0.00  0.00    +0.191 C 
ENDROOT
BRANCH   1   2
ATOM      2  N   UNL     1       6.290  -3.005  24.840  0.00  0.00    -0.284 N 
ATOM      3  H   UNL     1       6.784  -2.983  25.727  0.00  0.00    +0.151 HD
ATOM      4  C   UNL     1       5.442  -4.045  24.588  0.00  0.00    +0.311 C 
ATOM      5  N   UNL     1       5.429  -5.051  25.530  0.00  0.00    -0.207 N 
ATOM      6  C   UNL     1       5.757  -4.935  26.872  0.00  0.00    +0.331 C 
ATOM      7  O   UNL     1       6.562  -4.161  27.362  0.00  0.00    -0.250 OA
ATOM      8  N   UNL     1       5.019  -5.902  27.574  0.00  0.00    -0.158 N 
ATOM      9  C   UNL     1       4.169  -6.704  26.679  0.00  0.00    +0.155 C 
ATOM     10  C   UNL     1       4.681  -6.275  25.307  0.00  0.00    +0.140 C 
ATOM     11  O   UNL     1       4.726  -4.083  23.591  0.00  0.00    -0.252 OA
BRANCH   8  12
ATOM     12  S   UNL     1       5.365  -6.494  29.078  0.00  0.00    +0.046 S 
ATOM     13  O   UNL     1       5.838  -5.397  29.891  0.00  0.00    -0.155 OA
ATOM     14  O   UNL     1       6.189  -7.674  28.890  0.00  0.00    -0.155 OA
ATOM     15  C   UNL     1       3.791  -7.054  29.696  0.00  0.00    +0.219 C 
ENDBRANCH   8  12
ENDBRANCH   1   2
BRANCH   1  16
ATOM     16  C   UNL     1       7.853  -1.737  23.396  0.00  0.00    -0.018 A 
ATOM     17  C   UNL     1       8.153  -1.019  22.225  0.00  0.00    +0.006 A 
ATOM     18  C   UNL     1       9.466  -0.936  21.759  0.00  0.00    +0.000 A 
ATOM     19  C   UNL     1      10.496  -1.567  22.452  0.00  0.00    +0.000 A 
ATOM     20  C   UNL     1      10.216  -2.287  23.610  0.00  0.00    +0.000 A 
ATOM     21  C   UNL     1       8.903  -2.376  24.077  0.00  0.00    +0.006 A 
ENDBRANCH   1  16
BRANCH   1  24
ATOM     22  N   UNL     1       5.918   0.564  23.866  0.00  0.00    -0.300 N 
ATOM     23  H   UNL     1       6.214   0.531  22.896  0.00  0.00    +0.150 HD
ATOM     24  C   UNL     1       5.871  -0.607  24.597  0.00  0.00    +0.239 C 
ATOM     25  O   UNL     1       5.516  -0.587  25.778  0.00  0.00    -0.273 OA
BRANCH  22  27
ATOM     26  C   UNL     1       6.591   2.638  25.267  0.00  0.00    +0.165 C 
ATOM     27  CA  UNL     1       5.510   1.855  24.476  0.00  0.00    +0.190 C 
ATOM     28  C   UNL     1       5.506   3.090  23.550  0.00  0.00    +0.240 C 
ATOM     29  O   UNL     1       5.137   3.346  22.425  0.00  0.00    -0.273 OA
ATOM     30  N   UNL     1       6.306   3.804  24.398  0.00  0.00    -0.271 N 
ATOM     31  CA  UNL     1       7.483   4.523  23.862  0.00  0.00    +0.201 C 
ATOM     32  C   UNL     1       8.599   3.472  23.638  0.00  0.00    +0.042 C 
ATOM     33  C   UNL     1       8.443   2.735  22.292  0.00  0.00    +0.025 C 
ATOM     34  C   UNL     1      10.034   4.011  23.685  0.00  0.00    +0.025 C 
ATOM     35  S   UNL     1       8.356   2.216  24.972  0.00  0.00    -0.127 S 
BRANCH  31  36
ATOM     36  C   UNL     1       7.819   5.665  24.840  0.00  0.00    +0.327 C 
ATOM     37  OXT UNL     1       8.023   5.528  26.035  0.00  0.00    -0.249 OA
BRANCH  36  38
ATOM     38  O   UNL     1       7.967   6.873  24.233  0.00  0.00    -0.479 OA
ATOM     39  H   UNL     1       8.882   7.203  24.354  0.00  0.00    +0.295 HD
ENDBRANCH  36  38
ENDBRANCH  31  36
ENDBRANCH  22  27
ENDBRANCH   1  24
TORSDOF 7
ENDMDL
MODEL 4
REMARK VINA RESULT:      -6.9      3.546      7.258
REMARK  Name = 
REMARK  10 active torsions:
REMARK  status: ('A' for Active; 'I' for Inactive)
REMARK    1  A    between atoms: C_4  and  C_5
REMARK    2  A    between atoms: C_4  and  C_6
REMARK    3  A    between atoms: CA_7  and  C_38
REMARK    4  A    between atoms: CA_12  and  N_14
REMARK    5  A    between atoms: C_15  and  CA_17
REMARK    6  A    between atoms: CA_17  and  N_19
REMARK    7  A    between atoms: CA_17  and  C_32
REMARK    8  A    between atoms: N_25  and  S_28
REMARK    9  A    between atoms: S_28  and  C_29
REMARK   10  A    between atoms: C_38  and  O_39
REMARK                            x       y       z     vdW  Elec       q    Type
REMARK                         _______ _______ _______ _____ _____    ______ ____
ROOT
ATOM      1  CA  UNL     1       9.292   2.691  24.096  0.00  0.00    +0.191 C 
ENDROOT
BRANCH   1   2
ATOM      2  N   UNL     1       7.906   3.091  23.893  0.00  0.00    -0.284 N 
ATOM      3  H   UNL     1       7.624   3.462  22.991  0.00  0.00    +0.151 HD
ATOM      4  C   UNL     1       6.950   2.896  24.849  0.00  0.00    +0.311 C 
ATOM      5  N   UNL     1       5.685   3.345  24.533  0.00  0.00    -0.207 N 
ATOM      6  C   UNL     1       5.154   3.503  23.262  0.00  0.00    +0.331 C 
ATOM      7  O   UNL     1       5.766   3.782  22.245  0.00  0.00    -0.250 OA
ATOM      8  N   UNL     1       3.764   3.318  23.358  0.00  0.00    -0.158 N 
ATOM      9  C   UNL     1       3.340   3.034  24.738  0.00  0.00    +0.155 C 
ATOM     10  C   UNL     1       4.618   3.327  25.517  0.00  0.00    +0.140 C 
ATOM     11  O   UNL     1       7.192   2.347  25.921  0.00  0.00    -0.252 OA
BRANCH   8  12
ATOM     12  S   UNL     1       2.633   3.839  22.272  0.00  0.00    +0.046 S 
ATOM     13  O   UNL     1       2.702   2.983  21.109  0.00  0.00    -0.155 OA
ATOM     14  O   UNL     1       2.807   5.274  22.134  0.00  0.00    -0.155 OA
ATOM     15  C   UNL     1       1.081   3.582  23.107  0.00  0.00    +0.219 C 
ENDBRANCH   8  12
ENDBRANCH   1   2
BRANCH   1  16
ATOM     16  C   UNL     1      10.268   3.832  23.833  0.00  0.00    -0.018 A 
ATOM     17  C   UNL     1      11.574   3.612  23.360  0.00  0.00    +0.006 A 
ATOM     18  C   UNL     1      12.448   4.681  23.162  0.00  0.00    +0.000 A 
ATOM     19  C   UNL     1      12.034   5.983  23.431  0.00  0.00    +0.000 A 
ATOM     20  C   UNL     1      10.746   6.219  23.905  0.00  0.00    +0.000 A 
ATOM     21  C   UNL     1       9.870   5.151  24.109  0.00  0.00    +0.006 A 
ENDBRANCH   1  16
BRANCH   1  24
ATOM     22  N   UNL     1       9.560   0.211  23.947  0.00  0.00    -0.300 N 
ATOM     23  H   UNL     1       9.271   0.192  24.920  0.00  0.00    +0.150 HD
ATOM     24  C   UNL     1       9.574   1.413  23.269  0.00  0.00    +0.239 C 
ATOM     25  O   UNL     1       9.924   1.456  22.087  0.00  0.00    -0.273 OA
BRANCH  22  27
ATOM     26  C   UNL     1       9.753  -2.372  24.051  0.00  0.00    +0.165 C 
ATOM     27  CA  UNL     1       9.932  -1.051  23.258  0.00  0.00    +0.190 C 
ATOM     28  C   UNL     1       8.880  -1.656  22.303  0.00  0.00    +0.240 C 
ATOM     29  O   UNL     1       8.129  -1.246  21.446  0.00  0.00    -0.273 OA
ATOM     30  N   UNL     1       8.919  -2.870  22.932  0.00  0.00    -0.271 N 
ATOM     31  CA  UNL     1       7.655  -3.541  23.306  0.00  0.00    +0.201 C 
ATOM     32  C   UNL     1       7.134  -2.854  24.593  0.00  0.00    +0.042 C 
ATOM     33  C   UNL     1       6.349  -1.562  24.284  0.00  0.00    +0.025 C 
ATOM     34  C   UNL     1       6.234  -3.717  25.485  0.00  0.00    +0.025 C 
ATOM     35  S   UNL     1       8.650  -2.354  25.523  0.00  0.00    -0.127 S 
BRANCH  31  36
ATOM     36  C   UNL     1       7.943  -5.051  23.418  0.00  0.00    +0.327 C 
ATOM     37  OXT UNL     1       8.815  -5.549  24.110  0.00  0.00    -0.249 OA
BRANCH  36  38
ATOM     38  O   UNL     1       7.060  -5.825  22.732  0.00  0.00    -0.479 OA
ATOM     39  H   UNL     1       7.459  -6.697  22.531  0.00  0.00    +0.295 HD
ENDBRANCH  36  38
ENDBRANCH  31  36
ENDBRANCH  22  27
ENDBRANCH   1  24
TORSDOF 7
ENDMDL
MODEL 5
REMARK VINA RESULT:      -6.9      3.304      7.334
REMARK  Name = 
REMARK  10 active torsions:
REMARK  status: ('A' for Active; 'I' for Inactive)
REMARK    1  A    between atoms: C_4  and  C_5
REMARK    2  A    between atoms: C_4  and  C_6
REMARK    3  A    between atoms: CA_7  and  C_38
REMARK    4  A    between atoms: CA_12  and  N_14
REMARK    5  A    between atoms: C_15  and  CA_17
REMARK    6  A    between atoms: CA_17  and  N_19
REMARK    7  A    between atoms: CA_17  and  C_32
REMARK    8  A    between atoms: N_25  and  S_28
REMARK    9  A    between atoms: S_28  and  C_29
REMARK   10  A    between atoms: C_38  and  O_39
REMARK                            x       y       z     vdW  Elec       q    Type
REMARK                         _______ _______ _______ _____ _____    ______ ____
ROOT
ATOM      1  CA  UNL     1       8.395   2.947  25.094  0.00  0.00    +0.191 C 
ENDROOT
BRANCH   1   2
ATOM      2  N   UNL     1       7.124   2.423  25.577  0.00  0.00    -0.284 N 
ATOM      3  H   UNL     1       6.565   1.837  24.965  0.00  0.00    +0.151 HD
ATOM      4  C   UNL     1       6.703   2.619  26.861  0.00  0.00    +0.311 C 
ATOM      5  N   UNL     1       5.469   2.090  27.176  0.00  0.00    -0.207 N 
ATOM      6  C   UNL     1       4.847   1.014  26.561  0.00  0.00    +0.331 C 
ATOM      7  O   UNL     1       4.962   0.672  25.396  0.00  0.00    -0.250 OA
ATOM      8  N   UNL     1       4.021   0.398  27.517  0.00  0.00    -0.158 N 
ATOM      9  C   UNL     1       4.079   1.084  28.818  0.00  0.00    +0.155 C 
ATOM     10  C   UNL     1       4.847   2.353  28.461  0.00  0.00    +0.140 C 
ATOM     11  O   UNL     1       7.379   3.219  27.692  0.00  0.00    -0.252 OA
BRANCH   8  12
ATOM     12  S   UNL     1       2.744  -0.603  27.205  0.00  0.00    +0.046 S 
ATOM     13  O   UNL     1       3.234  -1.728  26.442  0.00  0.00    -0.155 OA
ATOM     14  O   UNL     1       1.674   0.226  26.680  0.00  0.00    -0.155 OA
ATOM     15  C   UNL     1       2.226  -1.158  28.816  0.00  0.00    +0.219 C 
ENDBRANCH   8  12
ENDBRANCH   1   2
BRANCH   1  16
ATOM     16  C   UNL     1       8.212   4.115  24.132  0.00  0.00    -0.018 A 
ATOM     17  C   UNL     1       7.273   4.089  23.087  0.00  0.00    +0.006 A 
ATOM     18  C   UNL     1       7.157   5.166  22.207  0.00  0.00    +0.000 A 
ATOM     19  C   UNL     1       7.975   6.284  22.359  0.00  0.00    +0.000 A 
ATOM     20  C   UNL     1       8.914   6.325  23.386  0.00  0.00    +0.000 A 
ATOM     21  C   UNL     1       9.036   5.246  24.264  0.00  0.00    +0.006 A 
ENDBRANCH   1  16
BRANCH   1  24
ATOM     22  N   UNL     1       8.771   0.500  24.752  0.00  0.00    -0.300 N 
ATOM     23  H   UNL     1       7.864   0.371  25.189  0.00  0.00    +0.150 HD
ATOM     24  C   UNL     1       9.235   1.780  24.520  0.00  0.00    +0.239 C 
ATOM     25  O   UNL     1      10.335   1.956  23.992  0.00  0.00    -0.273 OA
BRANCH  22  27
ATOM     26  C   UNL     1       9.210  -2.044  24.984  0.00  0.00    +0.165 C 
ATOM     27  CA  UNL     1       9.571  -0.681  24.338  0.00  0.00    +0.190 C 
ATOM     28  C   UNL     1       9.163  -1.368  23.017  0.00  0.00    +0.240 C 
ATOM     29  O   UNL     1       8.849  -1.016  21.901  0.00  0.00    -0.273 OA
ATOM     30  N   UNL     1       9.056  -2.592  23.616  0.00  0.00    -0.271 N 
ATOM     31  CA  UNL     1       7.856  -3.423  23.375  0.00  0.00    +0.201 C 
ATOM     32  C   UNL     1       6.719  -2.853  24.260  0.00  0.00    +0.042 C 
ATOM     33  C   UNL     1       6.014  -1.652  23.597  0.00  0.00    +0.025 C 
ATOM     34  C   UNL     1       5.623  -3.851  24.651  0.00  0.00    +0.025 C 
ATOM     35  S   UNL     1       7.559  -2.216  25.777  0.00  0.00    -0.127 S 
BRANCH  31  36
ATOM     36  C   UNL     1       8.243  -4.891  23.638  0.00  0.00    +0.327 C 
ATOM     37  OXT UNL     1       8.944  -5.278  24.558  0.00  0.00    -0.249 OA
BRANCH  36  38
ATOM     38  O   UNL     1       7.647  -5.770  22.788  0.00  0.00    -0.479 OA
ATOM     39  H   UNL     1       6.964  -5.314  22.253  0.00  0.00    +0.295 HD
ENDBRANCH  36  38
ENDBRANCH  31  36
ENDBRANCH  22  27
ENDBRANCH   1  24
TORSDOF 7
ENDMDL
MODEL 6
REMARK VINA RESULT:      -6.6      3.672      5.587
REMARK  Name = 
REMARK  10 active torsions:
REMARK  status: ('A' for Active; 'I' for Inactive)
REMARK    1  A    between atoms: C_4  and  C_5
REMARK    2  A    between atoms: C_4  and  C_6
REMARK    3  A    between atoms: CA_7  and  C_38
REMARK    4  A    between atoms: CA_12  and  N_14
REMARK    5  A    between atoms: C_15  and  CA_17
REMARK    6  A    between atoms: CA_17  and  N_19
REMARK    7  A    between atoms: CA_17  and  C_32
REMARK    8  A    between atoms: N_25  and  S_28
REMARK    9  A    between atoms: S_28  and  C_29
REMARK   10  A    between atoms: C_38  and  O_39
REMARK                            x       y       z     vdW  Elec       q    Type
REMARK                         _______ _______ _______ _____ _____    ______ ____
ROOT
ATOM      1  CA  UNL     1       8.152   0.597  25.597  0.00  0.00    +0.191 C 
ENDROOT
BRANCH   1   2
ATOM      2  N   UNL     1       6.760   0.947  25.849  0.00  0.00    -0.284 N 
ATOM      3  H   UNL     1       6.034   0.268  25.641  0.00  0.00    +0.151 HD
ATOM      4  C   UNL     1       6.406   2.123  26.446  0.00  0.00    +0.311 C 
ATOM      5  N   UNL     1       5.053   2.335  26.601  0.00  0.00    -0.207 N 
ATOM      6  C   UNL     1       4.067   1.364  26.694  0.00  0.00    +0.331 C 
ATOM      7  O   UNL     1       4.077   0.261  26.173  0.00  0.00    -0.250 OA
ATOM      8  N   UNL     1       3.023   1.893  27.472  0.00  0.00    -0.158 N 
ATOM      9  C   UNL     1       3.308   3.268  27.914  0.00  0.00    +0.155 C 
ATOM     10  C   UNL     1       4.545   3.605  27.087  0.00  0.00    +0.140 C 
ATOM     11  O   UNL     1       7.237   2.942  26.831  0.00  0.00    -0.252 OA
BRANCH   8  12
ATOM     12  S   UNL     1       1.460   1.358  27.503  0.00  0.00    +0.046 S 
ATOM     13  O   UNL     1       1.067   1.050  26.147  0.00  0.00    -0.155 OA
ATOM     14  O   UNL     1       0.700   2.316  28.285  0.00  0.00    -0.155 OA
ATOM     15  C   UNL     1       1.535  -0.145  28.455  0.00  0.00    +0.219 C 
ENDBRANCH   8  12
ENDBRANCH   1   2
BRANCH   1  16
ATOM     16  C   UNL     1       8.569   0.884  24.159  0.00  0.00    -0.018 A 
ATOM     17  C   UNL     1       9.917   1.003  23.777  0.00  0.00    +0.006 A 
ATOM     18  C   UNL     1      10.258   1.299  22.456  0.00  0.00    +0.000 A 
ATOM     19  C   UNL     1       9.262   1.479  21.500  0.00  0.00    +0.000 A 
ATOM     20  C   UNL     1       7.922   1.370  21.862  0.00  0.00    +0.000 A 
ATOM     21  C   UNL     1       7.577   1.079  23.184  0.00  0.00    +0.006 A 
ENDBRANCH   1  16
BRANCH   1  24
ATOM     22  N   UNL     1       7.881  -1.862  25.242  0.00  0.00    -0.300 N 
ATOM     23  H   UNL     1       7.463  -1.616  24.350  0.00  0.00    +0.150 HD
ATOM     24  C   UNL     1       8.394  -0.864  26.047  0.00  0.00    +0.239 C 
ATOM     25  O   UNL     1       8.903  -1.144  27.134  0.00  0.00    -0.273 OA
BRANCH  22  27
ATOM     26  C   UNL     1       6.653  -3.969  26.121  0.00  0.00    +0.165 C 
ATOM     27  CA  UNL     1       7.966  -3.286  25.655  0.00  0.00    +0.190 C 
ATOM     28  C   UNL     1       7.938  -4.339  24.526  0.00  0.00    +0.240 C 
ATOM     29  O   UNL     1       8.453  -4.479  23.439  0.00  0.00    -0.273 OA
ATOM     30  N   UNL     1       6.898  -5.016  25.101  0.00  0.00    -0.271 N 
ATOM     31  CA  UNL     1       5.736  -5.410  24.276  0.00  0.00    +0.201 C 
ATOM     32  C   UNL     1       4.856  -4.148  24.091  0.00  0.00    +0.042 C 
ATOM     33  C   UNL     1       5.361  -3.251  22.942  0.00  0.00    +0.025 C 
ATOM     34  C   UNL     1       3.369  -4.411  23.828  0.00  0.00    +0.025 C 
ATOM     35  S   UNL     1       5.057  -3.184  25.655  0.00  0.00    -0.127 S 
BRANCH  31  36
ATOM     36  C   UNL     1       5.057  -6.609  24.965  0.00  0.00    +0.327 C 
ATOM     37  OXT UNL     1       4.926  -6.743  26.171  0.00  0.00    -0.249 OA
BRANCH  36  38
ATOM     38  O   UNL     1       4.511  -7.498  24.094  0.00  0.00    -0.479 OA
ATOM     39  H   UNL     1       5.160  -8.200  23.874  0.00  0.00    +0.295 HD
ENDBRANCH  36  38
ENDBRANCH  31  36
ENDBRANCH  22  27
ENDBRANCH   1  24
TORSDOF 7
ENDMDL
MODEL 7
REMARK VINA RESULT:      -6.5      3.120      4.697
REMARK  Name = 
REMARK  10 active torsions:
REMARK  status: ('A' for Active; 'I' for Inactive)
REMARK    1  A    between atoms: C_4  and  C_5
REMARK    2  A    between atoms: C_4  and  C_6
REMARK    3  A    between atoms: CA_7  and  C_38
REMARK    4  A    between atoms: CA_12  and  N_14
REMARK    5  A    between atoms: C_15  and  CA_17
REMARK    6  A    between atoms: CA_17  and  N_19
REMARK    7  A    between atoms: CA_17  and  C_32
REMARK    8  A    between atoms: N_25  and  S_28
REMARK    9  A    between atoms: S_28  and  C_29
REMARK   10  A    between atoms: C_38  and  O_39
REMARK                            x       y       z     vdW  Elec       q    Type
REMARK                         _______ _______ _______ _____ _____    ______ ____
ROOT
ATOM      1  CA  UNL     1       7.349   0.460  24.977  0.00  0.00    +0.191 C 
ENDROOT
BRANCH   1   2
ATOM      2  N   UNL     1       6.854   1.744  24.497  0.00  0.00    -0.284 N 
ATOM      3  H   UNL     1       6.384   1.788  23.598  0.00  0.00    +0.151 HD
ATOM      4  C   UNL     1       6.919   2.875  25.260  0.00  0.00    +0.311 C 
ATOM      5  N   UNL     1       6.437   4.024  24.671  0.00  0.00    -0.207 N 
ATOM      6  C   UNL     1       5.487   4.105  23.665  0.00  0.00    +0.331 C 
ATOM      7  O   UNL     1       5.283   3.285  22.786  0.00  0.00    -0.250 OA
ATOM      8  N   UNL     1       4.815   5.331  23.814  0.00  0.00    -0.158 N 
ATOM      9  C   UNL     1       5.332   6.107  24.952  0.00  0.00    +0.155 C 
ATOM     10  C   UNL     1       6.582   5.315  25.320  0.00  0.00    +0.140 C 
ATOM     11  O   UNL     1       7.369   2.873  26.403  0.00  0.00    -0.252 OA
BRANCH   8  12
ATOM     12  S   UNL     1       3.945   6.115  22.648  0.00  0.00    +0.046 S 
ATOM     13  O   UNL     1       3.227   5.122  21.883  0.00  0.00    -0.155 OA
ATOM     14  O   UNL     1       4.855   7.032  21.985  0.00  0.00    -0.155 OA
ATOM     15  C   UNL     1       2.787   7.108  23.568  0.00  0.00    +0.219 C 
ENDBRANCH   8  12
ENDBRANCH   1   2
BRANCH   1  16
ATOM     16  C   UNL     1       8.304  -0.199  23.989  0.00  0.00    -0.018 A 
ATOM     17  C   UNL     1       8.183  -0.030  22.599  0.00  0.00    +0.006 A 
ATOM     18  C   UNL     1       9.059  -0.675  21.725  0.00  0.00    +0.000 A 
ATOM     19  C   UNL     1      10.067  -1.496  22.225  0.00  0.00    +0.000 A 
ATOM     20  C   UNL     1      10.198  -1.679  23.598  0.00  0.00    +0.000 A 
ATOM     21  C   UNL     1       9.321  -1.038  24.476  0.00  0.00    +0.006 A 
ENDBRANCH   1  16
BRANCH   1  24
ATOM     22  N   UNL     1       6.416  -1.729  25.742  0.00  0.00    -0.300 N 
ATOM     23  H   UNL     1       7.381  -2.029  25.833  0.00  0.00    +0.150 HD
ATOM     24  C   UNL     1       6.144  -0.425  25.379  0.00  0.00    +0.239 C 
ATOM     25  O   UNL     1       4.977  -0.044  25.262  0.00  0.00    -0.273 OA
BRANCH  22  27
ATOM     26  C   UNL     1       4.561  -3.286  24.818  0.00  0.00    +0.165 C 
ATOM     27  CA  UNL     1       5.313  -2.680  26.032  0.00  0.00    +0.190 C 
ATOM     28  C   UNL     1       5.715  -4.143  26.323  0.00  0.00    +0.240 C 
ATOM     29  O   UNL     1       6.562  -4.709  26.978  0.00  0.00    -0.273 OA
ATOM     30  N   UNL     1       4.873  -4.629  25.362  0.00  0.00    -0.271 N 
ATOM     31  CA  UNL     1       5.371  -5.629  24.392  0.00  0.00    +0.201 C 
ATOM     32  C   UNL     1       6.198  -4.863  23.328  0.00  0.00    +0.042 C 
ATOM     33  C   UNL     1       7.645  -4.604  23.794  0.00  0.00    +0.025 C 
ATOM     34  C   UNL     1       6.288  -5.534  21.953  0.00  0.00    +0.025 C 
ATOM     35  S   UNL     1       5.378  -3.215  23.171  0.00  0.00    -0.127 S 
BRANCH  31  36
ATOM     36  C   UNL     1       4.155  -6.413  23.862  0.00  0.00    +0.327 C 
ATOM     37  OXT UNL     1       3.175  -5.915  23.333  0.00  0.00    -0.249 OA
BRANCH  36  38
ATOM     38  O   UNL     1       4.299  -7.762  23.951  0.00  0.00    -0.479 OA
ATOM     39  H   UNL     1       5.130  -7.984  24.420  0.00  0.00    +0.295 HD
ENDBRANCH  36  38
ENDBRANCH  31  36
ENDBRANCH  22  27
ENDBRANCH   1  24
TORSDOF 7
ENDMDL
MODEL 8
REMARK VINA RESULT:      -6.4      3.322      8.324
REMARK  Name = 
REMARK  10 active torsions:
REMARK  status: ('A' for Active; 'I' for Inactive)
REMARK    1  A    between atoms: C_4  and  C_5
REMARK    2  A    between atoms: C_4  and  C_6
REMARK    3  A    between atoms: CA_7  and  C_38
REMARK    4  A    between atoms: CA_12  and  N_14
REMARK    5  A    between atoms: C_15  and  CA_17
REMARK    6  A    between atoms: CA_17  and  N_19
REMARK    7  A    between atoms: CA_17  and  C_32
REMARK    8  A    between atoms: N_25  and  S_28
REMARK    9  A    between atoms: S_28  and  C_29
REMARK   10  A    between atoms: C_38  and  O_39
REMARK                            x       y       z     vdW  Elec       q    Type
REMARK                         _______ _______ _______ _____ _____    ______ ____
ROOT
ATOM      1  CA  UNL     1       4.905  -1.214  27.800  0.00  0.00    +0.191 C 
ENDROOT
BRANCH   1   2
ATOM      2  N   UNL     1       5.106  -2.163  26.712  0.00  0.00    -0.284 N 
ATOM      3  H   UNL     1       4.400  -2.239  25.986  0.00  0.00    +0.151 HD
ATOM      4  C   UNL     1       6.257  -2.887  26.587  0.00  0.00    +0.311 C 
ATOM      5  N   UNL     1       6.301  -3.765  25.525  0.00  0.00    -0.207 N 
ATOM      6  C   UNL     1       5.593  -3.667  24.337  0.00  0.00    +0.331 C 
ATOM      7  O   UNL     1       4.493  -3.163  24.183  0.00  0.00    -0.250 OA
ATOM      8  N   UNL     1       6.356  -4.290  23.336  0.00  0.00    -0.158 N 
ATOM      9  C   UNL     1       7.617  -4.835  23.863  0.00  0.00    +0.155 C 
ATOM     10  C   UNL     1       7.406  -4.693  25.367  0.00  0.00    +0.140 C 
ATOM     11  O   UNL     1       7.201  -2.762  27.362  0.00  0.00    -0.252 OA
BRANCH   8  12
ATOM     12  S   UNL     1       5.794  -4.854  21.888  0.00  0.00    +0.046 S 
ATOM     13  O   UNL     1       5.656  -3.727  20.993  0.00  0.00    -0.155 OA
ATOM     14  O   UNL     1       4.652  -5.702  22.177  0.00  0.00    -0.155 OA
ATOM     15  C   UNL     1       7.096  -5.919  21.303  0.00  0.00    +0.219 C 
ENDBRANCH   8  12
ENDBRANCH   1   2
BRANCH   1  16
ATOM     16  C   UNL     1       3.429  -0.998  28.115  0.00  0.00    -0.018 A 
ATOM     17  C   UNL     1       2.998  -0.335  29.277  0.00  0.00    +0.006 A 
ATOM     18  C   UNL     1       1.636  -0.185  29.546  0.00  0.00    +0.000 A 
ATOM     19  C   UNL     1       0.688  -0.693  28.661  0.00  0.00    +0.000 A 
ATOM     20  C   UNL     1       1.098  -1.358  27.508  0.00  0.00    +0.000 A 
ATOM     21  C   UNL     1       2.459  -1.514  27.239  0.00  0.00    +0.006 A 
ENDBRANCH   1  16
BRANCH   1  24
ATOM     22  N   UNL     1       5.752   0.469  26.158  0.00  0.00    -0.300 N 
ATOM     23  H   UNL     1       5.218  -0.043  25.464  0.00  0.00    +0.150 HD
ATOM     24  C   UNL     1       5.682   0.086  27.483  0.00  0.00    +0.239 C 
ATOM     25  O   UNL     1       6.326   0.695  28.340  0.00  0.00    -0.273 OA
BRANCH  22  27
ATOM     26  C   UNL     1       8.071   1.382  25.444  0.00  0.00    +0.165 C 
ATOM     27  CA  UNL     1       6.572   1.639  25.751  0.00  0.00    +0.190 C 
ATOM     28  C   UNL     1       6.493   2.058  24.267  0.00  0.00    +0.240 C 
ATOM     29  O   UNL     1       5.623   2.203  23.437  0.00  0.00    -0.273 OA
ATOM     30  N   UNL     1       7.852   2.006  24.118  0.00  0.00    -0.271 N 
ATOM     31  CA  UNL     1       8.433   1.297  22.957  0.00  0.00    +0.201 C 
ATOM     32  C   UNL     1       8.375  -0.220  23.270  0.00  0.00    +0.042 C 
ATOM     33  C   UNL     1       6.996  -0.828  22.943  0.00  0.00    +0.025 C 
ATOM     34  C   UNL     1       9.422  -1.083  22.556  0.00  0.00    +0.025 C 
ATOM     35  S   UNL     1       8.600  -0.346  25.100  0.00  0.00    -0.127 S 
BRANCH  31  36
ATOM     36  C   UNL     1       9.838   1.879  22.709  0.00  0.00    +0.327 C 
ATOM     37  OXT UNL     1      10.702   2.014  23.559  0.00  0.00    -0.249 OA
BRANCH  36  38
ATOM     38  O   UNL     1      10.085   2.162  21.402  0.00  0.00    -0.479 OA
ATOM     39  H   UNL     1      10.798   2.831  21.328  0.00  0.00    +0.295 HD
ENDBRANCH  36  38
ENDBRANCH  31  36
ENDBRANCH  22  27
ENDBRANCH   1  24
TORSDOF 7
ENDMDL
MODEL 9
REMARK VINA RESULT:      -6.3      4.141      8.689
REMARK  Name = 
REMARK  10 active torsions:
REMARK  status: ('A' for Active; 'I' for Inactive)
REMARK    1  A    between atoms: C_4  and  C_5
REMARK    2  A    between atoms: C_4  and  C_6
REMARK    3  A    between atoms: CA_7  and  C_38
REMARK    4  A    between atoms: CA_12  and  N_14
REMARK    5  A    between atoms: C_15  and  CA_17
REMARK    6  A    between atoms: CA_17  and  N_19
REMARK    7  A    between atoms: CA_17  and  C_32
REMARK    8  A    between atoms: N_25  and  S_28
REMARK    9  A    between atoms: S_28  and  C_29
REMARK   10  A    between atoms: C_38  and  O_39
REMARK                            x       y       z     vdW  Elec       q    Type
REMARK                         _______ _______ _______ _____ _____    ______ ____
ROOT
ATOM      1  CA  UNL     1       9.239   4.401  23.188  0.00  0.00    +0.191 C 
ENDROOT
BRANCH   1   2
ATOM      2  N   UNL     1       9.252   3.054  23.745  0.00  0.00    -0.284 N 
ATOM      3  H   UNL     1       8.787   2.881  24.631  0.00  0.00    +0.151 HD
ATOM      4  C   UNL     1       9.789   1.997  23.069  0.00  0.00    +0.311 C 
ATOM      5  N   UNL     1       9.755   0.785  23.725  0.00  0.00    -0.207 N 
ATOM      6  C   UNL     1       8.856   0.398  24.707  0.00  0.00    +0.331 C 
ATOM      7  O   UNL     1       8.304   1.123  25.518  0.00  0.00    -0.250 OA
ATOM      8  N   UNL     1       8.716  -0.998  24.628  0.00  0.00    -0.158 N 
ATOM      9  C   UNL     1       9.553  -1.576  23.565  0.00  0.00    +0.155 C 
ATOM     10  C   UNL     1      10.420  -0.383  23.176  0.00  0.00    +0.140 C 
ATOM     11  O   UNL     1      10.265   2.108  21.942  0.00  0.00    -0.252 OA
BRANCH   8  12
ATOM     12  S   UNL     1       8.153  -1.992  25.822  0.00  0.00    +0.046 S 
ATOM     13  O   UNL     1       8.727  -1.556  27.074  0.00  0.00    -0.155 OA
ATOM     14  O   UNL     1       8.347  -3.356  25.364  0.00  0.00    -0.155 OA
ATOM     15  C   UNL     1       6.397  -1.696  25.839  0.00  0.00    +0.219 C 
ENDBRANCH   8  12
ENDBRANCH   1   2
BRANCH   1  16
ATOM     16  C   UNL     1      10.123   5.362  23.975  0.00  0.00    -0.018 A 
ATOM     17  C   UNL     1      11.491   5.524  23.698  0.00  0.00    +0.006 A 
ATOM     18  C   UNL     1      12.274   6.390  24.463  0.00  0.00    +0.000 A 
ATOM     19  C   UNL     1      11.703   7.106  25.512  0.00  0.00    +0.000 A 
ATOM     20  C   UNL     1      10.351   6.954  25.804  0.00  0.00    +0.000 A 
ATOM     21  C   UNL     1       9.566   6.084  25.044  0.00  0.00    +0.006 A 
ENDBRANCH   1  16
BRANCH   1  24
ATOM     22  N   UNL     1       6.829   4.250  23.833  0.00  0.00    -0.300 N 
ATOM     23  H   UNL     1       7.135   3.598  24.548  0.00  0.00    +0.150 HD
ATOM     24  C   UNL     1       7.772   4.869  23.036  0.00  0.00    +0.239 C 
ATOM     25  O   UNL     1       7.420   5.662  22.160  0.00  0.00    -0.273 OA
BRANCH  22  27
ATOM     26  C   UNL     1       4.388   3.380  23.855  0.00  0.00    +0.165 C 
ATOM     27  CA  UNL     1       5.385   4.555  23.672  0.00  0.00    +0.190 C 
ATOM     28  C   UNL     1       4.663   5.161  24.895  0.00  0.00    +0.240 C 
ATOM     29  O   UNL     1       4.895   6.018  25.719  0.00  0.00    -0.273 OA
ATOM     30  N   UNL     1       3.692   4.199  24.876  0.00  0.00    -0.271 N 
ATOM     31  CA  UNL     1       3.323   3.506  26.129  0.00  0.00    +0.201 C 
ATOM     32  C   UNL     1       4.417   2.444  26.405  0.00  0.00    +0.042 C 
ATOM     33  C   UNL     1       5.650   3.049  27.109  0.00  0.00    +0.025 C 
ATOM     34  C   UNL     1       3.973   1.240  27.244  0.00  0.00    +0.025 C 
ATOM     35  S   UNL     1       4.973   1.877  24.737  0.00  0.00    -0.127 S 
BRANCH  31  36
ATOM     36  C   UNL     1       1.889   2.968  25.962  0.00  0.00    +0.327 C 
ATOM     37  OXT UNL     1       1.492   2.313  25.012  0.00  0.00    -0.249 OA
BRANCH  36  38
ATOM     38  O   UNL     1       1.091   3.208  27.036  0.00  0.00    -0.479 OA
ATOM     39  H   UNL     1       1.469   3.926  27.586  0.00  0.00    +0.295 HD
ENDBRANCH  36  38
ENDBRANCH  31  36
ENDBRANCH  22  27
ENDBRANCH   1  24
TORSDOF 7
ENDMDL
