MODEL 1
REMARK VINA RESULT:      -5.7      0.000      0.000
REMARK  Name = 
REMARK  15 active torsions:
REMARK  status: ('A' for Active; 'I' for Inactive)
REMARK    1  A    between atoms: C_1  and  C_2
REMARK    2  A    between atoms: C_2  and  N_4
REMARK    3  A    between atoms: C_2  and  C_5
REMARK    4  A    between atoms: C_5  and  C_7
REMARK    5  A    between atoms: C_5  and  N_15
REMARK    6  A    between atoms: C_7  and  C_8
REMARK    7  A    between atoms: C_8  and  C_9
REMARK    8  A    between atoms: C_9  and  C_10
REMARK    9  A    between atoms: C_10  and  C_11
REMARK   10  A    between atoms: C_11  and  C_12
REMARK   11  A    between atoms: C_12  and  O_13
REMARK   12  A    between atoms: C_16  and  O_18
REMARK   13  A    between atoms: O_18  and  P_19
REMARK   14  A    between atoms: P_19  and  O_20
REMARK   15  A    between atoms: P_19  and  O_21
REMARK                            x       y       z     vdW  Elec       q    Type
REMARK                         _______ _______ _______ _____ _____    ______ ____
ROOT
ATOM      1  C   UNL     1       8.945  -0.117  24.368  0.00  0.00    +0.093 C 
ENDROOT
BRANCH   1   2
ATOM      2  N   UNL     1       9.263  -1.529  24.522  0.00  0.00    -0.277 N 
ATOM      3  H   UNL     1       9.112  -1.964  25.421  0.00  0.00    +0.152 HD
ATOM      4  C   UNL     1       9.914  -2.258  23.582  0.00  0.00    +0.408 C 
ATOM      5  O   UNL     1      10.199  -1.904  22.449  0.00  0.00    -0.226 OA
BRANCH   4   6
ATOM      6  O   UNL     1      10.236  -3.441  24.103  0.00  0.00    -0.356 OA
BRANCH   6   7
ATOM      7  P   UNL     1       9.169  -4.278  24.945  0.00  0.00    +0.531 P 
ATOM      8  O   UNL     1       8.869  -3.774  26.317  0.00  0.00    -0.215 OA
BRANCH   7   9
ATOM      9  O   UNL     1       9.660  -5.789  24.831  0.00  0.00    -0.293 OA
ATOM     10  H   UNL     1       9.104  -6.376  25.383  0.00  0.00    +0.223 HD
ENDBRANCH   7   9
BRANCH   7  11
ATOM     11  O   UNL     1       7.929  -4.234  23.934  0.00  0.00    -0.293 OA
ATOM     12  H   UNL     1       7.871  -5.045  23.400  0.00  0.00    +0.223 HD
ENDBRANCH   7  11
ENDBRANCH   6   7
ENDBRANCH   4   6
ENDBRANCH   1   2
BRANCH   1  14
ATOM     13  C   UNL     1       6.562   0.820  24.277  0.00  0.00    +0.025 C 
ATOM     14  C   UNL     1       7.646   0.210  25.163  0.00  0.00    +0.068 C 
BRANCH  14  15
ATOM     15  N   UNL     1       7.907   1.099  26.308  0.00  0.00    -0.326 NA
ATOM     16  H   UNL     1       7.079   1.137  26.902  0.00  0.00    +0.119 HD
ATOM     17  H   UNL     1       8.642   0.689  26.882  0.00  0.00    +0.119 HD
ENDBRANCH  14  15
ENDBRANCH   1  14
BRANCH   1  18
ATOM     18  C   UNL     1      10.166   0.727  24.791  0.00  0.00    +0.024 C 
BRANCH  18  19
ATOM     19  C   UNL     1      10.602   1.730  23.711  0.00  0.00    +0.002 C 
BRANCH  19  20
ATOM     20  C   UNL     1       9.664   2.939  23.674  0.00  0.00    +0.001 C 
BRANCH  20  21
ATOM     21  C   UNL     1      10.436   4.257  23.769  0.00  0.00    +0.011 C 
BRANCH  21  22
ATOM     22  C   UNL     1      11.841   4.110  23.189  0.00  0.00    +0.120 C 
BRANCH  22  23
ATOM     23  C   UNL     1      12.749   5.249  23.581  0.00  0.00    +0.305 C 
ATOM     24  O   UNL     1      12.367   6.253  24.162  0.00  0.00    -0.251 OA
BRANCH  23  25
ATOM     25  O   UNL     1      14.031   5.084  23.190  0.00  0.00    -0.481 OA
ATOM     26  H   UNL     1      14.481   4.323  23.604  0.00  0.00    +0.295 HD
ENDBRANCH  23  25
ENDBRANCH  22  23
ENDBRANCH  21  22
ENDBRANCH  20  21
ENDBRANCH  19  20
ENDBRANCH  18  19
ENDBRANCH   1  18
TORSDOF 14
ENDMDL
MODEL 2
REMARK VINA RESULT:      -5.6      3.264      4.732
REMARK  Name = 
REMARK  15 active torsions:
REMARK  status: ('A' for Active; 'I' for Inactive)
REMARK    1  A    between atoms: C_1  and  C_2
REMARK    2  A    between atoms: C_2  and  N_4
REMARK    3  A    between atoms: C_2  and  C_5
REMARK    4  A    between atoms: C_5  and  C_7
REMARK    5  A    between atoms: C_5  and  N_15
REMARK    6  A    between atoms: C_7  and  C_8
REMARK    7  A    between atoms: C_8  and  C_9
REMARK    8  A    between atoms: C_9  and  C_10
REMARK    9  A    between atoms: C_10  and  C_11
REMARK   10  A    between atoms: C_11  and  C_12
REMARK   11  A    between atoms: C_12  and  O_13
REMARK   12  A    between atoms: C_16  and  O_18
REMARK   13  A    between atoms: O_18  and  P_19
REMARK   14  A    between atoms: P_19  and  O_20
REMARK   15  A    between atoms: P_19  and  O_21
REMARK                            x       y       z     vdW  Elec       q    Type
REMARK                         _______ _______ _______ _____ _____    ______ ____
ROOT
ATOM      1  C   UNL     1       7.253  -3.849  23.009  0.00  0.00    +0.093 C 
ENDROOT
BRANCH   1   2
ATOM      2  N   UNL     1       7.497  -4.690  24.173  0.00  0.00    -0.277 N 
ATOM      3  H   UNL     1       6.713  -5.163  24.601  0.00  0.00    +0.152 HD
ATOM      4  C   UNL     1       8.683  -4.740  24.826  0.00  0.00    +0.408 C 
ATOM      5  O   UNL     1       9.734  -4.224  24.478  0.00  0.00    -0.226 OA
BRANCH   4   6
ATOM      6  O   UNL     1       8.523  -5.428  25.955  0.00  0.00    -0.356 OA
BRANCH   6   7
ATOM      7  P   UNL     1       7.112  -5.449  26.702  0.00  0.00    +0.531 P 
ATOM      8  O   UNL     1       6.016  -6.196  26.021  0.00  0.00    -0.215 OA
BRANCH   7   9
ATOM      9  O   UNL     1       6.822  -3.925  27.061  0.00  0.00    -0.293 OA
ATOM     10  H   UNL     1       7.188  -3.700  27.941  0.00  0.00    +0.223 HD
ENDBRANCH   7   9
BRANCH   7  11
ATOM     11  O   UNL     1       7.560  -6.063  28.111  0.00  0.00    -0.293 OA
ATOM     12  H   UNL     1       7.014  -5.723  28.842  0.00  0.00    +0.223 HD
ENDBRANCH   7  11
ENDBRANCH   6   7
ENDBRANCH   4   6
ENDBRANCH   1   2
BRANCH   1  14
ATOM     13  C   UNL     1       6.857  -5.752  21.338  0.00  0.00    +0.025 C 
ATOM     14  C   UNL     1       6.238  -4.558  22.063  0.00  0.00    +0.068 C 
BRANCH  14  15
ATOM     15  N   UNL     1       5.658  -3.629  21.079  0.00  0.00    -0.326 NA
ATOM     16  H   UNL     1       6.407  -3.188  20.547  0.00  0.00    +0.119 HD
ATOM     17  H   UNL     1       5.113  -4.163  20.403  0.00  0.00    +0.119 HD
ENDBRANCH  14  15
ENDBRANCH   1  14
BRANCH   1  18
ATOM     18  C   UNL     1       6.799  -2.451  23.479  0.00  0.00    +0.024 C 
BRANCH  18  19
ATOM     19  C   UNL     1       7.834  -1.355  23.181  0.00  0.00    +0.002 C 
BRANCH  19  20
ATOM     20  C   UNL     1       8.757  -1.769  22.032  0.00  0.00    +0.001 C 
BRANCH  20  21
ATOM     21  C   UNL     1       9.677  -0.622  21.606  0.00  0.00    +0.011 C 
BRANCH  21  22
ATOM     22  C   UNL     1      10.088   0.224  22.808  0.00  0.00    +0.120 C 
BRANCH  22  23
ATOM     23  C   UNL     1      10.100   1.700  22.497  0.00  0.00    +0.305 C 
ATOM     24  O   UNL     1      10.529   2.551  23.261  0.00  0.00    -0.251 OA
BRANCH  23  25
ATOM     25  O   UNL     1       9.549   2.011  21.304  0.00  0.00    -0.481 OA
ATOM     26  H   UNL     1       9.441   2.968  21.150  0.00  0.00    +0.295 HD
ENDBRANCH  23  25
ENDBRANCH  22  23
ENDBRANCH  21  22
ENDBRANCH  20  21
ENDBRANCH  19  20
ENDBRANCH  18  19
ENDBRANCH   1  18
TORSDOF 14
ENDMDL
MODEL 3
REMARK VINA RESULT:      -5.6      2.940      3.725
REMARK  Name = 
REMARK  15 active torsions:
REMARK  status: ('A' for Active; 'I' for Inactive)
REMARK    1  A    between atoms: C_1  and  C_2
REMARK    2  A    between atoms: C_2  and  N_4
REMARK    3  A    between atoms: C_2  and  C_5
REMARK    4  A    between atoms: C_5  and  C_7
REMARK    5  A    between atoms: C_5  and  N_15
REMARK    6  A    between atoms: C_7  and  C_8
REMARK    7  A    between atoms: C_8  and  C_9
REMARK    8  A    between atoms: C_9  and  C_10
REMARK    9  A    between atoms: C_10  and  C_11
REMARK   10  A    between atoms: C_11  and  C_12
REMARK   11  A    between atoms: C_12  and  O_13
REMARK   12  A    between atoms: C_16  and  O_18
REMARK   13  A    between atoms: O_18  and  P_19
REMARK   14  A    between atoms: P_19  and  O_20
REMARK   15  A    between atoms: P_19  and  O_21
REMARK                            x       y       z     vdW  Elec       q    Type
REMARK                         _______ _______ _______ _____ _____    ______ ____
ROOT
ATOM      1  C   UNL     1       9.391  -2.332  23.900  0.00  0.00    +0.093 C 
ENDROOT
BRANCH   1   2
ATOM      2  N   UNL     1       8.473  -3.434  24.153  0.00  0.00    -0.277 N 
ATOM      3  H   UNL     1       7.481  -3.268  24.065  0.00  0.00    +0.152 HD
ATOM      4  C   UNL     1       8.858  -4.626  24.671  0.00  0.00    +0.408 C 
ATOM      5  O   UNL     1      10.002  -5.005  24.867  0.00  0.00    -0.226 OA
BRANCH   4   6
ATOM      6  O   UNL     1       7.771  -5.333  24.975  0.00  0.00    -0.356 OA
BRANCH   6   7
ATOM      7  P   UNL     1       7.075  -5.181  26.404  0.00  0.00    +0.531 P 
ATOM      8  O   UNL     1       6.517  -3.836  26.727  0.00  0.00    -0.215 OA
BRANCH   7   9
ATOM      9  O   UNL     1       8.130  -5.782  27.434  0.00  0.00    -0.293 OA
ATOM     10  H   UNL     1       8.302  -5.152  28.163  0.00  0.00    +0.223 HD
ENDBRANCH   7   9
BRANCH   7  11
ATOM     11  O   UNL     1       5.983  -6.347  26.299  0.00  0.00    -0.293 OA
ATOM     12  H   UNL     1       5.106  -5.999  26.063  0.00  0.00    +0.223 HD
ENDBRANCH   7  11
ENDBRANCH   6   7
ENDBRANCH   4   6
ENDBRANCH   1   2
BRANCH   1  14
ATOM     13  C   UNL     1       7.554  -2.025  22.140  0.00  0.00    +0.025 C 
ATOM     14  C   UNL     1       8.896  -1.520  22.666  0.00  0.00    +0.068 C 
BRANCH  14  15
ATOM     15  N   UNL     1       9.885  -1.514  21.575  0.00  0.00    -0.326 NA
ATOM     16  H   UNL     1       9.402  -1.431  20.681  0.00  0.00    +0.119 HD
ATOM     17  H   UNL     1      10.462  -0.678  21.658  0.00  0.00    +0.119 HD
ENDBRANCH  14  15
ENDBRANCH   1  14
BRANCH   1  18
ATOM     18  C   UNL     1       9.539  -1.490  25.185  0.00  0.00    +0.024 C 
BRANCH  18  19
ATOM     19  C   UNL     1       9.341   0.015  24.940  0.00  0.00    +0.002 C 
BRANCH  19  20
ATOM     20  C   UNL     1      10.684   0.715  24.717  0.00  0.00    +0.001 C 
BRANCH  20  21
ATOM     21  C   UNL     1      10.534   1.956  23.835  0.00  0.00    +0.011 C 
BRANCH  21  22
ATOM     22  C   UNL     1       9.062   2.261  23.566  0.00  0.00    +0.120 C 
BRANCH  22  23
ATOM     23  C   UNL     1       8.709   2.155  22.103  0.00  0.00    +0.305 C 
ATOM     24  O   UNL     1       7.588   2.353  21.660  0.00  0.00    -0.251 OA
BRANCH  23  25
ATOM     25  O   UNL     1       9.740   1.774  21.319  0.00  0.00    -0.481 OA
ATOM     26  H   UNL     1       9.475   1.445  20.439  0.00  0.00    +0.295 HD
ENDBRANCH  23  25
ENDBRANCH  22  23
ENDBRANCH  21  22
ENDBRANCH  20  21
ENDBRANCH  19  20
ENDBRANCH  18  19
ENDBRANCH   1  18
TORSDOF 14
ENDMDL
MODEL 4
REMARK VINA RESULT:      -5.5      2.565      3.122
REMARK  Name = 
REMARK  15 active torsions:
REMARK  status: ('A' for Active; 'I' for Inactive)
REMARK    1  A    between atoms: C_1  and  C_2
REMARK    2  A    between atoms: C_2  and  N_4
REMARK    3  A    between atoms: C_2  and  C_5
REMARK    4  A    between atoms: C_5  and  C_7
REMARK    5  A    between atoms: C_5  and  N_15
REMARK    6  A    between atoms: C_7  and  C_8
REMARK    7  A    between atoms: C_8  and  C_9
REMARK    8  A    between atoms: C_9  and  C_10
REMARK    9  A    between atoms: C_10  and  C_11
REMARK   10  A    between atoms: C_11  and  C_12
REMARK   11  A    between atoms: C_12  and  O_13
REMARK   12  A    between atoms: C_16  and  O_18
REMARK   13  A    between atoms: O_18  and  P_19
REMARK   14  A    between atoms: P_19  and  O_20
REMARK   15  A    between atoms: P_19  and  O_21
REMARK                            x       y       z     vdW  Elec       q    Type
REMARK                         _______ _______ _______ _____ _____    ______ ____
ROOT
ATOM      1  C   UNL     1       8.544  -0.666  24.297  0.00  0.00    +0.093 C 
ENDROOT
BRANCH   1   2
ATOM      2  N   UNL     1       8.978  -2.014  24.636  0.00  0.00    -0.277 N 
ATOM      3  H   UNL     1       8.803  -2.359  25.569  0.00  0.00    +0.152 HD
ATOM      4  C   UNL     1       9.759  -2.775  23.830  0.00  0.00    +0.408 C 
ATOM      5  O   UNL     1      10.092  -2.524  22.683  0.00  0.00    -0.226 OA
BRANCH   4   6
ATOM      6  O   UNL     1      10.150  -3.854  24.507  0.00  0.00    -0.356 OA
BRANCH   6   7
ATOM      7  P   UNL     1       9.110  -4.682  25.391  0.00  0.00    +0.531 P 
ATOM      8  O   UNL     1       8.682  -4.048  26.672  0.00  0.00    -0.215 OA
BRANCH   7   9
ATOM      9  O   UNL     1       9.738  -6.142  25.492  0.00  0.00    -0.293 OA
ATOM     10  H   UNL     1       9.146  -6.804  25.080  0.00  0.00    +0.223 HD
ENDBRANCH   7   9
BRANCH   7  11
ATOM     11  O   UNL     1       7.937  -4.877  24.321  0.00  0.00    -0.293 OA
ATOM     12  H   UNL     1       7.454  -4.049  24.160  0.00  0.00    +0.223 HD
ENDBRANCH   7  11
ENDBRANCH   6   7
ENDBRANCH   4   6
ENDBRANCH   1   2
BRANCH   1  14
ATOM     13  C   UNL     1       6.411  -1.614  25.355  0.00  0.00    +0.025 C 
ATOM     14  C   UNL     1       6.990  -0.586  24.385  0.00  0.00    +0.068 C 
BRANCH  14  15
ATOM     15  N   UNL     1       6.352  -0.736  23.067  0.00  0.00    -0.326 NA
ATOM     16  H   UNL     1       6.724  -0.033  22.428  0.00  0.00    +0.119 HD
ATOM     17  H   UNL     1       6.619  -1.638  22.673  0.00  0.00    +0.119 HD
ENDBRANCH  14  15
ENDBRANCH   1  14
BRANCH   1  18
ATOM     18  C   UNL     1       9.275   0.346  25.203  0.00  0.00    +0.024 C 
BRANCH  18  19
ATOM     19  C   UNL     1      10.503   0.976  24.528  0.00  0.00    +0.002 C 
BRANCH  19  20
ATOM     20  C   UNL     1      10.453   0.786  23.010  0.00  0.00    +0.001 C 
BRANCH  20  21
ATOM     21  C   UNL     1       9.929   2.037  22.301  0.00  0.00    +0.011 C 
BRANCH  21  22
ATOM     22  C   UNL     1       8.608   1.751  21.592  0.00  0.00    +0.120 C 
BRANCH  22  23
ATOM     23  C   UNL     1       7.500   2.670  22.043  0.00  0.00    +0.305 C 
ATOM     24  O   UNL     1       6.365   2.292  22.292  0.00  0.00    -0.251 OA
BRANCH  23  25
ATOM     25  O   UNL     1       7.861   3.969  22.110  0.00  0.00    -0.481 OA
ATOM     26  H   UNL     1       8.590   4.214  21.510  0.00  0.00    +0.295 HD
ENDBRANCH  23  25
ENDBRANCH  22  23
ENDBRANCH  21  22
ENDBRANCH  20  21
ENDBRANCH  19  20
ENDBRANCH  18  19
ENDBRANCH   1  18
TORSDOF 14
ENDMDL
MODEL 5
REMARK VINA RESULT:      -5.5      3.830      5.290
REMARK  Name = 
REMARK  15 active torsions:
REMARK  status: ('A' for Active; 'I' for Inactive)
REMARK    1  A    between atoms: C_1  and  C_2
REMARK    2  A    between atoms: C_2  and  N_4
REMARK    3  A    between atoms: C_2  and  C_5
REMARK    4  A    between atoms: C_5  and  C_7
REMARK    5  A    between atoms: C_5  and  N_15
REMARK    6  A    between atoms: C_7  and  C_8
REMARK    7  A    between atoms: C_8  and  C_9
REMARK    8  A    between atoms: C_9  and  C_10
REMARK    9  A    between atoms: C_10  and  C_11
REMARK   10  A    between atoms: C_11  and  C_12
REMARK   11  A    between atoms: C_12  and  O_13
REMARK   12  A    between atoms: C_16  and  O_18
REMARK   13  A    between atoms: O_18  and  P_19
REMARK   14  A    between atoms: P_19  and  O_20
REMARK   15  A    between atoms: P_19  and  O_21
REMARK                            x       y       z     vdW  Elec       q    Type
REMARK                         _______ _______ _______ _____ _____    ______ ____
ROOT
ATOM      1  C   UNL     1       7.409  -3.548  26.273  0.00  0.00    +0.093 C 
ENDROOT
BRANCH   1   2
ATOM      2  N   UNL     1       6.933  -3.822  24.925  0.00  0.00    -0.277 N 
ATOM      3  H   UNL     1       7.241  -3.223  24.172  0.00  0.00    +0.152 HD
ATOM      4  C   UNL     1       5.962  -4.724  24.641  0.00  0.00    +0.408 C 
ATOM      5  O   UNL     1       5.453  -5.521  25.414  0.00  0.00    -0.226 OA
BRANCH   4   6
ATOM      6  O   UNL     1       5.610  -4.588  23.364  0.00  0.00    -0.356 OA
BRANCH   6   7
ATOM      7  P   UNL     1       6.718  -4.492  22.219  0.00  0.00    +0.531 P 
ATOM      8  O   UNL     1       7.524  -3.238  22.184  0.00  0.00    -0.215 OA
BRANCH   7   9
ATOM      9  O   UNL     1       5.951  -4.884  20.879  0.00  0.00    -0.293 OA
ATOM     10  H   UNL     1       5.977  -5.852  20.735  0.00  0.00    +0.223 HD
ENDBRANCH   7   9
BRANCH   7  11
ATOM     11  O   UNL     1       7.559  -5.815  22.542  0.00  0.00    -0.293 OA
ATOM     12  H   UNL     1       7.230  -6.582  22.042  0.00  0.00    +0.223 HD
ENDBRANCH   7  11
ENDBRANCH   6   7
ENDBRANCH   4   6
ENDBRANCH   1   2
BRANCH   1  14
ATOM     13  C   UNL     1       9.474  -4.770  25.374  0.00  0.00    +0.025 C 
ATOM     14  C   UNL     1       8.606  -4.490  26.599  0.00  0.00    +0.068 C 
BRANCH  14  15
ATOM     15  N   UNL     1       8.163  -5.763  27.193  0.00  0.00    -0.326 NA
ATOM     16  H   UNL     1       8.213  -5.698  28.209  0.00  0.00    +0.119 HD
ATOM     17  H   UNL     1       7.178  -5.904  26.972  0.00  0.00    +0.119 HD
ENDBRANCH  14  15
ENDBRANCH   1  14
BRANCH   1  18
ATOM     18  C   UNL     1       7.742  -2.047  26.400  0.00  0.00    +0.024 C 
BRANCH  18  19
ATOM     19  C   UNL     1       7.405  -1.250  25.130  0.00  0.00    +0.002 C 
BRANCH  19  20
ATOM     20  C   UNL     1       8.511  -0.243  24.804  0.00  0.00    +0.001 C 
BRANCH  20  21
ATOM     21  C   UNL     1       9.792  -0.941  24.341  0.00  0.00    +0.011 C 
BRANCH  21  22
ATOM     22  C   UNL     1      10.465  -0.159  23.216  0.00  0.00    +0.120 C 
BRANCH  22  23
ATOM     23  C   UNL     1       9.817  -0.403  21.876  0.00  0.00    +0.305 C 
ATOM     24  O   UNL     1       9.225   0.456  21.241  0.00  0.00    -0.251 OA
BRANCH  23  25
ATOM     25  O   UNL     1       9.911  -1.681  21.450  0.00  0.00    -0.481 OA
ATOM     26  H   UNL     1      10.122  -2.324  22.153  0.00  0.00    +0.295 HD
ENDBRANCH  23  25
ENDBRANCH  22  23
ENDBRANCH  21  22
ENDBRANCH  20  21
ENDBRANCH  19  20
ENDBRANCH  18  19
ENDBRANCH   1  18
TORSDOF 14
ENDMDL
MODEL 6
REMARK VINA RESULT:      -5.4      3.454      4.974
REMARK  Name = 
REMARK  15 active torsions:
REMARK  status: ('A' for Active; 'I' for Inactive)
REMARK    1  A    between atoms: C_1  and  C_2
REMARK    2  A    between atoms: C_2  and  N_4
REMARK    3  A    between atoms: C_2  and  C_5
REMARK    4  A    between atoms: C_5  and  C_7
REMARK    5  A    between atoms: C_5  and  N_15
REMARK    6  A    between atoms: C_7  and  C_8
REMARK    7  A    between atoms: C_8  and  C_9
REMARK    8  A    between atoms: C_9  and  C_10
REMARK    9  A    between atoms: C_10  and  C_11
REMARK   10  A    between atoms: C_11  and  C_12
REMARK   11  A    between atoms: C_12  and  O_13
REMARK   12  A    between atoms: C_16  and  O_18
REMARK   13  A    between atoms: O_18  and  P_19
REMARK   14  A    between atoms: P_19  and  O_20
REMARK   15  A    between atoms: P_19  and  O_21
REMARK                            x       y       z     vdW  Elec       q    Type
REMARK                         _______ _______ _______ _____ _____    ______ ____
ROOT
ATOM      1  C   UNL     1       7.475  -3.620  25.866  0.00  0.00    +0.093 C 
ENDROOT
BRANCH   1   2
ATOM      2  N   UNL     1       7.272  -3.947  24.461  0.00  0.00    -0.277 N 
ATOM      3  H   UNL     1       8.077  -3.985  23.852  0.00  0.00    +0.152 HD
ATOM      4  C   UNL     1       6.050  -4.033  23.880  0.00  0.00    +0.408 C 
ATOM      5  O   UNL     1       4.967  -3.994  24.443  0.00  0.00    -0.226 OA
BRANCH   4   6
ATOM      6  O   UNL     1       6.209  -4.135  22.562  0.00  0.00    -0.356 OA
BRANCH   6   7
ATOM      7  P   UNL     1       6.209  -5.564  21.850  0.00  0.00    +0.531 P 
ATOM      8  O   UNL     1       5.956  -5.569  20.380  0.00  0.00    -0.215 OA
BRANCH   7   9
ATOM      9  O   UNL     1       5.242  -6.461  22.743  0.00  0.00    -0.293 OA
ATOM     10  H   UNL     1       5.502  -7.404  22.696  0.00  0.00    +0.223 HD
ENDBRANCH   7   9
BRANCH   7  11
ATOM     11  O   UNL     1       7.662  -6.081  22.277  0.00  0.00    -0.293 OA
ATOM     12  H   UNL     1       7.953  -5.685  23.117  0.00  0.00    +0.223 HD
ENDBRANCH   7  11
ENDBRANCH   6   7
ENDBRANCH   4   6
ENDBRANCH   1   2
BRANCH   1  14
ATOM     13  C   UNL     1       9.519  -5.079  25.354  0.00  0.00    +0.025 C 
ATOM     14  C   UNL     1       8.612  -4.514  26.445  0.00  0.00    +0.068 C 
BRANCH  14  15
ATOM     15  N   UNL     1       8.085  -5.614  27.270  0.00  0.00    -0.326 NA
ATOM     16  H   UNL     1       8.497  -6.495  26.963  0.00  0.00    +0.119 HD
ATOM     17  H   UNL     1       8.395  -5.483  28.232  0.00  0.00    +0.119 HD
ENDBRANCH  14  15
ENDBRANCH   1  14
BRANCH   1  18
ATOM     18  C   UNL     1       7.738  -2.106  26.002  0.00  0.00    +0.024 C 
BRANCH  18  19
ATOM     19  C   UNL     1       8.655  -1.556  24.897  0.00  0.00    +0.002 C 
BRANCH  19  20
ATOM     20  C   UNL     1       9.406  -0.311  25.376  0.00  0.00    +0.001 C 
BRANCH  20  21
ATOM     21  C   UNL     1      10.585   0.024  24.460  0.00  0.00    +0.011 C 
BRANCH  21  22
ATOM     22  C   UNL     1      10.321   1.309  23.678  0.00  0.00    +0.120 C 
BRANCH  22  23
ATOM     23  C   UNL     1       9.988   1.045  22.231  0.00  0.00    +0.305 C 
ATOM     24  O   UNL     1      10.008  -0.065  21.720  0.00  0.00    -0.251 OA
BRANCH  23  25
ATOM     25  O   UNL     1       9.703   2.161  21.525  0.00  0.00    -0.481 OA
ATOM     26  H   UNL     1       9.010   2.041  20.848  0.00  0.00    +0.295 HD
ENDBRANCH  23  25
ENDBRANCH  22  23
ENDBRANCH  21  22
ENDBRANCH  20  21
ENDBRANCH  19  20
ENDBRANCH  18  19
ENDBRANCH   1  18
TORSDOF 14
ENDMDL
MODEL 7
REMARK VINA RESULT:      -5.3      2.383      3.470
REMARK  Name = 
REMARK  15 active torsions:
REMARK  status: ('A' for Active; 'I' for Inactive)
REMARK    1  A    between atoms: C_1  and  C_2
REMARK    2  A    between atoms: C_2  and  N_4
REMARK    3  A    between atoms: C_2  and  C_5
REMARK    4  A    between atoms: C_5  and  C_7
REMARK    5  A    between atoms: C_5  and  N_15
REMARK    6  A    between atoms: C_7  and  C_8
REMARK    7  A    between atoms: C_8  and  C_9
REMARK    8  A    between atoms: C_9  and  C_10
REMARK    9  A    between atoms: C_10  and  C_11
REMARK   10  A    between atoms: C_11  and  C_12
REMARK   11  A    between atoms: C_12  and  O_13
REMARK   12  A    between atoms: C_16  and  O_18
REMARK   13  A    between atoms: O_18  and  P_19
REMARK   14  A    between atoms: P_19  and  O_20
REMARK   15  A    between atoms: P_19  and  O_21
REMARK                            x       y       z     vdW  Elec       q    Type
REMARK                         _______ _______ _______ _____ _____    ______ ____
ROOT
ATOM      1  C   UNL     1       8.517   3.408  23.366  0.00  0.00    +0.093 C 
ENDROOT
BRANCH   1   2
ATOM      2  N   UNL     1       8.992   2.068  23.679  0.00  0.00    -0.277 N 
ATOM      3  H   UNL     1       8.831   1.701  24.606  0.00  0.00    +0.152 HD
ATOM      4  C   UNL     1       9.791   1.344  22.857  0.00  0.00    +0.408 C 
ATOM      5  O   UNL     1      10.112   1.626  21.713  0.00  0.00    -0.226 OA
BRANCH   4   6
ATOM      6  O   UNL     1      10.216   0.265  23.512  0.00  0.00    -0.356 OA
BRANCH   6   7
ATOM      7  P   UNL     1       9.673  -1.186  23.128  0.00  0.00    +0.531 P 
ATOM      8  O   UNL     1       9.686  -2.205  24.218  0.00  0.00    -0.215 OA
BRANCH   7   9
ATOM      9  O   UNL     1      10.445  -1.566  21.788  0.00  0.00    -0.293 OA
ATOM     10  H   UNL     1      10.936  -0.793  21.440  0.00  0.00    +0.223 HD
ENDBRANCH   7   9
BRANCH   7  11
ATOM     11  O   UNL     1       8.214  -0.800  22.596  0.00  0.00    -0.293 OA
ATOM     12  H   UNL     1       7.760  -0.189  23.202  0.00  0.00    +0.223 HD
ENDBRANCH   7  11
ENDBRANCH   6   7
ENDBRANCH   4   6
ENDBRANCH   1   2
BRANCH   1  14
ATOM     13  C   UNL     1       6.364   2.066  23.721  0.00  0.00    +0.025 C 
ATOM     14  C   UNL     1       6.962   3.398  23.272  0.00  0.00    +0.068 C 
BRANCH  14  15
ATOM     15  N   UNL     1       6.488   3.722  21.916  0.00  0.00    -0.326 NA
ATOM     16  H   UNL     1       6.455   4.734  21.802  0.00  0.00    +0.119 HD
ATOM     17  H   UNL     1       7.173   3.388  21.239  0.00  0.00    +0.119 HD
ENDBRANCH  14  15
ENDBRANCH   1  14
BRANCH   1  18
ATOM     18  C   UNL     1       9.074   4.400  24.409  0.00  0.00    +0.024 C 
BRANCH  18  19
ATOM     19  C   UNL     1       9.576   5.710  23.781  0.00  0.00    +0.002 C 
BRANCH  19  20
ATOM     20  C   UNL     1      10.510   6.455  24.739  0.00  0.00    +0.001 C 
BRANCH  20  21
ATOM     21  C   UNL     1      11.982   6.210  24.398  0.00  0.00    +0.011 C 
BRANCH  21  22
ATOM     22  C   UNL     1      12.124   5.574  23.017  0.00  0.00    +0.120 C 
BRANCH  22  23
ATOM     23  C   UNL     1      13.549   5.586  22.520  0.00  0.00    +0.305 C 
ATOM     24  O   UNL     1      13.891   6.068  21.452  0.00  0.00    -0.251 OA
BRANCH  23  25
ATOM     25  O   UNL     1      14.420   4.971  23.349  0.00  0.00    -0.481 OA
ATOM     26  H   UNL     1      14.274   5.158  24.295  0.00  0.00    +0.295 HD
ENDBRANCH  23  25
ENDBRANCH  22  23
ENDBRANCH  21  22
ENDBRANCH  20  21
ENDBRANCH  19  20
ENDBRANCH  18  19
ENDBRANCH   1  18
TORSDOF 14
ENDMDL
MODEL 8
REMARK VINA RESULT:      -5.3      4.359      8.438
REMARK  Name = 
REMARK  15 active torsions:
REMARK  status: ('A' for Active; 'I' for Inactive)
REMARK    1  A    between atoms: C_1  and  C_2
REMARK    2  A    between atoms: C_2  and  N_4
REMARK    3  A    between atoms: C_2  and  C_5
REMARK    4  A    between atoms: C_5  and  C_7
REMARK    5  A    between atoms: C_5  and  N_15
REMARK    6  A    between atoms: C_7  and  C_8
REMARK    7  A    between atoms: C_8  and  C_9
REMARK    8  A    between atoms: C_9  and  C_10
REMARK    9  A    between atoms: C_10  and  C_11
REMARK   10  A    between atoms: C_11  and  C_12
REMARK   11  A    between atoms: C_12  and  O_13
REMARK   12  A    between atoms: C_16  and  O_18
REMARK   13  A    between atoms: O_18  and  P_19
REMARK   14  A    between atoms: P_19  and  O_20
REMARK   15  A    between atoms: P_19  and  O_21
REMARK                            x       y       z     vdW  Elec       q    Type
REMARK                         _______ _______ _______ _____ _____    ______ ____
ROOT
ATOM      1  C   UNL     1       8.807  -4.072  24.084  0.00  0.00    +0.093 C 
ENDROOT
BRANCH   1   2
ATOM      2  N   UNL     1       9.284  -2.770  24.526  0.00  0.00    -0.277 N 
ATOM      3  H   UNL     1       8.937  -2.397  25.398  0.00  0.00    +0.152 HD
ATOM      4  C   UNL     1      10.033  -1.945  23.754  0.00  0.00    +0.408 C 
ATOM      5  O   UNL     1      10.528  -2.205  22.668  0.00  0.00    -0.226 OA
BRANCH   4   6
ATOM      6  O   UNL     1      10.126  -0.761  24.356  0.00  0.00    -0.356 OA
BRANCH   6   7
ATOM      7  P   UNL     1       8.965  -0.245  25.322  0.00  0.00    +0.531 P 
ATOM      8  O   UNL     1       8.971  -0.788  26.711  0.00  0.00    -0.215 OA
BRANCH   7   9
ATOM      9  O   UNL     1       7.625  -0.442  24.485  0.00  0.00    -0.293 OA
ATOM     10  H   UNL     1       7.819  -0.497  23.527  0.00  0.00    +0.223 HD
ENDBRANCH   7   9
BRANCH   7  11
ATOM     11  O   UNL     1       9.210   1.334  25.224  0.00  0.00    -0.293 OA
ATOM     12  H   UNL     1       8.891   1.798  26.017  0.00  0.00    +0.223 HD
ENDBRANCH   7  11
ENDBRANCH   6   7
ENDBRANCH   4   6
ENDBRANCH   1   2
BRANCH   1  14
ATOM     13  C   UNL     1       8.416  -4.398  26.595  0.00  0.00    +0.025 C 
ATOM     14  C   UNL     1       8.827  -5.065  25.285  0.00  0.00    +0.068 C 
BRANCH  14  15
ATOM     15  N   UNL     1      10.142  -5.708  25.448  0.00  0.00    -0.326 NA
ATOM     16  H   UNL     1      10.683  -5.199  26.147  0.00  0.00    +0.119 HD
ATOM     17  H   UNL     1      10.006  -6.643  25.829  0.00  0.00    +0.119 HD
ENDBRANCH  14  15
ENDBRANCH   1  14
BRANCH   1  18
ATOM     18  C   UNL     1       7.418  -3.909  23.431  0.00  0.00    +0.024 C 
BRANCH  18  19
ATOM     19  C   UNL     1       7.178  -4.898  22.280  0.00  0.00    +0.002 C 
BRANCH  19  20
ATOM     20  C   UNL     1       6.068  -5.892  22.632  0.00  0.00    +0.001 C 
BRANCH  20  21
ATOM     21  C   UNL     1       5.423  -5.564  23.981  0.00  0.00    +0.011 C 
BRANCH  21  22
ATOM     22  C   UNL     1       4.570  -6.729  24.477  0.00  0.00    +0.120 C 
BRANCH  22  23
ATOM     23  C   UNL     1       4.677  -6.929  25.968  0.00  0.00    +0.305 C 
ATOM     24  O   UNL     1       5.675  -6.661  26.619  0.00  0.00    -0.251 OA
BRANCH  23  25
ATOM     25  O   UNL     1       3.575  -7.476  26.525  0.00  0.00    -0.481 OA
ATOM     26  H   UNL     1       3.007  -7.961  25.897  0.00  0.00    +0.295 HD
ENDBRANCH  23  25
ENDBRANCH  22  23
ENDBRANCH  21  22
ENDBRANCH  20  21
ENDBRANCH  19  20
ENDBRANCH  18  19
ENDBRANCH   1  18
TORSDOF 14
ENDMDL
MODEL 9
REMARK VINA RESULT:      -5.2      3.515      4.693
REMARK  Name = 
REMARK  15 active torsions:
REMARK  status: ('A' for Active; 'I' for Inactive)
REMARK    1  A    between atoms: C_1  and  C_2
REMARK    2  A    between atoms: C_2  and  N_4
REMARK    3  A    between atoms: C_2  and  C_5
REMARK    4  A    between atoms: C_5  and  C_7
REMARK    5  A    between atoms: C_5  and  N_15
REMARK    6  A    between atoms: C_7  and  C_8
REMARK    7  A    between atoms: C_8  and  C_9
REMARK    8  A    between atoms: C_9  and  C_10
REMARK    9  A    between atoms: C_10  and  C_11
REMARK   10  A    between atoms: C_11  and  C_12
REMARK   11  A    between atoms: C_12  and  O_13
REMARK   12  A    between atoms: C_16  and  O_18
REMARK   13  A    between atoms: O_18  and  P_19
REMARK   14  A    between atoms: P_19  and  O_20
REMARK   15  A    between atoms: P_19  and  O_21
REMARK                            x       y       z     vdW  Elec       q    Type
REMARK                         _______ _______ _______ _____ _____    ______ ____
ROOT
ATOM      1  C   UNL     1       7.136  -3.821  25.816  0.00  0.00    +0.093 C 
ENDROOT
BRANCH   1   2
ATOM      2  N   UNL     1       6.959  -4.115  24.401  0.00  0.00    -0.277 N 
ATOM      3  H   UNL     1       6.121  -3.789  23.941  0.00  0.00    +0.152 HD
ATOM      4  C   UNL     1       7.766  -4.950  23.702  0.00  0.00    +0.408 C 
ATOM      5  O   UNL     1       8.807  -5.457  24.089  0.00  0.00    -0.226 OA
BRANCH   4   6
ATOM      6  O   UNL     1       7.222  -5.171  22.507  0.00  0.00    -0.356 OA
BRANCH   6   7
ATOM      7  P   UNL     1       5.653  -5.427  22.360  0.00  0.00    +0.531 P 
ATOM      8  O   UNL     1       4.777  -4.223  22.445  0.00  0.00    -0.215 OA
BRANCH   7   9
ATOM      9  O   UNL     1       5.340  -6.611  23.379  0.00  0.00    -0.293 OA
ATOM     10  H   UNL     1       4.501  -7.058  23.144  0.00  0.00    +0.223 HD
ENDBRANCH   7   9
BRANCH   7  11
ATOM     11  O   UNL     1       5.630  -6.169  20.943  0.00  0.00    -0.293 OA
ATOM     12  H   UNL     1       4.991  -5.761  20.332  0.00  0.00    +0.223 HD
ENDBRANCH   7  11
ENDBRANCH   6   7
ENDBRANCH   4   6
ENDBRANCH   1   2
BRANCH   1  14
ATOM     13  C   UNL     1       5.893  -4.876  27.793  0.00  0.00    +0.025 C 
ATOM     14  C   UNL     1       6.876  -5.112  26.649  0.00  0.00    +0.068 C 
BRANCH  14  15
ATOM     15  N   UNL     1       8.123  -5.689  27.179  0.00  0.00    -0.326 NA
ATOM     16  H   UNL     1       7.929  -6.163  28.060  0.00  0.00    +0.119 HD
ATOM     17  H   UNL     1       8.448  -6.414  26.540  0.00  0.00    +0.119 HD
ENDBRANCH  14  15
ENDBRANCH   1  14
BRANCH   1  18
ATOM     18  C   UNL     1       8.535  -3.207  26.036  0.00  0.00    +0.024 C 
BRANCH  18  19
ATOM     19  C   UNL     1       8.548  -1.678  25.878  0.00  0.00    +0.002 C 
BRANCH  19  20
ATOM     20  C   UNL     1       9.396  -1.259  24.674  0.00  0.00    +0.001 C 
BRANCH  20  21
ATOM     21  C   UNL     1       9.776   0.222  24.739  0.00  0.00    +0.011 C 
BRANCH  21  22
ATOM     22  C   UNL     1      10.557   0.641  23.497  0.00  0.00    +0.120 C 
BRANCH  22  23
ATOM     23  C   UNL     1      10.190   2.025  23.023  0.00  0.00    +0.305 C 
ATOM     24  O   UNL     1       9.919   2.950  23.773  0.00  0.00    -0.251 OA
BRANCH  23  25
ATOM     25  O   UNL     1      10.143   2.147  21.679  0.00  0.00    -0.481 OA
ATOM     26  H   UNL     1      10.644   1.463  21.196  0.00  0.00    +0.295 HD
ENDBRANCH  23  25
ENDBRANCH  22  23
ENDBRANCH  21  22
ENDBRANCH  20  21
ENDBRANCH  19  20
ENDBRANCH  18  19
ENDBRANCH   1  18
TORSDOF 14
ENDMDL
