MODEL 1
REMARK VINA RESULT:      -7.6      0.000      0.000
REMARK  Name = 
REMARK  4 active torsions:
REMARK  status: ('A' for Active; 'I' for Inactive)
REMARK    1  A    between atoms: C_1  and  C_2
REMARK    2  A    between atoms: C_11  and  O_12
REMARK    3  A    between atoms: C_15  and  C_16
REMARK    4  A    between atoms: C_20  and  O_21
REMARK                            x       y       z     vdW  Elec       q    Type
REMARK                         _______ _______ _______ _____ _____    ______ ____
ROOT
ATOM      1  C   UNL     1       9.482   0.942  24.056  0.00  0.00    +0.014 C 
ATOM      2  C   UNL     1       9.022   0.470  22.637  0.00  0.00    -0.003 C 
ATOM      3  C   UNL     1       8.926   1.655  21.659  0.00  0.00    +0.121 C 
ATOM      4  C   UNL     1       7.861   2.504  22.354  0.00  0.00    +0.032 C 
ATOM      5  C   UNL     1       6.843   1.429  22.846  0.00  0.00    +0.007 C 
ATOM      6  C   UNL     1       7.558   0.047  22.617  0.00  0.00    +0.001 C 
ATOM      7  C   UNL     1       7.334  -1.131  23.575  0.00  0.00    +0.000 C 
ATOM      8  C   UNL     1       6.135  -2.025  23.221  0.00  0.00    +0.031 C 
ATOM      9  C   UNL     1       5.945  -3.009  24.356  0.00  0.00    -0.027 C 
ATOM     10  C   UNL     1       6.887  -3.294  25.290  0.00  0.00    -0.065 C 
ATOM     11  C   UNL     1       8.364  -2.827  25.178  0.00  0.00    -0.008 C 
ATOM     12  C   UNL     1       8.767  -1.785  26.267  0.00  0.00    +0.016 C 
ATOM     13  C   UNL     1       9.294  -4.066  25.409  0.00  0.00    +0.014 C 
ATOM     14  C   UNL     1       8.947  -4.812  26.721  0.00  0.00    +0.032 C 
ATOM     15  C   UNL     1       7.519  -5.326  26.662  0.00  0.00    +0.119 C 
ATOM     16  C   UNL     1       6.526  -4.179  26.452  0.00  0.00    +0.062 C 
ATOM     17  C   UNL     1       8.526  -2.186  23.734  0.00  0.00    +0.003 C 
ATOM     18  C   UNL     1       9.936  -1.793  23.240  0.00  0.00    +0.005 C 
ATOM     19  C   UNL     1       9.882  -0.705  22.151  0.00  0.00    +0.010 C 
ENDROOT
BRANCH   3  20
ATOM     20  O   UNL     1      10.149   2.295  21.433  0.00  0.00    -0.391 OA
ATOM     21  H   UNL     1      10.748   1.617  21.061  0.00  0.00    +0.210 HD
ENDBRANCH   3  20
BRANCH  15  22
ATOM     22  O   UNL     1       7.208  -6.021  27.867  0.00  0.00    -0.391 OA
ATOM     23  H   UNL     1       8.036  -6.157  28.360  0.00  0.00    +0.210 HD
ENDBRANCH  15  22
TORSDOF 2
ENDMDL
MODEL 2
REMARK VINA RESULT:      -7.3      1.375      6.351
REMARK  Name = 
REMARK  4 active torsions:
REMARK  status: ('A' for Active; 'I' for Inactive)
REMARK    1  A    between atoms: C_1  and  C_2
REMARK    2  A    between atoms: C_11  and  O_12
REMARK    3  A    between atoms: C_15  and  C_16
REMARK    4  A    between atoms: C_20  and  O_21
REMARK                            x       y       z     vdW  Elec       q    Type
REMARK                         _______ _______ _______ _____ _____    ______ ____
ROOT
ATOM      1  C   UNL     1       5.617  -4.131  24.645  0.00  0.00    +0.014 C 
ATOM      2  C   UNL     1       6.676  -4.516  25.730  0.00  0.00    -0.003 C 
ATOM      3  C   UNL     1       6.064  -5.432  26.807  0.00  0.00    +0.121 C 
ATOM      4  C   UNL     1       4.976  -4.515  27.366  0.00  0.00    +0.032 C 
ATOM      5  C   UNL     1       5.694  -3.130  27.412  0.00  0.00    +0.007 C 
ATOM      6  C   UNL     1       7.039  -3.335  26.624  0.00  0.00    +0.001 C 
ATOM      7  C   UNL     1       7.649  -2.204  25.785  0.00  0.00    +0.000 C 
ATOM      8  C   UNL     1       8.587  -1.266  26.561  0.00  0.00    +0.031 C 
ATOM      9  C   UNL     1       8.944  -0.114  25.646  0.00  0.00    -0.027 C 
ATOM     10  C   UNL     1       8.787  -0.128  24.298  0.00  0.00    -0.065 C 
ATOM     11  C   UNL     1       8.445  -1.412  23.495  0.00  0.00    -0.008 C 
ATOM     12  C   UNL     1       7.028  -1.374  22.843  0.00  0.00    +0.016 C 
ATOM     13  C   UNL     1       9.457  -1.537  22.306  0.00  0.00    +0.014 C 
ATOM     14  C   UNL     1       9.519  -0.240  21.461  0.00  0.00    +0.032 C 
ATOM     15  C   UNL     1       9.981   0.919  22.326  0.00  0.00    +0.119 C 
ATOM     16  C   UNL     1       9.040   1.132  23.516  0.00  0.00    +0.062 C 
ATOM     17  C   UNL     1       8.534  -2.622  24.520  0.00  0.00    +0.003 C 
ATOM     18  C   UNL     1       8.430  -4.069  23.987  0.00  0.00    +0.005 C 
ATOM     19  C   UNL     1       7.956  -5.050  25.075  0.00  0.00    +0.010 C 
ENDROOT
BRANCH   3  20
ATOM     20  O   UNL     1       5.617  -6.659  26.309  0.00  0.00    -0.391 OA
ATOM     21  H   UNL     1       5.323  -7.178  27.084  0.00  0.00    +0.210 HD
ENDBRANCH   3  20
BRANCH  15  22
ATOM     22  O   UNL     1      10.047   2.107  21.541  0.00  0.00    -0.391 OA
ATOM     23  H   UNL     1      10.793   2.021  20.923  0.00  0.00    +0.210 HD
ENDBRANCH  15  22
TORSDOF 2
ENDMDL
MODEL 3
REMARK VINA RESULT:      -7.0      2.342      6.469
REMARK  Name = 
REMARK  4 active torsions:
REMARK  status: ('A' for Active; 'I' for Inactive)
REMARK    1  A    between atoms: C_1  and  C_2
REMARK    2  A    between atoms: C_11  and  O_12
REMARK    3  A    between atoms: C_15  and  C_16
REMARK    4  A    between atoms: C_20  and  O_21
REMARK                            x       y       z     vdW  Elec       q    Type
REMARK                         _______ _______ _______ _____ _____    ______ ____
ROOT
ATOM      1  C   UNL     1       4.462  -4.459  23.481  0.00  0.00    +0.014 C 
ATOM      2  C   UNL     1       5.413  -5.618  23.929  0.00  0.00    -0.003 C 
ATOM      3  C   UNL     1       4.614  -6.812  24.483  0.00  0.00    +0.121 C 
ATOM      4  C   UNL     1       3.915  -6.152  25.672  0.00  0.00    +0.032 C 
ATOM      5  C   UNL     1       5.040  -5.242  26.259  0.00  0.00    +0.007 C 
ATOM      6  C   UNL     1       6.193  -5.269  25.191  0.00  0.00    +0.001 C 
ATOM      7  C   UNL     1       7.075  -4.037  24.945  0.00  0.00    +0.000 C 
ATOM      8  C   UNL     1       8.313  -3.945  25.850  0.00  0.00    +0.031 C 
ATOM      9  C   UNL     1       8.958  -2.596  25.610  0.00  0.00    -0.027 C 
ATOM     10  C   UNL     1       8.716  -1.811  24.530  0.00  0.00    -0.065 C 
ATOM     11  C   UNL     1       7.928  -2.298  23.284  0.00  0.00    -0.008 C 
ATOM     12  C   UNL     1       6.557  -1.578  23.097  0.00  0.00    +0.016 C 
ATOM     13  C   UNL     1       8.766  -1.959  22.005  0.00  0.00    +0.014 C 
ATOM     14  C   UNL     1       9.182  -0.468  21.966  0.00  0.00    +0.032 C 
ATOM     15  C   UNL     1      10.047  -0.141  23.170  0.00  0.00    +0.119 C 
ATOM     16  C   UNL     1       9.305  -0.428  24.480  0.00  0.00    +0.062 C 
ATOM     17  C   UNL     1       7.694  -3.857  23.480  0.00  0.00    +0.003 C 
ATOM     18  C   UNL     1       7.098  -4.681  22.317  0.00  0.00    +0.005 C 
ATOM     19  C   UNL     1       6.409  -5.965  22.814  0.00  0.00    +0.010 C 
ENDROOT
BRANCH   3  20
ATOM     20  O   UNL     1       3.766  -7.403  23.542  0.00  0.00    -0.391 OA
ATOM     21  H   UNL     1       3.796  -8.366  23.712  0.00  0.00    +0.210 HD
ENDBRANCH   3  20
BRANCH  15  22
ATOM     22  O   UNL     1      10.437   1.230  23.124  0.00  0.00    -0.391 OA
ATOM     23  H   UNL     1       9.737   1.728  22.668  0.00  0.00    +0.210 HD
ENDBRANCH  15  22
TORSDOF 2
ENDMDL
MODEL 4
REMARK VINA RESULT:      -6.9      1.450      1.848
REMARK  Name = 
REMARK  4 active torsions:
REMARK  status: ('A' for Active; 'I' for Inactive)
REMARK    1  A    between atoms: C_1  and  C_2
REMARK    2  A    between atoms: C_11  and  O_12
REMARK    3  A    between atoms: C_15  and  C_16
REMARK    4  A    between atoms: C_20  and  O_21
REMARK                            x       y       z     vdW  Elec       q    Type
REMARK                         _______ _______ _______ _____ _____    ______ ____
ROOT
ATOM      1  C   UNL     1       7.969   1.730  24.764  0.00  0.00    +0.014 C 
ATOM      2  C   UNL     1       9.188   1.433  23.829  0.00  0.00    -0.003 C 
ATOM      3  C   UNL     1       9.589   2.683  23.022  0.00  0.00    +0.121 C 
ATOM      4  C   UNL     1       8.304   2.927  22.230  0.00  0.00    +0.032 C 
ATOM      5  C   UNL     1       7.875   1.480  21.832  0.00  0.00    +0.007 C 
ATOM      6  C   UNL     1       8.812   0.528  22.661  0.00  0.00    +0.001 C 
ATOM      7  C   UNL     1       8.308  -0.826  23.182  0.00  0.00    +0.000 C 
ATOM      8  C   UNL     1       8.480  -1.993  22.199  0.00  0.00    +0.031 C 
ATOM      9  C   UNL     1       7.770  -3.196  22.784  0.00  0.00    -0.027 C 
ATOM     10  C   UNL     1       7.409  -3.313  24.087  0.00  0.00    -0.065 C 
ATOM     11  C   UNL     1       7.888  -2.335  25.195  0.00  0.00    -0.008 C 
ATOM     12  C   UNL     1       6.737  -1.472  25.797  0.00  0.00    +0.016 C 
ATOM     13  C   UNL     1       8.458  -3.178  26.386  0.00  0.00    +0.014 C 
ATOM     14  C   UNL     1       7.454  -4.256  26.863  0.00  0.00    +0.032 C 
ATOM     15  C   UNL     1       7.157  -5.223  25.730  0.00  0.00    +0.119 C 
ATOM     16  C   UNL     1       6.577  -4.491  24.515  0.00  0.00    +0.062 C 
ATOM     17  C   UNL     1       8.974  -1.391  24.523  0.00  0.00    +0.003 C 
ATOM     18  C   UNL     1       9.784  -0.424  25.414  0.00  0.00    +0.005 C 
ATOM     19  C   UNL     1      10.329   0.775  24.616  0.00  0.00    +0.010 C 
ENDROOT
BRANCH   3  20
ATOM     20  O   UNL     1      10.014   3.750  23.819  0.00  0.00    -0.391 OA
ATOM     21  H   UNL     1      10.725   4.199  23.319  0.00  0.00    +0.210 HD
ENDBRANCH   3  20
BRANCH  15  22
ATOM     22  O   UNL     1       6.241  -6.220  26.178  0.00  0.00    -0.391 OA
ATOM     23  H   UNL     1       6.515  -6.505  27.067  0.00  0.00    +0.210 HD
ENDBRANCH  15  22
TORSDOF 2
ENDMDL
MODEL 5
REMARK VINA RESULT:      -6.9      2.080      6.179
REMARK  Name = 
REMARK  4 active torsions:
REMARK  status: ('A' for Active; 'I' for Inactive)
REMARK    1  A    between atoms: C_1  and  C_2
REMARK    2  A    between atoms: C_11  and  O_12
REMARK    3  A    between atoms: C_15  and  C_16
REMARK    4  A    between atoms: C_20  and  O_21
REMARK                            x       y       z     vdW  Elec       q    Type
REMARK                         _______ _______ _______ _____ _____    ______ ____
ROOT
ATOM      1  C   UNL     1       8.824  -2.564  22.155  0.00  0.00    +0.014 C 
ATOM      2  C   UNL     1       8.100  -2.768  23.527  0.00  0.00    -0.003 C 
ATOM      3  C   UNL     1       7.404  -4.141  23.592  0.00  0.00    +0.121 C 
ATOM      4  C   UNL     1       6.413  -4.005  22.435  0.00  0.00    +0.032 C 
ATOM      5  C   UNL     1       5.913  -2.535  22.592  0.00  0.00    +0.007 C 
ATOM      6  C   UNL     1       6.864  -1.887  23.663  0.00  0.00    +0.001 C 
ATOM      7  C   UNL     1       7.258  -0.405  23.582  0.00  0.00    +0.000 C 
ATOM      8  C   UNL     1       6.290   0.555  24.289  0.00  0.00    +0.031 C 
ATOM      9  C   UNL     1       6.717   1.968  23.955  0.00  0.00    -0.027 C 
ATOM     10  C   UNL     1       7.937   2.304  23.465  0.00  0.00    -0.065 C 
ATOM     11  C   UNL     1       9.134   1.315  23.408  0.00  0.00    -0.008 C 
ATOM     12  C   UNL     1       9.555   0.938  21.955  0.00  0.00    +0.016 C 
ATOM     13  C   UNL     1      10.382   2.012  24.047  0.00  0.00    +0.014 C 
ATOM     14  C   UNL     1      10.657   3.399  23.415  0.00  0.00    +0.032 C 
ATOM     15  C   UNL     1       9.467   4.314  23.640  0.00  0.00    +0.119 C 
ATOM     16  C   UNL     1       8.190   3.723  23.033  0.00  0.00    +0.062 C 
ATOM     17  C   UNL     1       8.678   0.012  24.192  0.00  0.00    +0.003 C 
ATOM     18  C   UNL     1       9.716  -1.096  24.479  0.00  0.00    +0.005 C 
ATOM     19  C   UNL     1       9.051  -2.468  24.693  0.00  0.00    +0.010 C 
ENDROOT
BRANCH   3  20
ATOM     20  O   UNL     1       8.287  -5.221  23.501  0.00  0.00    -0.391 OA
ATOM     21  H   UNL     1       8.724  -5.291  24.373  0.00  0.00    +0.210 HD
ENDBRANCH   3  20
BRANCH  15  22
ATOM     22  O   UNL     1       9.729   5.593  23.065  0.00  0.00    -0.391 OA
ATOM     23  H   UNL     1       9.923   6.215  23.787  0.00  0.00    +0.210 HD
ENDBRANCH  15  22
TORSDOF 2
ENDMDL
MODEL 6
REMARK VINA RESULT:      -6.9      1.404      1.637
REMARK  Name = 
REMARK  4 active torsions:
REMARK  status: ('A' for Active; 'I' for Inactive)
REMARK    1  A    between atoms: C_1  and  C_2
REMARK    2  A    between atoms: C_11  and  O_12
REMARK    3  A    between atoms: C_15  and  C_16
REMARK    4  A    between atoms: C_20  and  O_21
REMARK                            x       y       z     vdW  Elec       q    Type
REMARK                         _______ _______ _______ _____ _____    ______ ____
ROOT
ATOM      1  C   UNL     1      10.438   0.302  23.725  0.00  0.00    +0.014 C 
ATOM      2  C   UNL     1       9.274   0.902  22.868  0.00  0.00    -0.003 C 
ATOM      3  C   UNL     1       9.550   2.372  22.503  0.00  0.00    +0.121 C 
ATOM      4  C   UNL     1       9.618   2.997  23.897  0.00  0.00    +0.032 C 
ATOM      5  C   UNL     1       8.455   2.274  24.646  0.00  0.00    +0.007 C 
ATOM      6  C   UNL     1       8.005   1.112  23.687  0.00  0.00    +0.001 C 
ATOM      7  C   UNL     1       7.506  -0.229  24.244  0.00  0.00    +0.000 C 
ATOM      8  C   UNL     1       5.998  -0.279  24.535  0.00  0.00    +0.031 C 
ATOM      9  C   UNL     1       5.711  -1.585  25.246  0.00  0.00    -0.027 C 
ATOM     10  C   UNL     1       6.548  -2.653  25.256  0.00  0.00    -0.065 C 
ATOM     11  C   UNL     1       7.801  -2.761  24.344  0.00  0.00    -0.008 C 
ATOM     12  C   UNL     1       9.145  -2.728  25.134  0.00  0.00    +0.016 C 
ATOM     13  C   UNL     1       7.766  -4.148  23.617  0.00  0.00    +0.014 C 
ATOM     14  C   UNL     1       7.588  -5.318  24.616  0.00  0.00    +0.032 C 
ATOM     15  C   UNL     1       6.273  -5.168  25.360  0.00  0.00    +0.119 C 
ATOM     16  C   UNL     1       6.216  -3.838  26.120  0.00  0.00    +0.062 C 
ATOM     17  C   UNL     1       7.736  -1.530  23.342  0.00  0.00    +0.003 C 
ATOM     18  C   UNL     1       8.746  -1.456  22.175  0.00  0.00    +0.005 C 
ATOM     19  C   UNL     1       8.948  -0.012  21.680  0.00  0.00    +0.010 C 
ENDROOT
BRANCH   3  20
ATOM     20  O   UNL     1      10.690   2.548  21.712  0.00  0.00    -0.391 OA
ATOM     21  H   UNL     1      11.335   1.876  22.010  0.00  0.00    +0.210 HD
ENDBRANCH   3  20
BRANCH  15  22
ATOM     22  O   UNL     1       6.109  -6.253  26.270  0.00  0.00    -0.391 OA
ATOM     23  H   UNL     1       6.917  -6.322  26.807  0.00  0.00    +0.210 HD
ENDBRANCH  15  22
TORSDOF 2
ENDMDL
MODEL 7
REMARK VINA RESULT:      -6.9      1.340      6.107
REMARK  Name = 
REMARK  4 active torsions:
REMARK  status: ('A' for Active; 'I' for Inactive)
REMARK    1  A    between atoms: C_1  and  C_2
REMARK    2  A    between atoms: C_11  and  O_12
REMARK    3  A    between atoms: C_15  and  C_16
REMARK    4  A    between atoms: C_20  and  O_21
REMARK                            x       y       z     vdW  Elec       q    Type
REMARK                         _______ _______ _______ _____ _____    ______ ____
ROOT
ATOM      1  C   UNL     1       8.279  -4.587  24.519  0.00  0.00    +0.014 C 
ATOM      2  C   UNL     1       7.055  -4.082  25.352  0.00  0.00    -0.003 C 
ATOM      3  C   UNL     1       6.043  -5.217  25.600  0.00  0.00    +0.121 C 
ATOM      4  C   UNL     1       5.656  -5.563  24.162  0.00  0.00    +0.032 C 
ATOM      5  C   UNL     1       5.554  -4.157  23.493  0.00  0.00    +0.007 C 
ATOM      6  C   UNL     1       6.153  -3.154  24.546  0.00  0.00    +0.001 C 
ATOM      7  C   UNL     1       6.935  -1.910  24.102  0.00  0.00    +0.000 C 
ATOM      8  C   UNL     1       6.069  -0.667  23.846  0.00  0.00    +0.031 C 
ATOM      9  C   UNL     1       6.959   0.398  23.241  0.00  0.00    -0.027 C 
ATOM     10  C   UNL     1       8.315   0.383  23.294  0.00  0.00    -0.065 C 
ATOM     11  C   UNL     1       9.122  -0.600  24.186  0.00  0.00    -0.008 C 
ATOM     12  C   UNL     1       9.954  -1.635  23.368  0.00  0.00    +0.016 C 
ATOM     13  C   UNL     1      10.164   0.225  25.014  0.00  0.00    +0.014 C 
ATOM     14  C   UNL     1      11.028   1.139  24.110  0.00  0.00    +0.032 C 
ATOM     15  C   UNL     1      10.141   2.135  23.384  0.00  0.00    +0.119 C 
ATOM     16  C   UNL     1       9.091   1.420  22.528  0.00  0.00    +0.062 C 
ATOM     17  C   UNL     1       8.062  -1.357  25.094  0.00  0.00    +0.003 C 
ATOM     18  C   UNL     1       8.565  -2.275  26.230  0.00  0.00    +0.005 C 
ATOM     19  C   UNL     1       7.523  -3.343  26.612  0.00  0.00    +0.010 C 
ENDROOT
BRANCH   3  20
ATOM     20  O   UNL     1       6.563  -6.275  26.352  0.00  0.00    -0.391 OA
ATOM     21  H   UNL     1       7.497  -6.371  26.080  0.00  0.00    +0.210 HD
ENDBRANCH   3  20
BRANCH  15  22
ATOM     22  O   UNL     1      10.943   2.980  22.562  0.00  0.00    -0.391 OA
ATOM     23  H   UNL     1      11.741   3.221  23.062  0.00  0.00    +0.210 HD
ENDBRANCH  15  22
TORSDOF 2
ENDMDL
MODEL 8
REMARK VINA RESULT:      -6.8      1.336      2.658
REMARK  Name = 
REMARK  4 active torsions:
REMARK  status: ('A' for Active; 'I' for Inactive)
REMARK    1  A    between atoms: C_1  and  C_2
REMARK    2  A    between atoms: C_11  and  O_12
REMARK    3  A    between atoms: C_15  and  C_16
REMARK    4  A    between atoms: C_20  and  O_21
REMARK                            x       y       z     vdW  Elec       q    Type
REMARK                         _______ _______ _______ _____ _____    ______ ____
ROOT
ATOM      1  C   UNL     1       9.763  -0.769  22.414  0.00  0.00    +0.014 C 
ATOM      2  C   UNL     1       8.990   0.406  23.101  0.00  0.00    -0.003 C 
ATOM      3  C   UNL     1       9.742   1.740  22.936  0.00  0.00    +0.121 C 
ATOM      4  C   UNL     1      11.050   1.413  23.659  0.00  0.00    +0.032 C 
ATOM      5  C   UNL     1      10.555   0.601  24.897  0.00  0.00    +0.007 C 
ATOM      6  C   UNL     1       9.034   0.313  24.622  0.00  0.00    +0.001 C 
ATOM      7  C   UNL     1       8.375  -0.991  25.092  0.00  0.00    +0.000 C 
ATOM      8  C   UNL     1       7.806  -0.943  26.518  0.00  0.00    +0.031 C 
ATOM      9  C   UNL     1       7.371  -2.345  26.887  0.00  0.00    -0.027 C 
ATOM     10  C   UNL     1       7.160  -3.343  25.992  0.00  0.00    -0.065 C 
ATOM     11  C   UNL     1       7.108  -3.112  24.457  0.00  0.00    -0.008 C 
ATOM     12  C   UNL     1       8.293  -3.776  23.691  0.00  0.00    +0.016 C 
ATOM     13  C   UNL     1       5.808  -3.785  23.899  0.00  0.00    +0.014 C 
ATOM     14  C   UNL     1       5.692  -5.267  24.336  0.00  0.00    +0.032 C 
ATOM     15  C   UNL     1       5.630  -5.355  25.851  0.00  0.00    +0.119 C 
ATOM     16  C   UNL     1       6.873  -4.732  26.494  0.00  0.00    +0.062 C 
ATOM     17  C   UNL     1       7.138  -1.539  24.237  0.00  0.00    +0.003 C 
ATOM     18  C   UNL     1       6.909  -0.974  22.817  0.00  0.00    +0.005 C 
ATOM     19  C   UNL     1       7.524   0.428  22.650  0.00  0.00    +0.010 C 
ENDROOT
BRANCH   3  20
ATOM     20  O   UNL     1       9.879   2.145  21.605  0.00  0.00    -0.391 OA
ATOM     21  H   UNL     1      10.839   2.241  21.445  0.00  0.00    +0.210 HD
ENDBRANCH   3  20
BRANCH  15  22
ATOM     22  O   UNL     1       5.513  -6.720  26.247  0.00  0.00    -0.391 OA
ATOM     23  H   UNL     1       5.978  -6.830  27.094  0.00  0.00    +0.210 HD
ENDBRANCH  15  22
TORSDOF 2
ENDMDL
MODEL 9
REMARK VINA RESULT:      -6.7      1.408      6.412
REMARK  Name = 
REMARK  4 active torsions:
REMARK  status: ('A' for Active; 'I' for Inactive)
REMARK    1  A    between atoms: C_1  and  C_2
REMARK    2  A    between atoms: C_11  and  O_12
REMARK    3  A    between atoms: C_15  and  C_16
REMARK    4  A    between atoms: C_20  and  O_21
REMARK                            x       y       z     vdW  Elec       q    Type
REMARK                         _______ _______ _______ _____ _____    ______ ____
ROOT
ATOM      1  C   UNL     1       7.120  -2.845  26.287  0.00  0.00    +0.014 C 
ATOM      2  C   UNL     1       7.193  -3.566  24.900  0.00  0.00    -0.003 C 
ATOM      3  C   UNL     1       7.078  -5.093  25.058  0.00  0.00    +0.121 C 
ATOM      4  C   UNL     1       8.311  -5.377  25.918  0.00  0.00    +0.032 C 
ATOM      5  C   UNL     1       9.385  -4.437  25.286  0.00  0.00    +0.007 C 
ATOM      6  C   UNL     1       8.591  -3.510  24.294  0.00  0.00    +0.001 C 
ATOM      7  C   UNL     1       9.010  -2.052  24.063  0.00  0.00    +0.000 C 
ATOM      8  C   UNL     1      10.052  -1.853  22.952  0.00  0.00    +0.031 C 
ATOM      9  C   UNL     1      10.489  -0.404  22.984  0.00  0.00    -0.027 C 
ATOM     10  C   UNL     1       9.803   0.590  23.603  0.00  0.00    -0.065 C 
ATOM     11  C   UNL     1       8.361   0.414  24.153  0.00  0.00    -0.008 C 
ATOM     12  C   UNL     1       8.279   0.495  25.709  0.00  0.00    +0.016 C 
ATOM     13  C   UNL     1       7.480   1.592  23.617  0.00  0.00    +0.014 C 
ATOM     14  C   UNL     1       8.121   2.972  23.908  0.00  0.00    +0.032 C 
ATOM     15  C   UNL     1       9.471   3.070  23.219  0.00  0.00    +0.119 C 
ATOM     16  C   UNL     1      10.416   1.961  23.691  0.00  0.00    +0.062 C 
ATOM     17  C   UNL     1       7.863  -1.011  23.662  0.00  0.00    +0.003 C 
ATOM     18  C   UNL     1       6.387  -1.411  23.887  0.00  0.00    +0.005 C 
ATOM     19  C   UNL     1       6.201  -2.939  23.910  0.00  0.00    +0.010 C 
ENDROOT
BRANCH   3  20
ATOM     20  O   UNL     1       5.859  -5.510  25.602  0.00  0.00    -0.391 OA
ATOM     21  H   UNL     1       5.489  -6.163  24.976  0.00  0.00    +0.210 HD
ENDBRANCH   3  20
BRANCH  15  22
ATOM     22  O   UNL     1      10.052   4.346  23.481  0.00  0.00    -0.391 OA
ATOM     23  H   UNL     1       9.333   4.970  23.681  0.00  0.00    +0.210 HD
ENDBRANCH  15  22
TORSDOF 2
ENDMDL
