MODEL 1
REMARK VINA RESULT:      -6.4      0.000      0.000
REMARK  Name = 
REMARK  7 active torsions:
REMARK  status: ('A' for Active; 'I' for Inactive)
REMARK    1  A    between atoms: O_1  and  C_2
REMARK    2  A    between atoms: C_2  and  C_4
REMARK    3  A    between atoms: C_4  and  O_5
REMARK    4  A    between atoms: O_5  and  C_6
REMARK    5  A    between atoms: C_7  and  C_18
REMARK    6  A    between atoms: C_9  and  C_12
REMARK    7  A    between atoms: C_18  and  O_19
REMARK                            x       y       z     vdW  Elec       q    Type
REMARK                         _______ _______ _______ _____ _____    ______ ____
ROOT
ATOM      1  C   UNL     1       8.573  -2.914  26.005  0.00  0.00    +0.157 A 
ATOM      2  C   UNL     1       8.498  -1.518  25.673  0.00  0.00    +0.075 A 
ATOM      3 BR   UNL     1       7.505  -0.255  26.693  0.00  0.00    -0.045 Br
ATOM      4  C   UNL     1       9.178  -1.195  24.508  0.00  0.00    +0.038 A 
ATOM      5  S   UNL     1       9.784  -2.621  23.765  0.00  0.00    -0.077 S 
ATOM      6  C   UNL     1       9.197  -3.638  25.003  0.00  0.00    +0.139 A 
ENDROOT
BRANCH   4   7
ATOM      7  C   UNL     1       9.469   0.104  23.867  0.00  0.00    -0.010 A 
ATOM      8  C   UNL     1      10.330   1.024  24.485  0.00  0.00    +0.009 A 
ATOM      9  C   UNL     1      10.679   2.223  23.856  0.00  0.00    +0.001 A 
ATOM     10  C   UNL     1      10.193   2.511  22.586  0.00  0.00    +0.000 A 
ATOM     11  C   UNL     1       9.332   1.618  21.956  0.00  0.00    +0.001 A 
ATOM     12  C   UNL     1       8.961   0.432  22.596  0.00  0.00    +0.009 A 
ENDBRANCH   4   7
BRANCH   6  13
ATOM     13  C   UNL     1       9.399  -5.079  24.946  0.00  0.00    +0.347 C 
ATOM     14  O   UNL     1       8.986  -5.806  24.055  0.00  0.00    -0.244 OA
BRANCH  13  15
ATOM     15  O   UNL     1      10.111  -5.568  25.994  0.00  0.00    -0.477 OA
ATOM     16  H   UNL     1      10.020  -5.017  26.796  0.00  0.00    +0.295 HD
ENDBRANCH  13  15
ENDBRANCH   6  13
BRANCH   1  17
ATOM     17  O   UNL     1       8.047  -3.589  27.066  0.00  0.00    -0.478 OA
BRANCH  17  18
ATOM     18  C   UNL     1       6.725  -4.090  26.880  0.00  0.00    +0.349 C 
BRANCH  18  19
ATOM     19  C   UNL     1       6.679  -5.603  27.024  0.00  0.00    +0.343 C 
ATOM     20  O   UNL     1       5.850  -6.308  26.470  0.00  0.00    -0.247 OA
BRANCH  19  21
ATOM     21  O   UNL     1       7.641  -6.113  27.830  0.00  0.00    -0.478 OA
ATOM     22  H   UNL     1       7.602  -5.741  28.743  0.00  0.00    +0.295 HD
ENDBRANCH  19  21
ENDBRANCH  18  19
ENDBRANCH  17  18
ENDBRANCH   1  17
TORSDOF 7
ENDMDL
MODEL 2
REMARK VINA RESULT:      -6.1      2.605      3.282
REMARK  Name = 
REMARK  7 active torsions:
REMARK  status: ('A' for Active; 'I' for Inactive)
REMARK    1  A    between atoms: O_1  and  C_2
REMARK    2  A    between atoms: C_2  and  C_4
REMARK    3  A    between atoms: C_4  and  O_5
REMARK    4  A    between atoms: O_5  and  C_6
REMARK    5  A    between atoms: C_7  and  C_18
REMARK    6  A    between atoms: C_9  and  C_12
REMARK    7  A    between atoms: C_18  and  O_19
REMARK                            x       y       z     vdW  Elec       q    Type
REMARK                         _______ _______ _______ _____ _____    ______ ____
ROOT
ATOM      1  C   UNL     1       6.661  -4.450  24.280  0.00  0.00    +0.157 A 
ATOM      2  C   UNL     1       7.412  -3.225  24.289  0.00  0.00    +0.075 A 
ATOM      3 BR   UNL     1       8.597  -2.738  25.696  0.00  0.00    -0.045 Br
ATOM      4  C   UNL     1       7.146  -2.411  23.197  0.00  0.00    +0.038 A 
ATOM      5  S   UNL     1       5.887  -3.093  22.248  0.00  0.00    -0.077 S 
ATOM      6  C   UNL     1       5.741  -4.470  23.246  0.00  0.00    +0.139 A 
ENDROOT
BRANCH   4   7
ATOM      7  C   UNL     1       7.762  -1.149  22.738  0.00  0.00    -0.010 A 
ATOM      8  C   UNL     1       8.974  -1.165  22.031  0.00  0.00    +0.009 A 
ATOM      9  C   UNL     1       9.529   0.012  21.521  0.00  0.00    +0.001 A 
ATOM     10  C   UNL     1       8.868   1.223  21.686  0.00  0.00    +0.000 A 
ATOM     11  C   UNL     1       7.669   1.266  22.390  0.00  0.00    +0.001 A 
ATOM     12  C   UNL     1       7.127   0.093  22.924  0.00  0.00    +0.009 A 
ENDBRANCH   4   7
BRANCH   6  13
ATOM     13  C   UNL     1       4.760  -5.505  22.953  0.00  0.00    +0.347 C 
ATOM     14  O   UNL     1       3.563  -5.308  22.798  0.00  0.00    -0.244 OA
BRANCH  13  15
ATOM     15  O   UNL     1       5.296  -6.749  22.858  0.00  0.00    -0.477 OA
ATOM     16  H   UNL     1       5.259  -7.102  21.948  0.00  0.00    +0.295 HD
ENDBRANCH  13  15
ENDBRANCH   6  13
BRANCH   1  17
ATOM     17  O   UNL     1       6.667  -5.484  25.167  0.00  0.00    -0.478 OA
BRANCH  17  18
ATOM     18  C   UNL     1       5.846  -5.309  26.319  0.00  0.00    +0.349 C 
BRANCH  18  19
ATOM     19  C   UNL     1       6.660  -5.393  27.601  0.00  0.00    +0.343 C 
ATOM     20  O   UNL     1       6.237  -5.044  28.692  0.00  0.00    -0.247 OA
BRANCH  19  21
ATOM     21  O   UNL     1       7.909  -5.890  27.432  0.00  0.00    -0.478 OA
ATOM     22  H   UNL     1       8.289  -5.659  26.552  0.00  0.00    +0.295 HD
ENDBRANCH  19  21
ENDBRANCH  18  19
ENDBRANCH  17  18
ENDBRANCH   1  17
TORSDOF 7
ENDMDL
MODEL 3
REMARK VINA RESULT:      -6.1      2.560      3.150
REMARK  Name = 
REMARK  7 active torsions:
REMARK  status: ('A' for Active; 'I' for Inactive)
REMARK    1  A    between atoms: O_1  and  C_2
REMARK    2  A    between atoms: C_2  and  C_4
REMARK    3  A    between atoms: C_4  and  O_5
REMARK    4  A    between atoms: O_5  and  C_6
REMARK    5  A    between atoms: C_7  and  C_18
REMARK    6  A    between atoms: C_9  and  C_12
REMARK    7  A    between atoms: C_18  and  O_19
REMARK                            x       y       z     vdW  Elec       q    Type
REMARK                         _______ _______ _______ _____ _____    ______ ____
ROOT
ATOM      1  C   UNL     1       7.300  -4.302  24.103  0.00  0.00    +0.157 A 
ATOM      2  C   UNL     1       7.158  -3.243  23.143  0.00  0.00    +0.075 A 
ATOM      3 BR   UNL     1       5.991  -3.342  21.643  0.00  0.00    -0.045 Br
ATOM      4  C   UNL     1       7.997  -2.165  23.388  0.00  0.00    +0.038 A 
ATOM      5  S   UNL     1       9.038  -2.519  24.709  0.00  0.00    -0.077 S 
ATOM      6  C   UNL     1       8.344  -4.054  24.978  0.00  0.00    +0.139 A 
ENDROOT
BRANCH   4   7
ATOM      7  C   UNL     1       8.103  -0.836  22.752  0.00  0.00    -0.010 A 
ATOM      8  C   UNL     1       7.097   0.125  22.942  0.00  0.00    +0.009 A 
ATOM      9  C   UNL     1       7.220   1.413  22.413  0.00  0.00    +0.001 A 
ATOM     10  C   UNL     1       8.362   1.772  21.707  0.00  0.00    +0.000 A 
ATOM     11  C   UNL     1       9.369   0.835  21.499  0.00  0.00    +0.001 A 
ATOM     12  C   UNL     1       9.235  -0.463  22.005  0.00  0.00    +0.009 A 
ENDBRANCH   4   7
BRANCH   6  13
ATOM     13  C   UNL     1       8.834  -4.921  26.040  0.00  0.00    +0.347 C 
ATOM     14  O   UNL     1       8.334  -5.015  27.150  0.00  0.00    -0.244 OA
BRANCH  13  15
ATOM     15  O   UNL     1       9.928  -5.645  25.687  0.00  0.00    -0.477 OA
ATOM     16  H   UNL     1      10.751  -5.294  26.081  0.00  0.00    +0.295 HD
ENDBRANCH  13  15
ENDBRANCH   6  13
BRANCH   1  17
ATOM     17  O   UNL     1       6.644  -5.494  24.191  0.00  0.00    -0.478 OA
BRANCH  17  18
ATOM     18  C   UNL     1       5.287  -5.418  24.621  0.00  0.00    +0.349 C 
BRANCH  18  19
ATOM     19  C   UNL     1       4.370  -6.224  23.713  0.00  0.00    +0.343 C 
ATOM     20  O   UNL     1       3.697  -5.728  22.824  0.00  0.00    -0.247 OA
BRANCH  19  21
ATOM     21  O   UNL     1       4.359  -7.552  23.976  0.00  0.00    -0.478 OA
ATOM     22  H   UNL     1       3.861  -8.065  23.297  0.00  0.00    +0.295 HD
ENDBRANCH  19  21
ENDBRANCH  18  19
ENDBRANCH  17  18
ENDBRANCH   1  17
TORSDOF 7
ENDMDL
MODEL 4
REMARK VINA RESULT:      -5.9      2.534      3.266
REMARK  Name = 
REMARK  7 active torsions:
REMARK  status: ('A' for Active; 'I' for Inactive)
REMARK    1  A    between atoms: O_1  and  C_2
REMARK    2  A    between atoms: C_2  and  C_4
REMARK    3  A    between atoms: C_4  and  O_5
REMARK    4  A    between atoms: O_5  and  C_6
REMARK    5  A    between atoms: C_7  and  C_18
REMARK    6  A    between atoms: C_9  and  C_12
REMARK    7  A    between atoms: C_18  and  O_19
REMARK                            x       y       z     vdW  Elec       q    Type
REMARK                         _______ _______ _______ _____ _____    ______ ____
ROOT
ATOM      1  C   UNL     1       7.925  -3.745  24.513  0.00  0.00    +0.157 A 
ATOM      2  C   UNL     1       8.329  -2.495  23.931  0.00  0.00    +0.075 A 
ATOM      3 BR   UNL     1       8.527  -2.232  22.056  0.00  0.00    -0.045 Br
ATOM      4  C   UNL     1       8.612  -1.518  24.874  0.00  0.00    +0.038 A 
ATOM      5  S   UNL     1       8.509  -2.180  26.456  0.00  0.00    -0.077 S 
ATOM      6  C   UNL     1       8.044  -3.722  25.892  0.00  0.00    +0.139 A 
ENDROOT
BRANCH   4   7
ATOM      7  C   UNL     1       8.935  -0.082  24.737  0.00  0.00    -0.010 A 
ATOM      8  C   UNL     1      10.236   0.324  24.402  0.00  0.00    +0.009 A 
ATOM      9  C   UNL     1      10.541   1.672  24.191  0.00  0.00    +0.001 A 
ATOM     10  C   UNL     1       9.543   2.635  24.284  0.00  0.00    +0.000 A 
ATOM     11  C   UNL     1       8.247   2.257  24.621  0.00  0.00    +0.001 A 
ATOM     12  C   UNL     1       7.948   0.912  24.860  0.00  0.00    +0.009 A 
ENDBRANCH   4   7
BRANCH   6  13
ATOM     13  C   UNL     1       7.794  -4.814  26.822  0.00  0.00    +0.347 C 
ATOM     14  O   UNL     1       7.022  -4.762  27.767  0.00  0.00    -0.244 OA
BRANCH  13  15
ATOM     15  O   UNL     1       8.509  -5.935  26.544  0.00  0.00    -0.477 OA
ATOM     16  H   UNL     1       9.310  -5.746  26.018  0.00  0.00    +0.295 HD
ENDBRANCH  13  15
ENDBRANCH   6  13
BRANCH   1  17
ATOM     17  O   UNL     1       7.562  -4.912  23.910  0.00  0.00    -0.478 OA
BRANCH  17  18
ATOM     18  C   UNL     1       6.212  -4.976  23.459  0.00  0.00    +0.349 C 
BRANCH  18  19
ATOM     19  C   UNL     1       6.129  -5.458  22.018  0.00  0.00    +0.343 C 
ATOM     20  O   UNL     1       5.888  -4.723  21.074  0.00  0.00    -0.247 OA
BRANCH  19  21
ATOM     21  O   UNL     1       6.343  -6.787  21.866  0.00  0.00    -0.478 OA
ATOM     22  H   UNL     1       7.217  -6.981  21.450  0.00  0.00    +0.295 HD
ENDBRANCH  19  21
ENDBRANCH  18  19
ENDBRANCH  17  18
ENDBRANCH   1  17
TORSDOF 7
ENDMDL
MODEL 5
REMARK VINA RESULT:      -5.8      2.044      2.398
REMARK  Name = 
REMARK  7 active torsions:
REMARK  status: ('A' for Active; 'I' for Inactive)
REMARK    1  A    between atoms: O_1  and  C_2
REMARK    2  A    between atoms: C_2  and  C_4
REMARK    3  A    between atoms: C_4  and  O_5
REMARK    4  A    between atoms: O_5  and  C_6
REMARK    5  A    between atoms: C_7  and  C_18
REMARK    6  A    between atoms: C_9  and  C_12
REMARK    7  A    between atoms: C_18  and  O_19
REMARK                            x       y       z     vdW  Elec       q    Type
REMARK                         _______ _______ _______ _____ _____    ______ ____
ROOT
ATOM      1  C   UNL     1       6.988  -3.433  24.428  0.00  0.00    +0.157 A 
ATOM      2  C   UNL     1       7.546  -2.180  24.854  0.00  0.00    +0.075 A 
ATOM      3 BR   UNL     1       7.374  -1.510  26.627  0.00  0.00    -0.045 Br
ATOM      4  C   UNL     1       8.174  -1.484  23.831  0.00  0.00    +0.038 A 
ATOM      5  S   UNL     1       7.958  -2.308  22.339  0.00  0.00    -0.077 S 
ATOM      6  C   UNL     1       7.091  -3.592  23.056  0.00  0.00    +0.139 A 
ENDROOT
BRANCH   4   7
ATOM      7  C   UNL     1       8.975  -0.243  23.834  0.00  0.00    -0.010 A 
ATOM      8  C   UNL     1      10.209  -0.195  24.502  0.00  0.00    +0.009 A 
ATOM      9  C   UNL     1      11.016   0.945  24.448  0.00  0.00    +0.001 A 
ATOM     10  C   UNL     1      10.616   2.048  23.703  0.00  0.00    +0.000 A 
ATOM     11  C   UNL     1       9.394   2.027  23.038  0.00  0.00    +0.001 A 
ATOM     12  C   UNL     1       8.574   0.897  23.114  0.00  0.00    +0.009 A 
ENDBRANCH   4   7
BRANCH   6  13
ATOM     13  C   UNL     1       6.584  -4.693  22.251  0.00  0.00    +0.347 C 
ATOM     14  O   UNL     1       7.282  -5.511  21.669  0.00  0.00    -0.244 OA
BRANCH  13  15
ATOM     15  O   UNL     1       5.228  -4.746  22.196  0.00  0.00    -0.477 OA
ATOM     16  H   UNL     1       4.808  -4.341  22.981  0.00  0.00    +0.295 HD
ENDBRANCH  13  15
ENDBRANCH   6  13
BRANCH   1  17
ATOM     17  O   UNL     1       6.318  -4.380  25.144  0.00  0.00    -0.478 OA
BRANCH  17  18
ATOM     18  C   UNL     1       7.112  -5.461  25.626  0.00  0.00    +0.349 C 
BRANCH  18  19
ATOM     19  C   UNL     1       7.627  -5.189  27.032  0.00  0.00    +0.343 C 
ATOM     20  O   UNL     1       6.911  -5.170  28.020  0.00  0.00    -0.247 OA
BRANCH  19  21
ATOM     21  O   UNL     1       8.961  -4.965  27.099  0.00  0.00    -0.478 OA
ATOM     22  H   UNL     1       9.261  -4.753  28.014  0.00  0.00    +0.295 HD
ENDBRANCH  19  21
ENDBRANCH  18  19
ENDBRANCH  17  18
ENDBRANCH   1  17
TORSDOF 7
ENDMDL
MODEL 6
REMARK VINA RESULT:      -5.7      2.206      3.024
REMARK  Name = 
REMARK  7 active torsions:
REMARK  status: ('A' for Active; 'I' for Inactive)
REMARK    1  A    between atoms: O_1  and  C_2
REMARK    2  A    between atoms: C_2  and  C_4
REMARK    3  A    between atoms: C_4  and  O_5
REMARK    4  A    between atoms: O_5  and  C_6
REMARK    5  A    between atoms: C_7  and  C_18
REMARK    6  A    between atoms: C_9  and  C_12
REMARK    7  A    between atoms: C_18  and  O_19
REMARK                            x       y       z     vdW  Elec       q    Type
REMARK                         _______ _______ _______ _____ _____    ______ ____
ROOT
ATOM      1  C   UNL     1       7.296  -4.107  24.818  0.00  0.00    +0.157 A 
ATOM      2  C   UNL     1       7.747  -2.952  24.092  0.00  0.00    +0.075 A 
ATOM      3 BR   UNL     1       7.707  -2.832  22.193  0.00  0.00    -0.045 Br
ATOM      4  C   UNL     1       8.263  -1.957  24.910  0.00  0.00    +0.038 A 
ATOM      5  S   UNL     1       8.312  -2.502  26.539  0.00  0.00    -0.077 S 
ATOM      6  C   UNL     1       7.609  -4.011  26.164  0.00  0.00    +0.139 A 
ENDROOT
BRANCH   4   7
ATOM      7  C   UNL     1       8.716  -0.581  24.620  0.00  0.00    -0.010 A 
ATOM      8  C   UNL     1       7.784   0.428  24.334  0.00  0.00    +0.009 A 
ATOM      9  C   UNL     1       8.189   1.751  24.135  0.00  0.00    +0.001 A 
ATOM     10  C   UNL     1       9.532   2.093  24.245  0.00  0.00    +0.000 A 
ATOM     11  C   UNL     1      10.476   1.109  24.520  0.00  0.00    +0.001 A 
ATOM     12  C   UNL     1      10.074  -0.220  24.692  0.00  0.00    +0.009 A 
ENDBRANCH   4   7
BRANCH   6  13
ATOM     13  C   UNL     1       7.376  -5.006  27.200  0.00  0.00    +0.347 C 
ATOM     14  O   UNL     1       6.590  -4.877  28.127  0.00  0.00    -0.244 OA
BRANCH  13  15
ATOM     15  O   UNL     1       8.124  -6.130  27.051  0.00  0.00    -0.477 OA
ATOM     16  H   UNL     1       8.820  -6.208  27.733  0.00  0.00    +0.295 HD
ENDBRANCH  13  15
ENDBRANCH   6  13
BRANCH   1  17
ATOM     17  O   UNL     1       6.729  -5.259  24.361  0.00  0.00    -0.478 OA
BRANCH  17  18
ATOM     18  C   UNL     1       5.304  -5.282  24.360  0.00  0.00    +0.349 C 
BRANCH  18  19
ATOM     19  C   UNL     1       4.768  -6.609  24.875  0.00  0.00    +0.343 C 
ATOM     20  O   UNL     1       4.678  -6.885  26.061  0.00  0.00    -0.247 OA
BRANCH  19  21
ATOM     21  O   UNL     1       4.398  -7.473  23.900  0.00  0.00    -0.478 OA
ATOM     22  H   UNL     1       3.551  -7.211  23.467  0.00  0.00    +0.295 HD
ENDBRANCH  19  21
ENDBRANCH  18  19
ENDBRANCH  17  18
ENDBRANCH   1  17
TORSDOF 7
ENDMDL
MODEL 7
REMARK VINA RESULT:      -5.7      2.147      2.630
REMARK  Name = 
REMARK  7 active torsions:
REMARK  status: ('A' for Active; 'I' for Inactive)
REMARK    1  A    between atoms: O_1  and  C_2
REMARK    2  A    between atoms: C_2  and  C_4
REMARK    3  A    between atoms: C_4  and  O_5
REMARK    4  A    between atoms: O_5  and  C_6
REMARK    5  A    between atoms: C_7  and  C_18
REMARK    6  A    between atoms: C_9  and  C_12
REMARK    7  A    between atoms: C_18  and  O_19
REMARK                            x       y       z     vdW  Elec       q    Type
REMARK                         _______ _______ _______ _____ _____    ______ ____
ROOT
ATOM      1  C   UNL     1       6.775  -3.402  24.329  0.00  0.00    +0.157 A 
ATOM      2  C   UNL     1       7.399  -2.178  24.747  0.00  0.00    +0.075 A 
ATOM      3 BR   UNL     1       7.207  -1.451  26.495  0.00  0.00    -0.045 Br
ATOM      4  C   UNL     1       8.112  -1.553  23.734  0.00  0.00    +0.038 A 
ATOM      5  S   UNL     1       7.897  -2.400  22.254  0.00  0.00    -0.077 S 
ATOM      6  C   UNL     1       6.919  -3.603  22.967  0.00  0.00    +0.139 A 
ENDROOT
BRANCH   4   7
ATOM      7  C   UNL     1       8.994  -0.368  23.738  0.00  0.00    -0.010 A 
ATOM      8  C   UNL     1       8.608   0.809  23.077  0.00  0.00    +0.009 A 
ATOM      9  C   UNL     1       9.393   1.963  23.138  0.00  0.00    +0.001 A 
ATOM     10  C   UNL     1      10.566   1.971  23.883  0.00  0.00    +0.000 A 
ATOM     11  C   UNL     1      10.974   0.814  24.542  0.00  0.00    +0.001 A 
ATOM     12  C   UNL     1      10.203  -0.349  24.458  0.00  0.00    +0.009 A 
ENDBRANCH   4   7
BRANCH   6  13
ATOM     13  C   UNL     1       6.369  -4.689  22.168  0.00  0.00    +0.347 C 
ATOM     14  O   UNL     1       7.035  -5.497  21.537  0.00  0.00    -0.244 OA
BRANCH  13  15
ATOM     15  O   UNL     1       5.012  -4.739  22.183  0.00  0.00    -0.477 OA
ATOM     16  H   UNL     1       4.610  -3.886  22.441  0.00  0.00    +0.295 HD
ENDBRANCH  13  15
ENDBRANCH   6  13
BRANCH   1  17
ATOM     17  O   UNL     1       6.015  -4.282  25.041  0.00  0.00    -0.478 OA
BRANCH  17  18
ATOM     18  C   UNL     1       6.724  -5.374  25.621  0.00  0.00    +0.349 C 
BRANCH  18  19
ATOM     19  C   UNL     1       6.783  -5.256  27.137  0.00  0.00    +0.343 C 
ATOM     20  O   UNL     1       6.020  -4.562  27.789  0.00  0.00    -0.247 OA
BRANCH  19  21
ATOM     21  O   UNL     1       7.766  -5.990  27.711  0.00  0.00    -0.478 OA
ATOM     22  H   UNL     1       7.806  -5.863  28.689  0.00  0.00    +0.295 HD
ENDBRANCH  19  21
ENDBRANCH  18  19
ENDBRANCH  17  18
ENDBRANCH   1  17
TORSDOF 7
ENDMDL
MODEL 8
REMARK VINA RESULT:      -5.5      4.103      7.042
REMARK  Name = 
REMARK  7 active torsions:
REMARK  status: ('A' for Active; 'I' for Inactive)
REMARK    1  A    between atoms: O_1  and  C_2
REMARK    2  A    between atoms: C_2  and  C_4
REMARK    3  A    between atoms: C_4  and  O_5
REMARK    4  A    between atoms: O_5  and  C_6
REMARK    5  A    between atoms: C_7  and  C_18
REMARK    6  A    between atoms: C_9  and  C_12
REMARK    7  A    between atoms: C_18  and  O_19
REMARK                            x       y       z     vdW  Elec       q    Type
REMARK                         _______ _______ _______ _____ _____    ______ ____
ROOT
ATOM      1  C   UNL     1       7.662  -0.862  23.449  0.00  0.00    +0.157 A 
ATOM      2  C   UNL     1       6.620  -1.541  24.168  0.00  0.00    +0.075 A 
ATOM      3 BR   UNL     1       5.450  -0.663  25.386  0.00  0.00    -0.045 Br
ATOM      4  C   UNL     1       6.587  -2.907  23.926  0.00  0.00    +0.038 A 
ATOM      5  S   UNL     1       7.912  -3.360  22.930  0.00  0.00    -0.077 S 
ATOM      6  C   UNL     1       8.482  -1.758  22.783  0.00  0.00    +0.139 A 
ENDROOT
BRANCH   4   7
ATOM      7  C   UNL     1       5.633  -3.956  24.340  0.00  0.00    -0.010 A 
ATOM      8  C   UNL     1       4.389  -4.077  23.701  0.00  0.00    +0.009 A 
ATOM      9  C   UNL     1       3.508  -5.113  24.024  0.00  0.00    +0.001 A 
ATOM     10  C   UNL     1       3.866  -6.062  24.975  0.00  0.00    +0.000 A 
ATOM     11  C   UNL     1       5.091  -5.959  25.628  0.00  0.00    +0.001 A 
ATOM     12  C   UNL     1       5.961  -4.907  25.324  0.00  0.00    +0.009 A 
ENDBRANCH   4   7
BRANCH   6  13
ATOM     13  C   UNL     1       9.676  -1.458  22.006  0.00  0.00    +0.347 C 
ATOM     14  O   UNL     1      10.805  -1.828  22.292  0.00  0.00    -0.244 OA
BRANCH  13  15
ATOM     15  O   UNL     1       9.429  -0.711  20.899  0.00  0.00    -0.477 OA
ATOM     16  H   UNL     1       8.869  -1.181  20.250  0.00  0.00    +0.295 HD
ENDBRANCH  13  15
ENDBRANCH   6  13
BRANCH   1  17
ATOM     17  O   UNL     1       7.989   0.461  23.427  0.00  0.00    -0.478 OA
BRANCH  17  18
ATOM     18  C   UNL     1       7.144   1.288  22.631  0.00  0.00    +0.349 C 
BRANCH  18  19
ATOM     19  C   UNL     1       7.915   2.452  22.027  0.00  0.00    +0.343 C 
ATOM     20  O   UNL     1       7.515   3.605  22.041  0.00  0.00    -0.247 OA
BRANCH  19  21
ATOM     21  O   UNL     1       9.095   2.101  21.462  0.00  0.00    -0.478 OA
ATOM     22  H   UNL     1       9.842   2.668  21.770  0.00  0.00    +0.295 HD
ENDBRANCH  19  21
ENDBRANCH  18  19
ENDBRANCH  17  18
ENDBRANCH   1  17
TORSDOF 7
ENDMDL
MODEL 9
REMARK VINA RESULT:      -5.5      4.129      6.778
REMARK  Name = 
REMARK  7 active torsions:
REMARK  status: ('A' for Active; 'I' for Inactive)
REMARK    1  A    between atoms: O_1  and  C_2
REMARK    2  A    between atoms: C_2  and  C_4
REMARK    3  A    between atoms: C_4  and  O_5
REMARK    4  A    between atoms: O_5  and  C_6
REMARK    5  A    between atoms: C_7  and  C_18
REMARK    6  A    between atoms: C_9  and  C_12
REMARK    7  A    between atoms: C_18  and  O_19
REMARK                            x       y       z     vdW  Elec       q    Type
REMARK                         _______ _______ _______ _____ _____    ______ ____
ROOT
ATOM      1  C   UNL     1       8.595  -0.396  24.503  0.00  0.00    +0.157 A 
ATOM      2  C   UNL     1       8.456  -1.345  23.433  0.00  0.00    +0.075 A 
ATOM      3 BR   UNL     1       9.392  -1.200  21.782  0.00  0.00    -0.045 Br
ATOM      4  C   UNL     1       7.534  -2.345  23.704  0.00  0.00    +0.038 A 
ATOM      5  S   UNL     1       6.754  -2.035  25.203  0.00  0.00    -0.077 S 
ATOM      6  C   UNL     1       7.669  -0.627  25.506  0.00  0.00    +0.139 A 
ENDROOT
BRANCH   4   7
ATOM      7  C   UNL     1       7.166  -3.571  22.965  0.00  0.00    -0.010 A 
ATOM      8  C   UNL     1       6.300  -3.503  21.863  0.00  0.00    +0.009 A 
ATOM      9  C   UNL     1       6.005  -4.639  21.104  0.00  0.00    +0.001 A 
ATOM     10  C   UNL     1       6.592  -5.859  21.419  0.00  0.00    +0.000 A 
ATOM     11  C   UNL     1       7.448  -5.953  22.512  0.00  0.00    +0.001 A 
ATOM     12  C   UNL     1       7.722  -4.822  23.287  0.00  0.00    +0.009 A 
ENDBRANCH   4   7
BRANCH   6  13
ATOM     13  C   UNL     1       7.456   0.158  26.713  0.00  0.00    +0.347 C 
ATOM     14  O   UNL     1       6.438   0.785  26.967  0.00  0.00    -0.244 OA
BRANCH  13  15
ATOM     15  O   UNL     1       8.512   0.135  27.567  0.00  0.00    -0.477 OA
ATOM     16  H   UNL     1       9.072   0.933  27.489  0.00  0.00    +0.295 HD
ENDBRANCH  13  15
ENDBRANCH   6  13
BRANCH   1  17
ATOM     17  O   UNL     1       9.402   0.698  24.601  0.00  0.00    -0.478 OA
BRANCH  17  18
ATOM     18  C   UNL     1       8.998   1.829  23.833  0.00  0.00    +0.349 C 
BRANCH  18  19
ATOM     19  C   UNL     1      10.157   2.398  23.028  0.00  0.00    +0.343 C 
ATOM     20  O   UNL     1      11.141   2.913  23.535  0.00  0.00    -0.247 OA
BRANCH  19  21
ATOM     21  O   UNL     1      10.006   2.289  21.687  0.00  0.00    -0.478 OA
ATOM     22  H   UNL     1       9.753   3.144  21.266  0.00  0.00    +0.295 HD
ENDBRANCH  19  21
ENDBRANCH  18  19
ENDBRANCH  17  18
ENDBRANCH   1  17
TORSDOF 7
ENDMDL
