MODEL 1
REMARK VINA RESULT:      -6.3      0.000      0.000
REMARK  Name = 
REMARK  12 active torsions:
REMARK  status: ('A' for Active; 'I' for Inactive)
REMARK    1  A    between atoms: C_1  and  C_2
REMARK    2  A    between atoms: C_2  and  N_3
REMARK    3  A    between atoms: C_4  and  C_6
REMARK    4  A    between atoms: C_7  and  C_8
REMARK    5  A    between atoms: C_7  and  C_9
REMARK    6  A    between atoms: C_10  and  C_11
REMARK    7  A    between atoms: C_12  and  C_13
REMARK    8  A    between atoms: C_12  and  C_14
REMARK    9  A    between atoms: C_15  and  C_16
REMARK   10  A    between atoms: C_17  and  C_18
REMARK   11  A    between atoms: C_22  and  C_23
REMARK   12  A    between atoms: C_22  and  C_24
REMARK                            x       y       z     vdW  Elec       q    Type
REMARK                         _______ _______ _______ _____ _____    ______ ____
ROOT
ATOM      1  C   UNL     1       6.564  -1.629  22.885  0.00  0.00    +0.003 C 
ATOM      2  C   UNL     1       6.512  -0.664  23.838  0.00  0.00    -0.050 C 
ATOM      3  C   UNL     1       5.755  -0.787  25.144  0.00  0.00    +0.044 C 
ENDROOT
BRANCH   1   5
ATOM      4  C   UNL     1       6.431  -4.130  22.692  0.00  0.00    +0.003 C 
ATOM      5  C   UNL     1       5.910  -2.921  22.975  0.00  0.00    +0.001 C 
BRANCH   4   7
ATOM      6  C   UNL     1       4.577  -5.453  23.612  0.00  0.00    +0.070 C 
ATOM      7  C   UNL     1       5.672  -5.393  22.823  0.00  0.00    -0.046 C 
ATOM      8  C   UNL     1       6.185  -6.571  22.019  0.00  0.00    +0.044 C 
BRANCH   6  11
ATOM      9  N   UNL     1       2.643  -6.800  23.145  0.00  0.00    -0.312 N 
ATOM     10  H   UNL     1       2.408  -6.090  22.466  0.00  0.00    +0.149 HD
ATOM     11  C   UNL     1       3.804  -6.703  23.876  0.00  0.00    +0.237 C 
ATOM     12  O   UNL     1       4.162  -7.551  24.682  0.00  0.00    -0.271 OA
BRANCH   9  14
ATOM     13  C   UNL     1       1.095  -8.268  21.915  0.00  0.00    +0.024 C 
ATOM     14  C   UNL     1       1.807  -7.985  23.227  0.00  0.00    +0.101 C 
ENDBRANCH   9  14
ENDBRANCH   6  11
ENDBRANCH   4   7
ENDBRANCH   1   5
BRANCH   2  15
ATOM     15  C   UNL     1       7.233   0.603  23.632  0.00  0.00    +0.003 C 
ATOM     16  C   UNL     1       8.142   1.129  24.476  0.00  0.00    +0.004 C 
BRANCH  16  17
ATOM     17  C   UNL     1       8.865   2.388  24.281  0.00  0.00    -0.043 C 
ATOM     18  C   UNL     1      10.205   2.267  23.533  0.00  0.00    -0.010 C 
ATOM     19  C   UNL     1      11.099   1.186  24.196  0.00  0.00    +0.016 C 
ATOM     20  C   UNL     1       9.952   1.831  22.066  0.00  0.00    +0.016 C 
ATOM     21  C   UNL     1      11.059   3.569  23.482  0.00  0.00    +0.011 C 
ATOM     22  C   UNL     1      10.447   4.888  23.922  0.00  0.00    +0.005 C 
ATOM     23  C   UNL     1       9.039   4.888  24.484  0.00  0.00    +0.031 C 
ATOM     24  C   UNL     1       8.338   3.571  24.661  0.00  0.00    -0.069 C 
ATOM     25  C   UNL     1       6.959   3.752  25.263  0.00  0.00    +0.039 C 
ENDBRANCH  16  17
ENDBRANCH   2  15
TORSDOF 6
ENDMDL
MODEL 2
REMARK VINA RESULT:      -6.2      4.518     10.355
REMARK  Name = 
REMARK  12 active torsions:
REMARK  status: ('A' for Active; 'I' for Inactive)
REMARK    1  A    between atoms: C_1  and  C_2
REMARK    2  A    between atoms: C_2  and  N_3
REMARK    3  A    between atoms: C_4  and  C_6
REMARK    4  A    between atoms: C_7  and  C_8
REMARK    5  A    between atoms: C_7  and  C_9
REMARK    6  A    between atoms: C_10  and  C_11
REMARK    7  A    between atoms: C_12  and  C_13
REMARK    8  A    between atoms: C_12  and  C_14
REMARK    9  A    between atoms: C_15  and  C_16
REMARK   10  A    between atoms: C_17  and  C_18
REMARK   11  A    between atoms: C_22  and  C_23
REMARK   12  A    between atoms: C_22  and  C_24
REMARK                            x       y       z     vdW  Elec       q    Type
REMARK                         _______ _______ _______ _____ _____    ______ ____
ROOT
ATOM      1  C   UNL     1       7.725  -1.458  23.324  0.00  0.00    +0.003 C 
ATOM      2  C   UNL     1       8.368  -2.571  23.762  0.00  0.00    -0.050 C 
ATOM      3  C   UNL     1       9.866  -2.674  23.961  0.00  0.00    +0.044 C 
ENDROOT
BRANCH   1   5
ATOM      4  C   UNL     1       8.584   0.855  23.793  0.00  0.00    +0.003 C 
ATOM      5  C   UNL     1       8.371  -0.203  22.989  0.00  0.00    +0.001 C 
BRANCH   4   7
ATOM      6  C   UNL     1       9.324   3.169  24.160  0.00  0.00    +0.070 C 
ATOM      7  C   UNL     1       9.261   2.092  23.346  0.00  0.00    -0.046 C 
ATOM      8  C   UNL     1       9.875   2.059  21.961  0.00  0.00    +0.044 C 
BRANCH   6  11
ATOM      9  N   UNL     1      11.276   4.535  23.848  0.00  0.00    -0.312 N 
ATOM     10  H   UNL     1      11.799   3.711  24.110  0.00  0.00    +0.149 HD
ATOM     11  C   UNL     1       9.904   4.486  23.762  0.00  0.00    +0.237 C 
ATOM     12  O   UNL     1       9.219   5.437  23.411  0.00  0.00    -0.271 OA
BRANCH   9  14
ATOM     13  C   UNL     1      13.142   5.376  22.481  0.00  0.00    +0.024 C 
ATOM     14  C   UNL     1      12.007   5.717  23.431  0.00  0.00    +0.101 C 
ENDBRANCH   9  14
ENDBRANCH   6  11
ENDBRANCH   4   7
ENDBRANCH   1   5
BRANCH   2  15
ATOM     15  C   UNL     1       7.593  -3.781  24.082  0.00  0.00    +0.003 C 
ATOM     16  C   UNL     1       6.422  -3.803  24.747  0.00  0.00    +0.004 C 
BRANCH  16  17
ATOM     17  C   UNL     1       5.642  -5.000  25.071  0.00  0.00    -0.043 C 
ATOM     18  C   UNL     1       4.811  -5.577  23.911  0.00  0.00    -0.010 C 
ATOM     19  C   UNL     1       3.930  -4.471  23.273  0.00  0.00    +0.016 C 
ATOM     20  C   UNL     1       5.756  -6.119  22.805  0.00  0.00    +0.016 C 
ATOM     21  C   UNL     1       3.846  -6.738  24.295  0.00  0.00    +0.011 C 
ATOM     22  C   UNL     1       3.952  -7.382  25.667  0.00  0.00    +0.005 C 
ATOM     23  C   UNL     1       4.947  -6.818  26.662  0.00  0.00    +0.031 C 
ATOM     24  C   UNL     1       5.725  -5.591  26.282  0.00  0.00    -0.069 C 
ATOM     25  C   UNL     1       6.643  -5.144  27.402  0.00  0.00    +0.039 C 
ENDBRANCH  16  17
ENDBRANCH   2  15
TORSDOF 6
ENDMDL
MODEL 3
REMARK VINA RESULT:      -6.1      4.689     10.523
REMARK  Name = 
REMARK  12 active torsions:
REMARK  status: ('A' for Active; 'I' for Inactive)
REMARK    1  A    between atoms: C_1  and  C_2
REMARK    2  A    between atoms: C_2  and  N_3
REMARK    3  A    between atoms: C_4  and  C_6
REMARK    4  A    between atoms: C_7  and  C_8
REMARK    5  A    between atoms: C_7  and  C_9
REMARK    6  A    between atoms: C_10  and  C_11
REMARK    7  A    between atoms: C_12  and  C_13
REMARK    8  A    between atoms: C_12  and  C_14
REMARK    9  A    between atoms: C_15  and  C_16
REMARK   10  A    between atoms: C_17  and  C_18
REMARK   11  A    between atoms: C_22  and  C_23
REMARK   12  A    between atoms: C_22  and  C_24
REMARK                            x       y       z     vdW  Elec       q    Type
REMARK                         _______ _______ _______ _____ _____    ______ ____
ROOT
ATOM      1  C   UNL     1       7.241  -0.481  23.642  0.00  0.00    +0.003 C 
ATOM      2  C   UNL     1       7.520  -1.787  23.401  0.00  0.00    -0.050 C 
ATOM      3  C   UNL     1       8.755  -2.282  22.675  0.00  0.00    +0.044 C 
ENDROOT
BRANCH   1   5
ATOM      4  C   UNL     1       8.696   1.525  24.051  0.00  0.00    +0.003 C 
ATOM      5  C   UNL     1       8.082   0.634  23.250  0.00  0.00    +0.001 C 
BRANCH   4   7
ATOM      6  C   UNL     1       9.599   3.805  24.206  0.00  0.00    +0.070 C 
ATOM      7  C   UNL     1       9.540   2.629  23.543  0.00  0.00    -0.046 C 
ATOM      8  C   UNL     1      10.322   2.347  22.275  0.00  0.00    +0.044 C 
BRANCH   6  11
ATOM      9  N   UNL     1      11.715   4.864  23.790  0.00  0.00    -0.312 N 
ATOM     10  H   UNL     1      12.123   3.992  24.096  0.00  0.00    +0.149 HD
ATOM     11  C   UNL     1      10.348   5.002  23.722  0.00  0.00    +0.237 C 
ATOM     12  O   UNL     1       9.795   6.017  23.320  0.00  0.00    -0.271 OA
BRANCH   9  14
ATOM     13  C   UNL     1      13.245   5.518  21.975  0.00  0.00    +0.024 C 
ATOM     14  C   UNL     1      12.595   5.906  23.292  0.00  0.00    +0.101 C 
ENDBRANCH   9  14
ENDBRANCH   6  11
ENDBRANCH   4   7
ENDBRANCH   1   5
BRANCH   2  15
ATOM     15  C   UNL     1       6.588  -2.829  23.863  0.00  0.00    +0.003 C 
ATOM     16  C   UNL     1       6.940  -4.063  24.273  0.00  0.00    +0.004 C 
BRANCH  16  17
ATOM     17  C   UNL     1       6.023  -5.107  24.735  0.00  0.00    -0.043 C 
ATOM     18  C   UNL     1       5.859  -5.209  26.262  0.00  0.00    -0.010 C 
ATOM     19  C   UNL     1       7.246  -5.315  26.950  0.00  0.00    +0.016 C 
ATOM     20  C   UNL     1       5.164  -3.932  26.804  0.00  0.00    +0.016 C 
ATOM     21  C   UNL     1       5.029  -6.428  26.765  0.00  0.00    +0.011 C 
ATOM     22  C   UNL     1       4.246  -7.266  25.768  0.00  0.00    +0.005 C 
ATOM     23  C   UNL     1       4.363  -6.943  24.291  0.00  0.00    +0.031 C 
ATOM     24  C   UNL     1       5.315  -5.861  23.867  0.00  0.00    -0.069 C 
ATOM     25  C   UNL     1       5.332  -5.694  22.361  0.00  0.00    +0.039 C 
ENDBRANCH  16  17
ENDBRANCH   2  15
TORSDOF 6
ENDMDL
MODEL 4
REMARK VINA RESULT:      -6.0      4.695     10.455
REMARK  Name = 
REMARK  12 active torsions:
REMARK  status: ('A' for Active; 'I' for Inactive)
REMARK    1  A    between atoms: C_1  and  C_2
REMARK    2  A    between atoms: C_2  and  N_3
REMARK    3  A    between atoms: C_4  and  C_6
REMARK    4  A    between atoms: C_7  and  C_8
REMARK    5  A    between atoms: C_7  and  C_9
REMARK    6  A    between atoms: C_10  and  C_11
REMARK    7  A    between atoms: C_12  and  C_13
REMARK    8  A    between atoms: C_12  and  C_14
REMARK    9  A    between atoms: C_15  and  C_16
REMARK   10  A    between atoms: C_17  and  C_18
REMARK   11  A    between atoms: C_22  and  C_23
REMARK   12  A    between atoms: C_22  and  C_24
REMARK                            x       y       z     vdW  Elec       q    Type
REMARK                         _______ _______ _______ _____ _____    ______ ____
ROOT
ATOM      1  C   UNL     1       7.360   0.076  24.669  0.00  0.00    +0.003 C 
ATOM      2  C   UNL     1       7.527  -0.914  25.582  0.00  0.00    -0.050 C 
ATOM      3  C   UNL     1       8.525  -0.872  26.721  0.00  0.00    +0.044 C 
ENDROOT
BRANCH   1   5
ATOM      4  C   UNL     1       7.612   2.575  24.719  0.00  0.00    +0.003 C 
ATOM      5  C   UNL     1       8.102   1.323  24.650  0.00  0.00    +0.001 C 
BRANCH   4   7
ATOM      6  C   UNL     1       9.411   3.933  23.744  0.00  0.00    +0.070 C 
ATOM      7  C   UNL     1       8.464   3.783  24.695  0.00  0.00    -0.046 C 
ATOM      8  C   UNL     1       8.194   4.817  25.771  0.00  0.00    +0.044 C 
BRANCH   6  11
ATOM      9  N   UNL     1      11.673   4.689  23.446  0.00  0.00    -0.312 N 
ATOM     10  H   UNL     1      11.891   3.719  23.267  0.00  0.00    +0.149 HD
ATOM     11  C   UNL     1      10.376   5.072  23.695  0.00  0.00    +0.237 C 
ATOM     12  O   UNL     1      10.043   6.236  23.878  0.00  0.00    -0.271 OA
BRANCH   9  14
ATOM     13  C   UNL     1      13.392   5.591  21.932  0.00  0.00    +0.024 C 
ATOM     14  C   UNL     1      12.726   5.677  23.295  0.00  0.00    +0.101 C 
ENDBRANCH   9  14
ENDBRANCH   6  11
ENDBRANCH   4   7
ENDBRANCH   1   5
BRANCH   2  15
ATOM     15  C   UNL     1       6.700  -2.129  25.498  0.00  0.00    +0.003 C 
ATOM     16  C   UNL     1       7.110  -3.320  25.019  0.00  0.00    +0.004 C 
BRANCH  16  17
ATOM     17  C   UNL     1       6.297  -4.535  24.931  0.00  0.00    -0.043 C 
ATOM     18  C   UNL     1       5.848  -4.924  23.511  0.00  0.00    -0.010 C 
ATOM     19  C   UNL     1       5.162  -3.721  22.811  0.00  0.00    +0.016 C 
ATOM     20  C   UNL     1       7.082  -5.321  22.658  0.00  0.00    +0.016 C 
ATOM     21  C   UNL     1       4.839  -6.108  23.432  0.00  0.00    +0.011 C 
ATOM     22  C   UNL     1       4.561  -6.944  24.670  0.00  0.00    +0.005 C 
ATOM     23  C   UNL     1       5.215  -6.547  25.980  0.00  0.00    +0.031 C 
ATOM     24  C   UNL     1       6.042  -5.294  26.018  0.00  0.00    -0.069 C 
ATOM     25  C   UNL     1       6.588  -5.030  27.406  0.00  0.00    +0.039 C 
ENDBRANCH  16  17
ENDBRANCH   2  15
TORSDOF 6
ENDMDL
MODEL 5
REMARK VINA RESULT:      -5.6      4.744     10.555
REMARK  Name = 
REMARK  12 active torsions:
REMARK  status: ('A' for Active; 'I' for Inactive)
REMARK    1  A    between atoms: C_1  and  C_2
REMARK    2  A    between atoms: C_2  and  N_3
REMARK    3  A    between atoms: C_4  and  C_6
REMARK    4  A    between atoms: C_7  and  C_8
REMARK    5  A    between atoms: C_7  and  C_9
REMARK    6  A    between atoms: C_10  and  C_11
REMARK    7  A    between atoms: C_12  and  C_13
REMARK    8  A    between atoms: C_12  and  C_14
REMARK    9  A    between atoms: C_15  and  C_16
REMARK   10  A    between atoms: C_17  and  C_18
REMARK   11  A    between atoms: C_22  and  C_23
REMARK   12  A    between atoms: C_22  and  C_24
REMARK                            x       y       z     vdW  Elec       q    Type
REMARK                         _______ _______ _______ _____ _____    ______ ____
ROOT
ATOM      1  C   UNL     1       7.289   0.023  24.535  0.00  0.00    +0.003 C 
ATOM      2  C   UNL     1       7.447  -1.012  25.398  0.00  0.00    -0.050 C 
ATOM      3  C   UNL     1       8.481  -1.057  26.505  0.00  0.00    +0.044 C 
ENDROOT
BRANCH   1   5
ATOM      4  C   UNL     1       7.631   2.512  24.545  0.00  0.00    +0.003 C 
ATOM      5  C   UNL     1       8.077   1.242  24.546  0.00  0.00    +0.001 C 
BRANCH   4   7
ATOM      6  C   UNL     1       9.437   3.867  23.577  0.00  0.00    +0.070 C 
ATOM      7  C   UNL     1       8.528   3.688  24.561  0.00  0.00    -0.046 C 
ATOM      8  C   UNL     1       8.347   4.656  25.713  0.00  0.00    +0.044 C 
BRANCH   6  11
ATOM      9  N   UNL     1      11.738   4.538  23.408  0.00  0.00    -0.312 N 
ATOM     10  H   UNL     1      11.933   3.555  23.274  0.00  0.00    +0.149 HD
ATOM     11  C   UNL     1      10.442   4.972  23.557  0.00  0.00    +0.237 C 
ATOM     12  O   UNL     1      10.139   6.151  23.681  0.00  0.00    -0.271 OA
BRANCH   9  14
ATOM     13  C   UNL     1      13.326   5.616  21.866  0.00  0.00    +0.024 C 
ATOM     14  C   UNL     1      12.833   5.484  23.297  0.00  0.00    +0.101 C 
ENDBRANCH   9  14
ENDBRANCH   6  11
ENDBRANCH   4   7
ENDBRANCH   1   5
BRANCH   2  15
ATOM     15  C   UNL     1       6.572  -2.191  25.290  0.00  0.00    +0.003 C 
ATOM     16  C   UNL     1       6.992  -3.465  25.165  0.00  0.00    +0.004 C 
BRANCH  16  17
ATOM     17  C   UNL     1       6.132  -4.645  25.057  0.00  0.00    -0.043 C 
ATOM     18  C   UNL     1       5.659  -5.238  26.397  0.00  0.00    -0.010 C 
ATOM     19  C   UNL     1       6.869  -5.492  27.334  0.00  0.00    +0.016 C 
ATOM     20  C   UNL     1       4.714  -4.236  27.112  0.00  0.00    +0.016 C 
ATOM     21  C   UNL     1       4.895  -6.592  26.294  0.00  0.00    +0.011 C 
ATOM     22  C   UNL     1       4.452  -7.104  24.934  0.00  0.00    +0.005 C 
ATOM     23  C   UNL     1       4.842  -6.319  23.696  0.00  0.00    +0.031 C 
ATOM     24  C   UNL     1       5.723  -5.114  23.859  0.00  0.00    -0.069 C 
ATOM     25  C   UNL     1       6.041  -4.473  22.524  0.00  0.00    +0.039 C 
ENDBRANCH  16  17
ENDBRANCH   2  15
TORSDOF 6
ENDMDL
MODEL 6
REMARK VINA RESULT:      -5.5      1.319      2.680
REMARK  Name = 
REMARK  12 active torsions:
REMARK  status: ('A' for Active; 'I' for Inactive)
REMARK    1  A    between atoms: C_1  and  C_2
REMARK    2  A    between atoms: C_2  and  N_3
REMARK    3  A    between atoms: C_4  and  C_6
REMARK    4  A    between atoms: C_7  and  C_8
REMARK    5  A    between atoms: C_7  and  C_9
REMARK    6  A    between atoms: C_10  and  C_11
REMARK    7  A    between atoms: C_12  and  C_13
REMARK    8  A    between atoms: C_12  and  C_14
REMARK    9  A    between atoms: C_15  and  C_16
REMARK   10  A    between atoms: C_17  and  C_18
REMARK   11  A    between atoms: C_22  and  C_23
REMARK   12  A    between atoms: C_22  and  C_24
REMARK                            x       y       z     vdW  Elec       q    Type
REMARK                         _______ _______ _______ _____ _____    ______ ____
ROOT
ATOM      1  C   UNL     1       5.943  -1.945  23.684  0.00  0.00    +0.003 C 
ATOM      2  C   UNL     1       7.191  -1.906  23.154  0.00  0.00    -0.050 C 
ATOM      3  C   UNL     1       7.953  -3.119  22.661  0.00  0.00    +0.044 C 
ENDROOT
BRANCH   1   5
ATOM      4  C   UNL     1       4.803  -3.753  25.003  0.00  0.00    +0.003 C 
ATOM      5  C   UNL     1       5.148  -3.147  23.852  0.00  0.00    +0.001 C 
BRANCH   4   7
ATOM      6  C   UNL     1       4.109  -5.935  24.112  0.00  0.00    +0.070 C 
ATOM      7  C   UNL     1       3.980  -4.981  25.060  0.00  0.00    -0.046 C 
ATOM      8  C   UNL     1       3.027  -5.097  26.233  0.00  0.00    +0.044 C 
BRANCH   6  11
ATOM      9  N   UNL     1       2.238  -7.071  23.120  0.00  0.00    -0.312 N 
ATOM     10  H   UNL     1       2.147  -6.250  22.538  0.00  0.00    +0.149 HD
ATOM     11  C   UNL     1       3.260  -7.161  24.037  0.00  0.00    +0.237 C 
ATOM     12  O   UNL     1       3.446  -8.144  24.740  0.00  0.00    -0.271 OA
BRANCH   9  14
ATOM     13  C   UNL     1       1.020  -8.337  21.395  0.00  0.00    +0.024 C 
ATOM     14  C   UNL     1       1.361  -8.201  22.869  0.00  0.00    +0.101 C 
ENDBRANCH   9  14
ENDBRANCH   6  11
ENDBRANCH   4   7
ENDBRANCH   1   5
BRANCH   2  15
ATOM     15  C   UNL     1       7.889  -0.615  23.027  0.00  0.00    +0.003 C 
ATOM     16  C   UNL     1       7.953   0.333  23.981  0.00  0.00    +0.004 C 
BRANCH  16  17
ATOM     17  C   UNL     1       8.643   1.620  23.867  0.00  0.00    -0.043 C 
ATOM     18  C   UNL     1       7.726   2.845  23.696  0.00  0.00    -0.010 C 
ATOM     19  C   UNL     1       6.732   2.618  22.526  0.00  0.00    +0.016 C 
ATOM     20  C   UNL     1       6.890   3.061  24.985  0.00  0.00    +0.016 C 
ATOM     21  C   UNL     1       8.456   4.188  23.395  0.00  0.00    +0.011 C 
ATOM     22  C   UNL     1       9.967   4.270  23.533  0.00  0.00    +0.005 C 
ATOM     23  C   UNL     1      10.737   3.011  23.881  0.00  0.00    +0.031 C 
ATOM     24  C   UNL     1       9.983   1.716  23.991  0.00  0.00    -0.069 C 
ATOM     25  C   UNL     1      10.909   0.559  24.308  0.00  0.00    +0.039 C 
ENDBRANCH  16  17
ENDBRANCH   2  15
TORSDOF 6
ENDMDL
MODEL 7
REMARK VINA RESULT:      -5.4      4.217     10.177
REMARK  Name = 
REMARK  12 active torsions:
REMARK  status: ('A' for Active; 'I' for Inactive)
REMARK    1  A    between atoms: C_1  and  C_2
REMARK    2  A    between atoms: C_2  and  N_3
REMARK    3  A    between atoms: C_4  and  C_6
REMARK    4  A    between atoms: C_7  and  C_8
REMARK    5  A    between atoms: C_7  and  C_9
REMARK    6  A    between atoms: C_10  and  C_11
REMARK    7  A    between atoms: C_12  and  C_13
REMARK    8  A    between atoms: C_12  and  C_14
REMARK    9  A    between atoms: C_15  and  C_16
REMARK   10  A    between atoms: C_17  and  C_18
REMARK   11  A    between atoms: C_22  and  C_23
REMARK   12  A    between atoms: C_22  and  C_24
REMARK                            x       y       z     vdW  Elec       q    Type
REMARK                         _______ _______ _______ _____ _____    ______ ____
ROOT
ATOM      1  C   UNL     1       6.555  -1.341  23.883  0.00  0.00    +0.003 C 
ATOM      2  C   UNL     1       5.727  -1.386  24.956  0.00  0.00    -0.050 C 
ATOM      3  C   UNL     1       5.474  -0.224  25.895  0.00  0.00    +0.044 C 
ENDROOT
BRANCH   1   5
ATOM      4  C   UNL     1       8.599   0.113  23.751  0.00  0.00    +0.003 C 
ATOM      5  C   UNL     1       7.315  -0.178  23.467  0.00  0.00    +0.001 C 
BRANCH   4   7
ATOM      6  C   UNL     1       9.531   2.356  24.116  0.00  0.00    +0.070 C 
ATOM      7  C   UNL     1       9.281   1.334  23.269  0.00  0.00    -0.046 C 
ATOM      8  C   UNL     1       9.684   1.346  21.808  0.00  0.00    +0.044 C 
BRANCH   6  11
ATOM      9  N   UNL     1       9.223   4.690  23.633  0.00  0.00    -0.312 N 
ATOM     10  H   UNL     1       8.260   4.538  23.900  0.00  0.00    +0.149 HD
ATOM     11  C   UNL     1      10.131   3.659  23.702  0.00  0.00    +0.237 C 
ATOM     12  O   UNL     1      11.317   3.791  23.431  0.00  0.00    -0.271 OA
BRANCH   9  14
ATOM     13  C   UNL     1       9.585   6.955  24.525  0.00  0.00    +0.024 C 
ATOM     14  C   UNL     1       9.650   6.040  23.314  0.00  0.00    +0.101 C 
ENDBRANCH   9  14
ENDBRANCH   6  11
ENDBRANCH   4   7
ENDBRANCH   1   5
BRANCH   2  15
ATOM     15  C   UNL     1       5.000  -2.629  25.265  0.00  0.00    +0.003 C 
ATOM     16  C   UNL     1       4.395  -3.423  24.359  0.00  0.00    +0.004 C 
BRANCH  16  17
ATOM     17  C   UNL     1       3.669  -4.660  24.653  0.00  0.00    -0.043 C 
ATOM     18  C   UNL     1       4.504  -5.950  24.554  0.00  0.00    -0.010 C 
ATOM     19  C   UNL     1       5.231  -6.020  23.185  0.00  0.00    +0.016 C 
ATOM     20  C   UNL     1       5.589  -5.963  25.662  0.00  0.00    +0.016 C 
ATOM     21  C   UNL     1       3.699  -7.277  24.689  0.00  0.00    +0.011 C 
ATOM     22  C   UNL     1       2.250  -7.235  25.145  0.00  0.00    +0.005 C 
ATOM     23  C   UNL     1       1.597  -5.886  25.377  0.00  0.00    +0.031 C 
ATOM     24  C   UNL     1       2.384  -4.646  25.064  0.00  0.00    -0.069 C 
ATOM     25  C   UNL     1       1.571  -3.392  25.320  0.00  0.00    +0.039 C 
ENDBRANCH  16  17
ENDBRANCH   2  15
TORSDOF 6
ENDMDL
MODEL 8
REMARK VINA RESULT:      -5.3      1.521      3.031
REMARK  Name = 
REMARK  12 active torsions:
REMARK  status: ('A' for Active; 'I' for Inactive)
REMARK    1  A    between atoms: C_1  and  C_2
REMARK    2  A    between atoms: C_2  and  N_3
REMARK    3  A    between atoms: C_4  and  C_6
REMARK    4  A    between atoms: C_7  and  C_8
REMARK    5  A    between atoms: C_7  and  C_9
REMARK    6  A    between atoms: C_10  and  C_11
REMARK    7  A    between atoms: C_12  and  C_13
REMARK    8  A    between atoms: C_12  and  C_14
REMARK    9  A    between atoms: C_15  and  C_16
REMARK   10  A    between atoms: C_17  and  C_18
REMARK   11  A    between atoms: C_22  and  C_23
REMARK   12  A    between atoms: C_22  and  C_24
REMARK                            x       y       z     vdW  Elec       q    Type
REMARK                         _______ _______ _______ _____ _____    ______ ____
ROOT
ATOM      1  C   UNL     1       6.764   0.015  23.467  0.00  0.00    +0.003 C 
ATOM      2  C   UNL     1       7.914   0.436  22.883  0.00  0.00    -0.050 C 
ATOM      3  C   UNL     1       8.877  -0.464  22.136  0.00  0.00    +0.044 C 
ENDROOT
BRANCH   1   5
ATOM      4  C   UNL     1       6.132  -2.183  24.506  0.00  0.00    +0.003 C 
ATOM      5  C   UNL     1       6.279  -1.353  23.457  0.00  0.00    +0.001 C 
BRANCH   4   7
ATOM      6  C   UNL     1       4.998  -3.966  23.254  0.00  0.00    +0.070 C 
ATOM      7  C   UNL     1       5.621  -3.566  24.383  0.00  0.00    -0.046 C 
ATOM      8  C   UNL     1       5.856  -4.476  25.572  0.00  0.00    +0.044 C 
BRANCH   6  11
ATOM      9  N   UNL     1       3.004  -5.307  23.223  0.00  0.00    -0.312 N 
ATOM     10  H   UNL     1       2.512  -4.440  23.384  0.00  0.00    +0.149 HD
ATOM     11  C   UNL     1       4.372  -5.310  23.074  0.00  0.00    +0.237 C 
ATOM     12  O   UNL     1       5.019  -6.321  22.837  0.00  0.00    -0.271 OA
BRANCH   9  14
ATOM     13  C   UNL     1       0.842  -6.213  22.472  0.00  0.00    +0.024 C 
ATOM     14  C   UNL     1       2.229  -6.516  23.011  0.00  0.00    +0.101 C 
ENDBRANCH   9  14
ENDBRANCH   6  11
ENDBRANCH   4   7
ENDBRANCH   1   5
BRANCH   2  15
ATOM     15  C   UNL     1       8.289   1.858  22.954  0.00  0.00    +0.003 C 
ATOM     16  C   UNL     1       8.452   2.565  24.089  0.00  0.00    +0.004 C 
BRANCH  16  17
ATOM     17  C   UNL     1       8.824   3.979  24.172  0.00  0.00    -0.043 C 
ATOM     18  C   UNL     1       7.769   4.900  24.811  0.00  0.00    -0.010 C 
ATOM     19  C   UNL     1       6.393   4.707  24.121  0.00  0.00    +0.016 C 
ATOM     20  C   UNL     1       7.595   4.542  26.311  0.00  0.00    +0.016 C 
ATOM     21  C   UNL     1       8.083   6.424  24.740  0.00  0.00    +0.011 C 
ATOM     22  C   UNL     1       9.461   6.888  24.299  0.00  0.00    +0.005 C 
ATOM     23  C   UNL     1      10.474   5.850  23.856  0.00  0.00    +0.031 C 
ATOM     24  C   UNL     1      10.044   4.412  23.790  0.00  0.00    -0.069 C 
ATOM     25  C   UNL     1      11.165   3.519  23.297  0.00  0.00    +0.039 C 
ENDBRANCH  16  17
ENDBRANCH   2  15
TORSDOF 6
ENDMDL
MODEL 9
REMARK VINA RESULT:      -5.0      4.280     10.463
REMARK  Name = 
REMARK  12 active torsions:
REMARK  status: ('A' for Active; 'I' for Inactive)
REMARK    1  A    between atoms: C_1  and  C_2
REMARK    2  A    between atoms: C_2  and  N_3
REMARK    3  A    between atoms: C_4  and  C_6
REMARK    4  A    between atoms: C_7  and  C_8
REMARK    5  A    between atoms: C_7  and  C_9
REMARK    6  A    between atoms: C_10  and  C_11
REMARK    7  A    between atoms: C_12  and  C_13
REMARK    8  A    between atoms: C_12  and  C_14
REMARK    9  A    between atoms: C_15  and  C_16
REMARK   10  A    between atoms: C_17  and  C_18
REMARK   11  A    between atoms: C_22  and  C_23
REMARK   12  A    between atoms: C_22  and  C_24
REMARK                            x       y       z     vdW  Elec       q    Type
REMARK                         _______ _______ _______ _____ _____    ______ ____
ROOT
ATOM      1  C   UNL     1       6.608  -3.783  24.948  0.00  0.00    +0.003 C 
ATOM      2  C   UNL     1       6.779  -4.890  25.713  0.00  0.00    -0.050 C 
ATOM      3  C   UNL     1       8.077  -5.270  26.395  0.00  0.00    +0.044 C 
ENDROOT
BRANCH   1   5
ATOM      4  C   UNL     1       7.894  -2.177  23.507  0.00  0.00    +0.003 C 
ATOM      5  C   UNL     1       7.634  -2.795  24.674  0.00  0.00    +0.001 C 
BRANCH   4   7
ATOM      6  C   UNL     1       9.217  -0.269  24.310  0.00  0.00    +0.070 C 
ATOM      7  C   UNL     1       8.970  -1.176  23.339  0.00  0.00    -0.046 C 
ATOM      8  C   UNL     1       9.760  -1.250  22.048  0.00  0.00    +0.044 C 
BRANCH   6  11
ATOM      9  N   UNL     1       9.693   2.007  23.703  0.00  0.00    -0.312 N 
ATOM     10  H   UNL     1       8.704   2.080  23.510  0.00  0.00    +0.149 HD
ATOM     11  C   UNL     1      10.218   0.832  24.190  0.00  0.00    +0.237 C 
ATOM     12  O   UNL     1      11.398   0.695  24.482  0.00  0.00    -0.271 OA
BRANCH   9  14
ATOM     13  C   UNL     1       9.703   4.466  23.815  0.00  0.00    +0.024 C 
ATOM     14  C   UNL     1      10.513   3.200  23.592  0.00  0.00    +0.101 C 
ENDBRANCH   9  14
ENDBRANCH   6  11
ENDBRANCH   4   7
ENDBRANCH   1   5
BRANCH   2  15
ATOM     15  C   UNL     1       5.649  -5.811  25.924  0.00  0.00    +0.003 C 
ATOM     16  C   UNL     1       4.369  -5.441  26.125  0.00  0.00    +0.004 C 
BRANCH  16  17
ATOM     17  C   UNL     1       3.238  -6.347  26.336  0.00  0.00    -0.043 C 
ATOM     18  C   UNL     1       2.724  -6.429  27.785  0.00  0.00    -0.010 C 
ATOM     19  C   UNL     1       3.893  -6.733  28.758  0.00  0.00    +0.016 C 
ATOM     20  C   UNL     1       2.107  -5.068  28.203  0.00  0.00    +0.016 C 
ATOM     21  C   UNL     1       1.643  -7.520  28.048  0.00  0.00    +0.011 C 
ATOM     22  C   UNL     1       0.996  -8.236  26.874  0.00  0.00    +0.005 C 
ATOM     23  C   UNL     1       1.484  -7.927  25.472  0.00  0.00    +0.031 C 
ATOM     24  C   UNL     1       2.646  -6.990  25.308  0.00  0.00    -0.069 C 
ATOM     25  C   UNL     1       3.023  -6.822  23.849  0.00  0.00    +0.039 C 
ENDBRANCH  16  17
ENDBRANCH   2  15
TORSDOF 6
ENDMDL
