MODEL 1
REMARK VINA RESULT:      -3.8      0.000      0.000
REMARK  Name = 
REMARK  3 active torsions:
REMARK  status: ('A' for Active; 'I' for Inactive)
REMARK    1  A    between atoms: N_1  and  C_2
REMARK    2  A    between atoms: C_2  and  P_5
REMARK    3  A    between atoms: P_5  and  O_6
REMARK                            x       y       z     vdW  Elec       q    Type
REMARK                         _______ _______ _______ _____ _____    ______ ____
ROOT
ATOM      1  C   UNL     1       8.530  -5.039  24.980  0.00  0.00    +0.081 C 
ATOM      2  C   UNL     1       7.953  -5.215  23.597  0.00  0.00    +0.033 C 
ATOM      3  C   UNL     1       8.497  -3.880  24.011  0.00  0.00    +0.033 C 
ENDROOT
BRANCH   1   4
ATOM      4  N   UNL     1       9.867  -5.653  25.288  0.00  0.00    -0.318 NA
ATOM      5  H   UNL     1       9.802  -6.572  24.824  0.00  0.00    +0.119 HD
ATOM      6  H   UNL     1       9.786  -5.954  26.262  0.00  0.00    +0.119 HD
ENDBRANCH   1   4
BRANCH   1   7
ATOM      7  P   UNL     1       7.287  -5.023  26.408  0.00  0.00    +0.154 P 
ATOM      8  O   UNL     1       7.392  -3.600  26.879  0.00  0.00    -0.305 OA
ATOM      9  O   UNL     1       6.072  -5.731  25.898  0.00  0.00    -0.780 OA
BRANCH   7  10
ATOM     10  O   UNL     1       8.025  -5.967  27.485  0.00  0.00    -0.352 OA
ATOM     11  H   UNL     1       7.739  -6.873  27.282  0.00  0.00    +0.217 HD
ENDBRANCH   7  10
ENDBRANCH   1   7
TORSDOF 3
ENDMDL
MODEL 2
REMARK VINA RESULT:      -3.7      2.681      3.160
REMARK  Name = 
REMARK  3 active torsions:
REMARK  status: ('A' for Active; 'I' for Inactive)
REMARK    1  A    between atoms: N_1  and  C_2
REMARK    2  A    between atoms: C_2  and  P_5
REMARK    3  A    between atoms: P_5  and  O_6
REMARK                            x       y       z     vdW  Elec       q    Type
REMARK                         _______ _______ _______ _____ _____    ______ ____
ROOT
ATOM      1  C   UNL     1       7.830  -4.751  26.223  0.00  0.00    +0.081 C 
ATOM      2  C   UNL     1       7.213  -3.439  26.644  0.00  0.00    +0.033 C 
ATOM      3  C   UNL     1       6.394  -4.434  25.876  0.00  0.00    +0.033 C 
ENDROOT
BRANCH   1   4
ATOM      4  N   UNL     1       8.079  -5.800  27.270  0.00  0.00    -0.318 NA
ATOM      5  H   UNL     1       8.678  -6.474  26.772  0.00  0.00    +0.119 HD
ATOM      6  H   UNL     1       7.210  -6.340  27.295  0.00  0.00    +0.119 HD
ENDBRANCH   1   4
BRANCH   1   7
ATOM      7  P   UNL     1       9.108  -4.663  24.830  0.00  0.00    +0.154 P 
ATOM      8  O   UNL     1       8.458  -5.513  23.774  0.00  0.00    -0.305 OA
ATOM      9  O   UNL     1       9.504  -3.224  24.731  0.00  0.00    -0.780 OA
BRANCH   7  10
ATOM     10  O   UNL     1      10.331  -5.496  25.466  0.00  0.00    -0.352 OA
ATOM     11  H   UNL     1      10.766  -4.892  26.091  0.00  0.00    +0.217 HD
ENDBRANCH   7  10
ENDBRANCH   1   7
TORSDOF 3
ENDMDL
MODEL 3
REMARK VINA RESULT:      -3.7      6.424      6.854
REMARK  Name = 
REMARK  3 active torsions:
REMARK  status: ('A' for Active; 'I' for Inactive)
REMARK    1  A    between atoms: N_1  and  C_2
REMARK    2  A    between atoms: C_2  and  P_5
REMARK    3  A    between atoms: P_5  and  O_6
REMARK                            x       y       z     vdW  Elec       q    Type
REMARK                         _______ _______ _______ _____ _____    ______ ____
ROOT
ATOM      1  C   UNL     1       9.903   1.016  22.874  0.00  0.00    +0.081 C 
ATOM      2  C   UNL     1       9.295   1.521  24.159  0.00  0.00    +0.033 C 
ATOM      3  C   UNL     1      10.749   1.161  24.117  0.00  0.00    +0.033 C 
ENDROOT
BRANCH   1   4
ATOM      4  N   UNL     1      10.136   1.990  21.754  0.00  0.00    -0.318 NA
ATOM      5  H   UNL     1       9.711   2.855  22.119  0.00  0.00    +0.119 HD
ATOM      6  H   UNL     1       9.430   1.742  21.056  0.00  0.00    +0.119 HD
ENDBRANCH   1   4
BRANCH   1   7
ATOM      7  P   UNL     1       9.410  -0.735  22.348  0.00  0.00    +0.154 P 
ATOM      8  O   UNL     1      10.642  -1.514  22.711  0.00  0.00    -0.305 OA
ATOM      9  O   UNL     1       8.017  -0.935  22.858  0.00  0.00    -0.780 OA
BRANCH   7  10
ATOM     10  O   UNL     1       9.360  -0.585  20.746  0.00  0.00    -0.352 OA
ATOM     11  H   UNL     1       8.508  -0.162  20.545  0.00  0.00    +0.217 HD
ENDBRANCH   7  10
ENDBRANCH   1   7
TORSDOF 3
ENDMDL
MODEL 4
REMARK VINA RESULT:      -3.6      6.871      7.529
REMARK  Name = 
REMARK  3 active torsions:
REMARK  status: ('A' for Active; 'I' for Inactive)
REMARK    1  A    between atoms: N_1  and  C_2
REMARK    2  A    between atoms: C_2  and  P_5
REMARK    3  A    between atoms: P_5  and  O_6
REMARK                            x       y       z     vdW  Elec       q    Type
REMARK                         _______ _______ _______ _____ _____    ______ ____
ROOT
ATOM      1  C   UNL     1       9.613   1.184  23.934  0.00  0.00    +0.081 C 
ATOM      2  C   UNL     1       9.866  -0.161  24.569  0.00  0.00    +0.033 C 
ATOM      3  C   UNL     1      10.992   0.820  24.432  0.00  0.00    +0.033 C 
ENDROOT
BRANCH   1   4
ATOM      4  N   UNL     1       8.840   2.214  24.710  0.00  0.00    -0.318 NA
ATOM      5  H   UNL     1       8.104   2.489  24.043  0.00  0.00    +0.119 HD
ATOM      6  H   UNL     1       9.425   3.052  24.664  0.00  0.00    +0.119 HD
ENDBRANCH   1   4
BRANCH   1   7
ATOM      7  P   UNL     1       9.328   1.184  22.062  0.00  0.00    +0.154 P 
ATOM      8  O   UNL     1       9.924  -0.138  21.669  0.00  0.00    -0.305 OA
ATOM      9  O   UNL     1       7.920   1.649  21.865  0.00  0.00    -0.780 OA
BRANCH   7  10
ATOM     10  O   UNL     1      10.332   2.351  21.587  0.00  0.00    -0.352 OA
ATOM     11  H   UNL     1       9.803   2.943  21.025  0.00  0.00    +0.217 HD
ENDBRANCH   7  10
ENDBRANCH   1   7
TORSDOF 3
ENDMDL
MODEL 5
REMARK VINA RESULT:      -3.6      2.492      2.701
REMARK  Name = 
REMARK  3 active torsions:
REMARK  status: ('A' for Active; 'I' for Inactive)
REMARK    1  A    between atoms: N_1  and  C_2
REMARK    2  A    between atoms: C_2  and  P_5
REMARK    3  A    between atoms: P_5  and  O_6
REMARK                            x       y       z     vdW  Elec       q    Type
REMARK                         _______ _______ _______ _____ _____    ______ ____
ROOT
ATOM      1  C   UNL     1       7.562  -4.872  24.400  0.00  0.00    +0.081 C 
ATOM      2  C   UNL     1       6.387  -5.234  25.276  0.00  0.00    +0.033 C 
ATOM      3  C   UNL     1       6.451  -3.877  24.642  0.00  0.00    +0.033 C 
ENDROOT
BRANCH   1   4
ATOM      4  N   UNL     1       7.659  -5.489  23.033  0.00  0.00    -0.318 NA
ATOM      5  H   UNL     1       6.670  -5.640  22.785  0.00  0.00    +0.119 HD
ATOM      6  H   UNL     1       7.933  -6.458  23.215  0.00  0.00    +0.119 HD
ENDBRANCH   1   4
BRANCH   1   7
ATOM      7  P   UNL     1       9.208  -4.582  25.288  0.00  0.00    +0.154 P 
ATOM      8  O   UNL     1       9.906  -3.660  24.329  0.00  0.00    -0.305 OA
ATOM      9  O   UNL     1       8.858  -4.320  26.718  0.00  0.00    -0.780 OA
BRANCH   7  10
ATOM     10  O   UNL     1       9.891  -6.036  25.178  0.00  0.00    -0.352 OA
ATOM     11  H   UNL     1       9.679  -6.492  26.010  0.00  0.00    +0.217 HD
ENDBRANCH   7  10
ENDBRANCH   1   7
TORSDOF 3
ENDMDL
MODEL 6
REMARK VINA RESULT:      -3.6      6.452      7.040
REMARK  Name = 
REMARK  3 active torsions:
REMARK  status: ('A' for Active; 'I' for Inactive)
REMARK    1  A    between atoms: N_1  and  C_2
REMARK    2  A    between atoms: C_2  and  P_5
REMARK    3  A    between atoms: P_5  and  O_6
REMARK                            x       y       z     vdW  Elec       q    Type
REMARK                         _______ _______ _______ _____ _____    ______ ____
ROOT
ATOM      1  C   UNL     1       9.604   1.441  22.335  0.00  0.00    +0.081 C 
ATOM      2  C   UNL     1       9.318   0.278  21.418  0.00  0.00    +0.033 C 
ATOM      3  C   UNL     1       8.275   1.334  21.626  0.00  0.00    +0.033 C 
ENDROOT
BRANCH   1   4
ATOM      4  N   UNL     1      10.558   2.507  21.872  0.00  0.00    -0.318 NA
ATOM      5  H   UNL     1      10.548   3.172  22.659  0.00  0.00    +0.119 HD
ATOM      6  H   UNL     1      10.017   3.049  21.193  0.00  0.00    +0.119 HD
ENDBRANCH   1   4
BRANCH   1   7
ATOM      7  P   UNL     1       9.644   1.055  24.188  0.00  0.00    +0.154 P 
ATOM      8  O   UNL     1       9.197   2.363  24.776  0.00  0.00    -0.305 OA
ATOM      9  O   UNL     1       8.996  -0.286  24.337  0.00  0.00    -0.780 OA
BRANCH   7  10
ATOM     10  O   UNL     1      11.226   0.899  24.448  0.00  0.00    -0.352 OA
ATOM     11  H   UNL     1      11.324   0.125  25.027  0.00  0.00    +0.217 HD
ENDBRANCH   7  10
ENDBRANCH   1   7
TORSDOF 3
ENDMDL
MODEL 7
REMARK VINA RESULT:      -3.6      6.773      7.257
REMARK  Name = 
REMARK  3 active torsions:
REMARK  status: ('A' for Active; 'I' for Inactive)
REMARK    1  A    between atoms: N_1  and  C_2
REMARK    2  A    between atoms: C_2  and  P_5
REMARK    3  A    between atoms: P_5  and  O_6
REMARK                            x       y       z     vdW  Elec       q    Type
REMARK                         _______ _______ _______ _____ _____    ______ ____
ROOT
ATOM      1  C   UNL     1       9.429  -0.049  22.554  0.00  0.00    +0.081 C 
ATOM      2  C   UNL     1      10.115  -0.458  23.835  0.00  0.00    +0.033 C 
ATOM      3  C   UNL     1       8.675  -0.817  23.614  0.00  0.00    +0.033 C 
ENDROOT
BRANCH   1   4
ATOM      4  N   UNL     1       9.780  -0.774  21.285  0.00  0.00    -0.318 NA
ATOM      5  H   UNL     1      10.522  -0.180  20.886  0.00  0.00    +0.119 HD
ATOM      6  H   UNL     1       9.018  -0.540  20.644  0.00  0.00    +0.119 HD
ENDBRANCH   1   4
BRANCH   1   7
ATOM      7  P   UNL     1       9.043   1.794  22.365  0.00  0.00    +0.154 P 
ATOM      8  O   UNL     1       7.863   1.759  21.435  0.00  0.00    -0.305 OA
ATOM      9  O   UNL     1       9.103   2.366  23.746  0.00  0.00    -0.780 OA
BRANCH   7  10
ATOM     10  O   UNL     1      10.325   2.306  21.535  0.00  0.00    -0.352 OA
ATOM     11  H   UNL     1      10.438   1.673  20.806  0.00  0.00    +0.217 HD
ENDBRANCH   7  10
ENDBRANCH   1   7
TORSDOF 3
ENDMDL
MODEL 8
REMARK VINA RESULT:      -3.6      6.851      7.397
REMARK  Name = 
REMARK  3 active torsions:
REMARK  status: ('A' for Active; 'I' for Inactive)
REMARK    1  A    between atoms: N_1  and  C_2
REMARK    2  A    between atoms: C_2  and  P_5
REMARK    3  A    between atoms: P_5  and  O_6
REMARK                            x       y       z     vdW  Elec       q    Type
REMARK                         _______ _______ _______ _____ _____    ______ ____
ROOT
ATOM      1  C   UNL     1       9.493   1.020  22.415  0.00  0.00    +0.081 C 
ATOM      2  C   UNL     1       9.964  -0.346  21.976  0.00  0.00    +0.033 C 
ATOM      3  C   UNL     1       8.565  -0.170  22.486  0.00  0.00    +0.033 C 
ENDROOT
BRANCH   1   4
ATOM      4  N   UNL     1       9.216   2.059  21.365  0.00  0.00    -0.318 NA
ATOM      5  H   UNL     1       9.890   1.813  20.625  0.00  0.00    +0.119 HD
ATOM      6  H   UNL     1       9.667   2.904  21.724  0.00  0.00    +0.119 HD
ENDBRANCH   1   4
BRANCH   1   7
ATOM      7  P   UNL     1      10.214   1.669  24.041  0.00  0.00    +0.154 P 
ATOM      8  O   UNL     1       8.978   2.161  24.739  0.00  0.00    -0.305 OA
ATOM      9  O   UNL     1      11.173   0.620  24.508  0.00  0.00    -0.780 OA
BRANCH   7  10
ATOM     10  O   UNL     1      11.050   2.948  23.532  0.00  0.00    -0.352 OA
ATOM     11  H   UNL     1      11.074   2.880  22.562  0.00  0.00    +0.217 HD
ENDBRANCH   7  10
ENDBRANCH   1   7
TORSDOF 3
ENDMDL
MODEL 9
REMARK VINA RESULT:      -3.5      5.615      6.176
REMARK  Name = 
REMARK  3 active torsions:
REMARK  status: ('A' for Active; 'I' for Inactive)
REMARK    1  A    between atoms: N_1  and  C_2
REMARK    2  A    between atoms: C_2  and  P_5
REMARK    3  A    between atoms: P_5  and  O_6
REMARK                            x       y       z     vdW  Elec       q    Type
REMARK                         _______ _______ _______ _____ _____    ______ ____
ROOT
ATOM      1  C   UNL     1       9.022   0.446  22.761  0.00  0.00    +0.081 C 
ATOM      2  C   UNL     1      10.022   1.286  22.005  0.00  0.00    +0.033 C 
ATOM      3  C   UNL     1       8.619   1.159  21.491  0.00  0.00    +0.033 C 
ENDROOT
BRANCH   1   4
ATOM      4  N   UNL     1       8.474   0.970  24.058  0.00  0.00    -0.318 NA
ATOM      5  H   UNL     1       8.729   0.226  24.725  0.00  0.00    +0.119 HD
ATOM      6  H   UNL     1       7.468   0.796  23.994  0.00  0.00    +0.119 HD
ENDBRANCH   1   4
BRANCH   1   7
ATOM      7  P   UNL     1       9.269  -1.429  22.672  0.00  0.00    +0.154 P 
ATOM      8  O   UNL     1       9.986  -1.697  23.965  0.00  0.00    -0.305 OA
ATOM      9  O   UNL     1       7.959  -1.991  22.218  0.00  0.00    -0.780 OA
BRANCH   7  10
ATOM     10  O   UNL     1      10.333  -1.554  21.470  0.00  0.00    -0.352 OA
ATOM     11  H   UNL     1      10.362  -0.678  21.050  0.00  0.00    +0.217 HD
ENDBRANCH   7  10
ENDBRANCH   1   7
TORSDOF 3
ENDMDL
