MODEL 1
REMARK VINA RESULT:      -6.7      0.000      0.000
REMARK  Name = 
REMARK  12 active torsions:
REMARK  status: ('A' for Active; 'I' for Inactive)
REMARK    1  A    between atoms: C_2  and  C_3
REMARK    2  A    between atoms: C_2  and  N_4
REMARK    3  A    between atoms: C_2  and  C_28
REMARK    4  A    between atoms: C_5  and  C_7
REMARK    5  A    between atoms: C_7  and  C_9
REMARK    6  A    between atoms: C_7  and  N_17
REMARK    7  A    between atoms: C_9  and  C_10
REMARK    8  A    between atoms: C_13  and  O_14
REMARK    9  A    between atoms: C_18  and  O_20
REMARK   10  A    between atoms: O_20  and  C_21
REMARK   11  A    between atoms: C_21  and  C_22
REMARK   12  A    between atoms: C_28  and  C_29
REMARK                            x       y       z     vdW  Elec       q    Type
REMARK                         _______ _______ _______ _____ _____    ______ ____
ROOT
ATOM      1  C   UNL     1       8.730  -2.914  23.019  0.00  0.00    +0.166 C 
ENDROOT
BRANCH   1   4
ATOM      2  N   UNL     1       8.978  -0.457  22.922  0.00  0.00    -0.304 N 
ATOM      3  H   UNL     1       7.967  -0.458  22.854  0.00  0.00    +0.149 HD
ATOM      4  C   UNL     1       9.601  -1.676  22.729  0.00  0.00    +0.234 C 
ATOM      5  O   UNL     1      10.772  -1.775  22.360  0.00  0.00    -0.274 OA
BRANCH   2   6
ATOM      6  C   UNL     1       9.649   0.787  22.546  0.00  0.00    +0.136 C 
ATOM      7  C   UNL     1       8.818   1.649  21.599  0.00  0.00    +0.036 C 
BRANCH   6   8
ATOM      8  C   UNL     1      10.168   1.499  23.814  0.00  0.00    +0.150 C 
ATOM      9  O   UNL     1      11.157   1.098  24.437  0.00  0.00    -0.296 OA
ATOM     10  C   UNL     1       9.507   2.787  24.223  0.00  0.00    +0.088 C 
ENDBRANCH   6   8
ENDBRANCH   2   6
ENDBRANCH   1   4
BRANCH   1  11
ATOM     11  N   UNL     1       8.602  -3.073  24.460  0.00  0.00    -0.269 N 
ATOM     12  H   UNL     1       7.971  -2.463  24.966  0.00  0.00    +0.153 HD
ATOM     13  C   UNL     1       9.232  -4.050  25.154  0.00  0.00    +0.401 C 
ATOM     14  O   UNL     1      10.050  -4.822  24.675  0.00  0.00    -0.226 OA
BRANCH  13  15
ATOM     15  O   UNL     1       8.788  -4.055  26.428  0.00  0.00    -0.446 OA
BRANCH  15  16
ATOM     16  C   UNL     1       8.079  -5.232  26.829  0.00  0.00    +0.269 C 
BRANCH  16  17
ATOM     17  C   UNL     1       6.603  -4.932  26.843  0.00  0.00    -0.010 A 
ATOM     18  C   UNL     1       5.674  -5.968  26.703  0.00  0.00    +0.007 A 
ATOM     19  C   UNL     1       4.305  -5.698  26.732  0.00  0.00    +0.000 A 
ATOM     20  C   UNL     1       3.857  -4.391  26.906  0.00  0.00    +0.000 A 
ATOM     21  C   UNL     1       4.775  -3.352  27.055  0.00  0.00    +0.000 A 
ATOM     22  C   UNL     1       6.143  -3.620  27.027  0.00  0.00    +0.007 A 
ENDBRANCH  16  17
ENDBRANCH  15  16
ENDBRANCH  13  15
ENDBRANCH   1  11
BRANCH   1  23
ATOM     23  C   UNL     1       7.368  -2.846  22.290  0.00  0.00    +0.067 C 
BRANCH  23  24
ATOM     24  C   UNL     1       6.309  -3.897  22.589  0.00  0.00    -0.045 A 
ATOM     25  C   UNL     1       6.638  -5.251  22.395  0.00  0.00    +0.007 A 
ATOM     26  C   UNL     1       5.702  -6.257  22.651  0.00  0.00    +0.045 A 
ATOM     27  C   UNL     1       4.433  -5.921  23.097  0.00  0.00    +0.117 A 
ATOM     28  C   UNL     1       4.082  -4.597  23.290  0.00  0.00    +0.045 A 
ATOM     29  C   UNL     1       5.019  -3.596  23.039  0.00  0.00    +0.007 A 
BRANCH  27  30
ATOM     30  O   UNL     1       3.544  -6.925  23.345  0.00  0.00    -0.507 OA
ATOM     31  H   UNL     1       2.739  -6.530  23.718  0.00  0.00    +0.292 HD
ENDBRANCH  27  30
ENDBRANCH  23  24
ENDBRANCH   1  23
TORSDOF 10
ENDMDL
MODEL 2
REMARK VINA RESULT:      -6.6      2.389      7.456
REMARK  Name = 
REMARK  12 active torsions:
REMARK  status: ('A' for Active; 'I' for Inactive)
REMARK    1  A    between atoms: C_2  and  C_3
REMARK    2  A    between atoms: C_2  and  N_4
REMARK    3  A    between atoms: C_2  and  C_28
REMARK    4  A    between atoms: C_5  and  C_7
REMARK    5  A    between atoms: C_7  and  C_9
REMARK    6  A    between atoms: C_7  and  N_17
REMARK    7  A    between atoms: C_9  and  C_10
REMARK    8  A    between atoms: C_13  and  O_14
REMARK    9  A    between atoms: C_18  and  O_20
REMARK   10  A    between atoms: O_20  and  C_21
REMARK   11  A    between atoms: C_21  and  C_22
REMARK   12  A    between atoms: C_28  and  C_29
REMARK                            x       y       z     vdW  Elec       q    Type
REMARK                         _______ _______ _______ _____ _____    ______ ____
ROOT
ATOM      1  C   UNL     1       8.583  -2.541  23.396  0.00  0.00    +0.166 C 
ENDROOT
BRANCH   1   4
ATOM      2  N   UNL     1       7.412  -4.268  24.721  0.00  0.00    -0.304 N 
ATOM      3  H   UNL     1       6.683  -3.568  24.802  0.00  0.00    +0.149 HD
ATOM      4  C   UNL     1       8.635  -3.820  24.255  0.00  0.00    +0.234 C 
ATOM      5  O   UNL     1       9.694  -4.401  24.497  0.00  0.00    -0.274 OA
BRANCH   2   6
ATOM      6  C   UNL     1       7.342  -5.385  25.662  0.00  0.00    +0.136 C 
ATOM      7  C   UNL     1       7.864  -5.027  27.052  0.00  0.00    +0.036 C 
BRANCH   6   8
ATOM      8  C   UNL     1       5.931  -6.009  25.621  0.00  0.00    +0.150 C 
ATOM      9  O   UNL     1       5.500  -6.726  26.530  0.00  0.00    -0.296 OA
ATOM     10  C   UNL     1       5.022  -5.629  24.483  0.00  0.00    +0.088 C 
ENDBRANCH   6   8
ENDBRANCH   2   6
ENDBRANCH   1   4
BRANCH   1  11
ATOM     11  N   UNL     1       7.642  -1.608  23.996  0.00  0.00    -0.269 N 
ATOM     12  H   UNL     1       7.972  -0.971  24.713  0.00  0.00    +0.153 HD
ATOM     13  C   UNL     1       6.354  -1.495  23.594  0.00  0.00    +0.401 C 
ATOM     14  O   UNL     1       5.819  -2.227  22.774  0.00  0.00    -0.226 OA
BRANCH  13  15
ATOM     15  O   UNL     1       5.782  -0.437  24.205  0.00  0.00    -0.446 OA
BRANCH  15  16
ATOM     16  C   UNL     1       6.674   0.414  24.930  0.00  0.00    +0.269 C 
BRANCH  16  17
ATOM     17  C   UNL     1       6.819   1.716  24.186  0.00  0.00    -0.010 A 
ATOM     18  C   UNL     1       6.519   1.783  22.822  0.00  0.00    +0.007 A 
ATOM     19  C   UNL     1       6.637   2.991  22.132  0.00  0.00    +0.000 A 
ATOM     20  C   UNL     1       7.049   4.139  22.803  0.00  0.00    +0.000 A 
ATOM     21  C   UNL     1       7.342   4.084  24.165  0.00  0.00    +0.000 A 
ATOM     22  C   UNL     1       7.225   2.878  24.856  0.00  0.00    +0.007 A 
ENDBRANCH  16  17
ENDBRANCH  15  16
ENDBRANCH  13  15
ENDBRANCH   1  11
BRANCH   1  23
ATOM     23  C   UNL     1       9.989  -1.934  23.179  0.00  0.00    +0.067 C 
BRANCH  23  24
ATOM     24  C   UNL     1      10.140  -0.423  23.077  0.00  0.00    -0.045 A 
ATOM     25  C   UNL     1      10.555   0.286  24.219  0.00  0.00    +0.007 A 
ATOM     26  C   UNL     1      10.706   1.675  24.180  0.00  0.00    +0.045 A 
ATOM     27  C   UNL     1      10.442   2.366  23.008  0.00  0.00    +0.117 A 
ATOM     28  C   UNL     1      10.028   1.693  21.872  0.00  0.00    +0.045 A 
ATOM     29  C   UNL     1       9.882   0.307  21.912  0.00  0.00    +0.007 A 
BRANCH  27  30
ATOM     30  O   UNL     1      10.607   3.720  22.999  0.00  0.00    -0.507 OA
ATOM     31  H   UNL     1      10.834   3.990  22.094  0.00  0.00    +0.292 HD
ENDBRANCH  27  30
ENDBRANCH  23  24
ENDBRANCH   1  23
TORSDOF 10
ENDMDL
MODEL 3
REMARK VINA RESULT:      -6.5      2.183      6.971
REMARK  Name = 
REMARK  12 active torsions:
REMARK  status: ('A' for Active; 'I' for Inactive)
REMARK    1  A    between atoms: C_2  and  C_3
REMARK    2  A    between atoms: C_2  and  N_4
REMARK    3  A    between atoms: C_2  and  C_28
REMARK    4  A    between atoms: C_5  and  C_7
REMARK    5  A    between atoms: C_7  and  C_9
REMARK    6  A    between atoms: C_7  and  N_17
REMARK    7  A    between atoms: C_9  and  C_10
REMARK    8  A    between atoms: C_13  and  O_14
REMARK    9  A    between atoms: C_18  and  O_20
REMARK   10  A    between atoms: O_20  and  C_21
REMARK   11  A    between atoms: C_21  and  C_22
REMARK   12  A    between atoms: C_28  and  C_29
REMARK                            x       y       z     vdW  Elec       q    Type
REMARK                         _______ _______ _______ _____ _____    ______ ____
ROOT
ATOM      1  C   UNL     1       7.672  -3.227  25.795  0.00  0.00    +0.166 C 
ENDROOT
BRANCH   1   4
ATOM      2  N   UNL     1       6.287  -4.211  24.000  0.00  0.00    -0.304 N 
ATOM      3  H   UNL     1       6.143  -3.247  23.720  0.00  0.00    +0.149 HD
ATOM      4  C   UNL     1       6.837  -4.404  25.253  0.00  0.00    +0.234 C 
ATOM      5  O   UNL     1       6.683  -5.444  25.896  0.00  0.00    -0.274 OA
BRANCH   2   6
ATOM      6  C   UNL     1       5.359  -5.192  23.437  0.00  0.00    +0.136 C 
ATOM      7  C   UNL     1       3.930  -4.665  23.328  0.00  0.00    +0.036 C 
BRANCH   6   8
ATOM      8  C   UNL     1       5.953  -5.783  22.141  0.00  0.00    +0.150 C 
ATOM      9  O   UNL     1       5.275  -5.949  21.122  0.00  0.00    -0.296 OA
ATOM     10  C   UNL     1       7.433  -6.053  22.100  0.00  0.00    +0.088 C 
ENDBRANCH   6   8
ENDBRANCH   2   6
ENDBRANCH   1   4
BRANCH   1  11
ATOM     11  N   UNL     1       8.570  -2.766  24.747  0.00  0.00    -0.269 N 
ATOM     12  H   UNL     1       8.369  -1.888  24.280  0.00  0.00    +0.153 HD
ATOM     13  C   UNL     1       9.709  -3.415  24.410  0.00  0.00    +0.401 C 
ATOM     14  O   UNL     1      10.045  -4.500  24.861  0.00  0.00    -0.226 OA
BRANCH  13  15
ATOM     15  O   UNL     1      10.416  -2.665  23.540  0.00  0.00    -0.446 OA
BRANCH  15  16
ATOM     16  C   UNL     1       9.642  -1.919  22.596  0.00  0.00    +0.269 C 
BRANCH  16  17
ATOM     17  C   UNL     1       9.915  -0.450  22.793  0.00  0.00    -0.010 A 
ATOM     18  C   UNL     1       9.546   0.470  21.807  0.00  0.00    +0.007 A 
ATOM     19  C   UNL     1       9.782   1.834  21.992  0.00  0.00    +0.000 A 
ATOM     20  C   UNL     1      10.382   2.284  23.164  0.00  0.00    +0.000 A 
ATOM     21  C   UNL     1      10.745   1.374  24.157  0.00  0.00    +0.000 A 
ATOM     22  C   UNL     1      10.510   0.012  23.974  0.00  0.00    +0.007 A 
ENDBRANCH  16  17
ENDBRANCH  15  16
ENDBRANCH  13  15
ENDBRANCH   1  11
BRANCH   1  23
ATOM     23  C   UNL     1       6.780  -2.103  26.372  0.00  0.00    +0.067 C 
BRANCH  23  24
ATOM     24  C   UNL     1       6.832  -0.716  25.747  0.00  0.00    -0.045 A 
ATOM     25  C   UNL     1       7.515   0.303  26.435  0.00  0.00    +0.007 A 
ATOM     26  C   UNL     1       7.589   1.595  25.908  0.00  0.00    +0.045 A 
ATOM     27  C   UNL     1       6.981   1.881  24.696  0.00  0.00    +0.117 A 
ATOM     28  C   UNL     1       6.298   0.899  24.001  0.00  0.00    +0.045 A 
ATOM     29  C   UNL     1       6.229  -0.391  24.527  0.00  0.00    +0.007 A 
BRANCH  27  30
ATOM     30  O   UNL     1       7.077   3.149  24.202  0.00  0.00    -0.507 OA
ATOM     31  H   UNL     1       7.568   3.111  23.365  0.00  0.00    +0.292 HD
ENDBRANCH  27  30
ENDBRANCH  23  24
ENDBRANCH   1  23
TORSDOF 10
ENDMDL
MODEL 4
REMARK VINA RESULT:      -6.5      1.332      1.574
REMARK  Name = 
REMARK  12 active torsions:
REMARK  status: ('A' for Active; 'I' for Inactive)
REMARK    1  A    between atoms: C_2  and  C_3
REMARK    2  A    between atoms: C_2  and  N_4
REMARK    3  A    between atoms: C_2  and  C_28
REMARK    4  A    between atoms: C_5  and  C_7
REMARK    5  A    between atoms: C_7  and  C_9
REMARK    6  A    between atoms: C_7  and  N_17
REMARK    7  A    between atoms: C_9  and  C_10
REMARK    8  A    between atoms: C_13  and  O_14
REMARK    9  A    between atoms: C_18  and  O_20
REMARK   10  A    between atoms: O_20  and  C_21
REMARK   11  A    between atoms: C_21  and  C_22
REMARK   12  A    between atoms: C_28  and  C_29
REMARK                            x       y       z     vdW  Elec       q    Type
REMARK                         _______ _______ _______ _____ _____    ______ ____
ROOT
ATOM      1  C   UNL     1       9.110  -2.530  23.570  0.00  0.00    +0.166 C 
ENDROOT
BRANCH   1   4
ATOM      2  N   UNL     1       8.621  -0.175  23.000  0.00  0.00    -0.304 N 
ATOM      3  H   UNL     1       8.281  -0.562  22.127  0.00  0.00    +0.149 HD
ATOM      4  C   UNL     1       9.370  -1.026  23.791  0.00  0.00    +0.234 C 
ATOM      5  O   UNL     1      10.184  -0.621  24.622  0.00  0.00    -0.274 OA
BRANCH   2   6
ATOM      6  C   UNL     1       8.876   1.265  23.012  0.00  0.00    +0.136 C 
ATOM      7  C   UNL     1       9.942   1.689  22.005  0.00  0.00    +0.036 C 
BRANCH   6   8
ATOM      8  C   UNL     1       7.538   2.029  22.929  0.00  0.00    +0.150 C 
ATOM      9  O   UNL     1       6.513   1.627  23.490  0.00  0.00    -0.296 OA
ATOM     10  C   UNL     1       7.527   3.364  22.234  0.00  0.00    +0.088 C 
ENDBRANCH   6   8
ENDBRANCH   2   6
ENDBRANCH   1   4
BRANCH   1  11
ATOM     11  N   UNL     1       8.616  -3.109  24.811  0.00  0.00    -0.269 N 
ATOM     12  H   UNL     1       7.824  -2.676  25.273  0.00  0.00    +0.153 HD
ATOM     13  C   UNL     1       9.115  -4.248  25.345  0.00  0.00    +0.401 C 
ATOM     14  O   UNL     1      10.091  -4.844  24.914  0.00  0.00    -0.226 OA
BRANCH  13  15
ATOM     15  O   UNL     1       8.349  -4.631  26.387  0.00  0.00    -0.446 OA
BRANCH  15  16
ATOM     16  C   UNL     1       7.241  -3.777  26.686  0.00  0.00    +0.269 C 
BRANCH  16  17
ATOM     17  C   UNL     1       5.967  -4.573  26.574  0.00  0.00    -0.010 A 
ATOM     18  C   UNL     1       6.017  -5.949  26.335  0.00  0.00    +0.007 A 
ATOM     19  C   UNL     1       4.839  -6.694  26.247  0.00  0.00    +0.000 A 
ATOM     20  C   UNL     1       3.606  -6.067  26.404  0.00  0.00    +0.000 A 
ATOM     21  C   UNL     1       3.546  -4.696  26.653  0.00  0.00    +0.000 A 
ATOM     22  C   UNL     1       4.721  -3.950  26.740  0.00  0.00    +0.007 A 
ENDBRANCH  16  17
ENDBRANCH  15  16
ENDBRANCH  13  15
ENDBRANCH   1  11
BRANCH   1  23
ATOM     23  C   UNL     1       8.175  -2.784  22.365  0.00  0.00    +0.067 C 
BRANCH  23  24
ATOM     24  C   UNL     1       6.994  -3.730  22.523  0.00  0.00    -0.045 A 
ATOM     25  C   UNL     1       7.185  -5.093  22.228  0.00  0.00    +0.007 A 
ATOM     26  C   UNL     1       6.133  -6.005  22.354  0.00  0.00    +0.045 A 
ATOM     27  C   UNL     1       4.886  -5.565  22.769  0.00  0.00    +0.117 A 
ATOM     28  C   UNL     1       4.669  -4.230  23.061  0.00  0.00    +0.045 A 
ATOM     29  C   UNL     1       5.722  -3.324  22.939  0.00  0.00    +0.007 A 
BRANCH  27  30
ATOM     30  O   UNL     1       3.881  -6.480  22.890  0.00  0.00    -0.507 OA
ATOM     31  H   UNL     1       4.281  -7.349  23.056  0.00  0.00    +0.292 HD
ENDBRANCH  27  30
ENDBRANCH  23  24
ENDBRANCH   1  23
TORSDOF 10
ENDMDL
MODEL 5
REMARK VINA RESULT:      -6.4      1.981      3.084
REMARK  Name = 
REMARK  12 active torsions:
REMARK  status: ('A' for Active; 'I' for Inactive)
REMARK    1  A    between atoms: C_2  and  C_3
REMARK    2  A    between atoms: C_2  and  N_4
REMARK    3  A    between atoms: C_2  and  C_28
REMARK    4  A    between atoms: C_5  and  C_7
REMARK    5  A    between atoms: C_7  and  C_9
REMARK    6  A    between atoms: C_7  and  N_17
REMARK    7  A    between atoms: C_9  and  C_10
REMARK    8  A    between atoms: C_13  and  O_14
REMARK    9  A    between atoms: C_18  and  O_20
REMARK   10  A    between atoms: O_20  and  C_21
REMARK   11  A    between atoms: C_21  and  C_22
REMARK   12  A    between atoms: C_28  and  C_29
REMARK                            x       y       z     vdW  Elec       q    Type
REMARK                         _______ _______ _______ _____ _____    ______ ____
ROOT
ATOM      1  C   UNL     1       8.347  -2.336  25.356  0.00  0.00    +0.166 C 
ENDROOT
BRANCH   1   4
ATOM      2  N   UNL     1       8.684  -0.282  24.024  0.00  0.00    -0.304 N 
ATOM      3  H   UNL     1       9.606  -0.666  23.851  0.00  0.00    +0.149 HD
ATOM      4  C   UNL     1       7.958  -0.879  25.039  0.00  0.00    +0.234 C 
ATOM      5  O   UNL     1       7.057  -0.298  25.645  0.00  0.00    -0.274 OA
BRANCH   2   6
ATOM      6  C   UNL     1       8.509   1.139  23.725  0.00  0.00    +0.136 C 
ATOM      7  C   UNL     1       9.501   2.030  24.470  0.00  0.00    +0.036 C 
BRANCH   6   8
ATOM      8  C   UNL     1       8.447   1.343  22.196  0.00  0.00    +0.150 C 
ATOM      9  O   UNL     1       7.839   2.287  21.682  0.00  0.00    -0.296 OA
ATOM     10  C   UNL     1       9.254   0.418  21.326  0.00  0.00    +0.088 C 
ENDBRANCH   6   8
ENDBRANCH   2   6
ENDBRANCH   1   4
BRANCH   1  11
ATOM     11  N   UNL     1       7.204  -3.008  25.957  0.00  0.00    -0.269 N 
ATOM     12  H   UNL     1       6.271  -2.676  25.741  0.00  0.00    +0.153 HD
ATOM     13  C   UNL     1       7.319  -4.108  26.738  0.00  0.00    +0.401 C 
ATOM     14  O   UNL     1       8.382  -4.583  27.110  0.00  0.00    -0.226 OA
BRANCH  13  15
ATOM     15  O   UNL     1       6.093  -4.605  27.000  0.00  0.00    -0.446 OA
BRANCH  15  16
ATOM     16  C   UNL     1       5.840  -5.920  26.498  0.00  0.00    +0.269 C 
BRANCH  16  17
ATOM     17  C   UNL     1       4.782  -5.839  25.429  0.00  0.00    -0.010 A 
ATOM     18  C   UNL     1       4.310  -4.595  25.000  0.00  0.00    +0.007 A 
ATOM     19  C   UNL     1       3.341  -4.514  23.998  0.00  0.00    +0.000 A 
ATOM     20  C   UNL     1       2.844  -5.677  23.415  0.00  0.00    +0.000 A 
ATOM     21  C   UNL     1       3.315  -6.922  23.830  0.00  0.00    +0.000 A 
ATOM     22  C   UNL     1       4.282  -7.005  24.831  0.00  0.00    +0.007 A 
ENDBRANCH  16  17
ENDBRANCH  15  16
ENDBRANCH  13  15
ENDBRANCH   1  11
BRANCH   1  23
ATOM     23  C   UNL     1       8.901  -3.071  24.113  0.00  0.00    +0.067 C 
BRANCH  23  24
ATOM     24  C   UNL     1       7.968  -3.943  23.285  0.00  0.00    -0.045 A 
ATOM     25  C   UNL     1       7.060  -3.312  22.416  0.00  0.00    +0.007 A 
ATOM     26  C   UNL     1       6.178  -4.065  21.635  0.00  0.00    +0.045 A 
ATOM     27  C   UNL     1       6.193  -5.448  21.718  0.00  0.00    +0.117 A 
ATOM     28  C   UNL     1       7.072  -6.094  22.569  0.00  0.00    +0.045 A 
ATOM     29  C   UNL     1       7.954  -5.340  23.344  0.00  0.00    +0.007 A 
BRANCH  27  30
ATOM     30  O   UNL     1       5.327  -6.157  20.938  0.00  0.00    -0.507 OA
ATOM     31  H   UNL     1       4.447  -6.112  21.347  0.00  0.00    +0.292 HD
ENDBRANCH  27  30
ENDBRANCH  23  24
ENDBRANCH   1  23
TORSDOF 10
ENDMDL
MODEL 6
REMARK VINA RESULT:      -6.2      2.417      4.491
REMARK  Name = 
REMARK  12 active torsions:
REMARK  status: ('A' for Active; 'I' for Inactive)
REMARK    1  A    between atoms: C_2  and  C_3
REMARK    2  A    between atoms: C_2  and  N_4
REMARK    3  A    between atoms: C_2  and  C_28
REMARK    4  A    between atoms: C_5  and  C_7
REMARK    5  A    between atoms: C_7  and  C_9
REMARK    6  A    between atoms: C_7  and  N_17
REMARK    7  A    between atoms: C_9  and  C_10
REMARK    8  A    between atoms: C_13  and  O_14
REMARK    9  A    between atoms: C_18  and  O_20
REMARK   10  A    between atoms: O_20  and  C_21
REMARK   11  A    between atoms: C_21  and  C_22
REMARK   12  A    between atoms: C_28  and  C_29
REMARK                            x       y       z     vdW  Elec       q    Type
REMARK                         _______ _______ _______ _____ _____    ______ ____
ROOT
ATOM      1  C   UNL     1       6.656  -0.103  25.869  0.00  0.00    +0.166 C 
ENDROOT
BRANCH   1   4
ATOM      2  N   UNL     1       8.403   1.469  25.102  0.00  0.00    -0.304 N 
ATOM      3  H   UNL     1       8.705   1.448  26.070  0.00  0.00    +0.149 HD
ATOM      4  C   UNL     1       7.154   0.936  24.844  0.00  0.00    +0.234 C 
ATOM      5  O   UNL     1       6.482   1.257  23.862  0.00  0.00    -0.274 OA
BRANCH   2   6
ATOM      6  C   UNL     1       8.925   2.565  24.287  0.00  0.00    +0.136 C 
ATOM      7  C   UNL     1       8.694   3.937  24.916  0.00  0.00    +0.036 C 
BRANCH   6   8
ATOM      8  C   UNL     1      10.380   2.257  23.874  0.00  0.00    +0.150 C 
ATOM      9  O   UNL     1      11.113   3.108  23.359  0.00  0.00    -0.296 OA
ATOM     10  C   UNL     1      10.944   0.906  24.224  0.00  0.00    +0.088 C 
ENDBRANCH   6   8
ENDBRANCH   2   6
ENDBRANCH   1   4
BRANCH   1  11
ATOM     11  N   UNL     1       5.701  -0.987  25.217  0.00  0.00    -0.269 N 
ATOM     12  H   UNL     1       5.757  -1.113  24.212  0.00  0.00    +0.153 HD
ATOM     13  C   UNL     1       4.782  -1.712  25.896  0.00  0.00    +0.401 C 
ATOM     14  O   UNL     1       4.580  -1.621  27.098  0.00  0.00    -0.226 OA
BRANCH  13  15
ATOM     15  O   UNL     1       4.163  -2.561  25.051  0.00  0.00    -0.446 OA
BRANCH  15  16
ATOM     16  C   UNL     1       4.546  -3.935  25.167  0.00  0.00    +0.269 C 
BRANCH  16  17
ATOM     17  C   UNL     1       5.353  -4.321  23.954  0.00  0.00    -0.010 A 
ATOM     18  C   UNL     1       5.741  -5.651  23.764  0.00  0.00    +0.007 A 
ATOM     19  C   UNL     1       6.475  -6.017  22.634  0.00  0.00    +0.000 A 
ATOM     20  C   UNL     1       6.818  -5.057  21.686  0.00  0.00    +0.000 A 
ATOM     21  C   UNL     1       6.427  -3.730  21.863  0.00  0.00    +0.000 A 
ATOM     22  C   UNL     1       5.695  -3.363  22.991  0.00  0.00    +0.007 A 
ENDBRANCH  16  17
ENDBRANCH  15  16
ENDBRANCH  13  15
ENDBRANCH   1  11
BRANCH   1  23
ATOM     23  C   UNL     1       7.826  -0.859  26.540  0.00  0.00    +0.067 C 
BRANCH  23  24
ATOM     24  C   UNL     1       8.301  -2.177  25.946  0.00  0.00    -0.045 A 
ATOM     25  C   UNL     1       8.021  -3.365  26.646  0.00  0.00    +0.007 A 
ATOM     26  C   UNL     1       8.437  -4.603  26.146  0.00  0.00    +0.045 A 
ATOM     27  C   UNL     1       9.137  -4.664  24.951  0.00  0.00    +0.117 A 
ATOM     28  C   UNL     1       9.430  -3.510  24.246  0.00  0.00    +0.045 A 
ATOM     29  C   UNL     1       9.009  -2.277  24.744  0.00  0.00    +0.007 A 
BRANCH  27  30
ATOM     30  O   UNL     1       9.522  -5.886  24.485  0.00  0.00    -0.507 OA
ATOM     31  H   UNL     1       9.132  -6.565  25.059  0.00  0.00    +0.292 HD
ENDBRANCH  27  30
ENDBRANCH  23  24
ENDBRANCH   1  23
TORSDOF 10
ENDMDL
MODEL 7
REMARK VINA RESULT:      -6.2      2.302      7.258
REMARK  Name = 
REMARK  12 active torsions:
REMARK  status: ('A' for Active; 'I' for Inactive)
REMARK    1  A    between atoms: C_2  and  C_3
REMARK    2  A    between atoms: C_2  and  N_4
REMARK    3  A    between atoms: C_2  and  C_28
REMARK    4  A    between atoms: C_5  and  C_7
REMARK    5  A    between atoms: C_7  and  C_9
REMARK    6  A    between atoms: C_7  and  N_17
REMARK    7  A    between atoms: C_9  and  C_10
REMARK    8  A    between atoms: C_13  and  O_14
REMARK    9  A    between atoms: C_18  and  O_20
REMARK   10  A    between atoms: O_20  and  C_21
REMARK   11  A    between atoms: C_21  and  C_22
REMARK   12  A    between atoms: C_28  and  C_29
REMARK                            x       y       z     vdW  Elec       q    Type
REMARK                         _______ _______ _______ _____ _____    ______ ____
ROOT
ATOM      1  C   UNL     1       7.389  -3.561  25.331  0.00  0.00    +0.166 C 
ENDROOT
BRANCH   1   4
ATOM      2  N   UNL     1       5.335  -4.935  25.268  0.00  0.00    -0.304 N 
ATOM      3  H   UNL     1       5.300  -4.748  26.263  0.00  0.00    +0.149 HD
ATOM      4  C   UNL     1       6.527  -4.633  24.635  0.00  0.00    +0.234 C 
ATOM      5  O   UNL     1       6.880  -5.172  23.585  0.00  0.00    -0.274 OA
BRANCH   2   6
ATOM      6  C   UNL     1       4.498  -6.033  24.787  0.00  0.00    +0.136 C 
ATOM      7  C   UNL     1       4.061  -6.981  25.902  0.00  0.00    +0.036 C 
BRANCH   6   8
ATOM      8  C   UNL     1       3.362  -5.472  23.905  0.00  0.00    +0.150 C 
ATOM      9  O   UNL     1       3.522  -5.217  22.707  0.00  0.00    -0.296 OA
ATOM     10  C   UNL     1       1.991  -5.346  24.514  0.00  0.00    +0.088 C 
ENDBRANCH   6   8
ENDBRANCH   2   6
ENDBRANCH   1   4
BRANCH   1  11
ATOM     11  N   UNL     1       8.343  -3.027  24.370  0.00  0.00    -0.269 N 
ATOM     12  H   UNL     1       8.068  -2.240  23.792  0.00  0.00    +0.153 HD
ATOM     13  C   UNL     1       9.612  -3.483  24.257  0.00  0.00    +0.401 C 
ATOM     14  O   UNL     1      10.056  -4.449  24.860  0.00  0.00    -0.226 OA
BRANCH  13  15
ATOM     15  O   UNL     1      10.304  -2.687  23.417  0.00  0.00    -0.446 OA
BRANCH  15  16
ATOM     16  C   UNL     1       9.514  -1.891  22.530  0.00  0.00    +0.269 C 
BRANCH  16  17
ATOM     17  C   UNL     1       9.833  -0.437  22.762  0.00  0.00    -0.010 A 
ATOM     18  C   UNL     1      10.461  -0.036  23.946  0.00  0.00    +0.007 A 
ATOM     19  C   UNL     1      10.773   1.308  24.159  0.00  0.00    +0.000 A 
ATOM     20  C   UNL     1      10.465   2.257  23.187  0.00  0.00    +0.000 A 
ATOM     21  C   UNL     1       9.848   1.865  21.999  0.00  0.00    +0.000 A 
ATOM     22  C   UNL     1       9.535   0.523  21.785  0.00  0.00    +0.007 A 
ENDBRANCH  16  17
ENDBRANCH  15  16
ENDBRANCH  13  15
ENDBRANCH   1  11
BRANCH   1  23
ATOM     23  C   UNL     1       6.523  -2.469  26.001  0.00  0.00    +0.067 C 
BRANCH  23  24
ATOM     24  C   UNL     1       6.734  -1.011  25.618  0.00  0.00    -0.045 A 
ATOM     25  C   UNL     1       6.180  -0.550  24.411  0.00  0.00    +0.007 A 
ATOM     26  C   UNL     1       6.347   0.779  24.010  0.00  0.00    +0.045 A 
ATOM     27  C   UNL     1       7.069   1.654  24.806  0.00  0.00    +0.117 A 
ATOM     28  C   UNL     1       7.629   1.225  25.996  0.00  0.00    +0.045 A 
ATOM     29  C   UNL     1       7.457  -0.100  26.396  0.00  0.00    +0.007 A 
BRANCH  27  30
ATOM     30  O   UNL     1       7.209   2.946  24.393  0.00  0.00    -0.507 OA
ATOM     31  H   UNL     1       7.401   3.493  25.172  0.00  0.00    +0.292 HD
ENDBRANCH  27  30
ENDBRANCH  23  24
ENDBRANCH   1  23
TORSDOF 10
ENDMDL
MODEL 8
REMARK VINA RESULT:      -6.0      2.654      7.475
REMARK  Name = 
REMARK  12 active torsions:
REMARK  status: ('A' for Active; 'I' for Inactive)
REMARK    1  A    between atoms: C_2  and  C_3
REMARK    2  A    between atoms: C_2  and  N_4
REMARK    3  A    between atoms: C_2  and  C_28
REMARK    4  A    between atoms: C_5  and  C_7
REMARK    5  A    between atoms: C_7  and  C_9
REMARK    6  A    between atoms: C_7  and  N_17
REMARK    7  A    between atoms: C_9  and  C_10
REMARK    8  A    between atoms: C_13  and  O_14
REMARK    9  A    between atoms: C_18  and  O_20
REMARK   10  A    between atoms: O_20  and  C_21
REMARK   11  A    between atoms: C_21  and  C_22
REMARK   12  A    between atoms: C_28  and  C_29
REMARK                            x       y       z     vdW  Elec       q    Type
REMARK                         _______ _______ _______ _____ _____    ______ ____
ROOT
ATOM      1  C   UNL     1       7.987  -2.393  23.457  0.00  0.00    +0.166 C 
ENDROOT
BRANCH   1   4
ATOM      2  N   UNL     1       6.685  -4.493  23.471  0.00  0.00    -0.304 N 
ATOM      3  H   UNL     1       7.532  -4.898  23.851  0.00  0.00    +0.149 HD
ATOM      4  C   UNL     1       6.809  -3.230  22.922  0.00  0.00    +0.234 C 
ATOM      5  O   UNL     1       6.032  -2.793  22.072  0.00  0.00    -0.274 OA
BRANCH   2   6
ATOM      6  C   UNL     1       5.697  -5.435  22.946  0.00  0.00    +0.136 C 
ATOM      7  C   UNL     1       6.287  -6.416  21.935  0.00  0.00    +0.036 C 
BRANCH   6   8
ATOM      8  C   UNL     1       4.916  -6.072  24.115  0.00  0.00    +0.150 C 
ATOM      9  O   UNL     1       4.670  -7.282  24.161  0.00  0.00    -0.296 OA
ATOM     10  C   UNL     1       4.551  -5.196  25.283  0.00  0.00    +0.088 C 
ENDBRANCH   6   8
ENDBRANCH   2   6
ENDBRANCH   1   4
BRANCH   1  11
ATOM     11  N   UNL     1       8.240  -1.293  22.538  0.00  0.00    -0.269 N 
ATOM     12  H   UNL     1       7.487  -0.647  22.328  0.00  0.00    +0.153 HD
ATOM     13  C   UNL     1       9.457  -1.043  22.001  0.00  0.00    +0.401 C 
ATOM     14  O   UNL     1      10.434  -1.764  22.137  0.00  0.00    -0.226 OA
BRANCH  13  15
ATOM     15  O   UNL     1       9.424   0.131  21.337  0.00  0.00    -0.446 OA
BRANCH  15  16
ATOM     16  C   UNL     1      10.001   1.245  22.023  0.00  0.00    +0.269 C 
BRANCH  16  17
ATOM     17  C   UNL     1       8.919   2.250  22.320  0.00  0.00    -0.010 A 
ATOM     18  C   UNL     1       9.185   3.344  23.150  0.00  0.00    +0.007 A 
ATOM     19  C   UNL     1       8.190   4.287  23.415  0.00  0.00    +0.000 A 
ATOM     20  C   UNL     1       6.927   4.145  22.846  0.00  0.00    +0.000 A 
ATOM     21  C   UNL     1       6.656   3.063  22.009  0.00  0.00    +0.000 A 
ATOM     22  C   UNL     1       7.648   2.120  21.744  0.00  0.00    +0.007 A 
ENDBRANCH  16  17
ENDBRANCH  15  16
ENDBRANCH  13  15
ENDBRANCH   1  11
BRANCH   1  23
ATOM     23  C   UNL     1       7.752  -1.928  24.913  0.00  0.00    +0.067 C 
BRANCH  23  24
ATOM     24  C   UNL     1       7.177  -0.543  25.170  0.00  0.00    -0.045 A 
ATOM     25  C   UNL     1       8.005   0.426  25.765  0.00  0.00    +0.007 A 
ATOM     26  C   UNL     1       7.526   1.714  26.025  0.00  0.00    +0.045 A 
ATOM     27  C   UNL     1       6.219   2.042  25.699  0.00  0.00    +0.117 A 
ATOM     28  C   UNL     1       5.381   1.106  25.118  0.00  0.00    +0.045 A 
ATOM     29  C   UNL     1       5.864  -0.176  24.855  0.00  0.00    +0.007 A 
BRANCH  27  30
ATOM     30  O   UNL     1       5.782   3.307  25.958  0.00  0.00    -0.507 OA
ATOM     31  H   UNL     1       6.554   3.855  26.176  0.00  0.00    +0.292 HD
ENDBRANCH  27  30
ENDBRANCH  23  24
ENDBRANCH   1  23
TORSDOF 10
ENDMDL
MODEL 9
REMARK VINA RESULT:      -5.8      2.642      7.169
REMARK  Name = 
REMARK  12 active torsions:
REMARK  status: ('A' for Active; 'I' for Inactive)
REMARK    1  A    between atoms: C_2  and  C_3
REMARK    2  A    between atoms: C_2  and  N_4
REMARK    3  A    between atoms: C_2  and  C_28
REMARK    4  A    between atoms: C_5  and  C_7
REMARK    5  A    between atoms: C_7  and  C_9
REMARK    6  A    between atoms: C_7  and  N_17
REMARK    7  A    between atoms: C_9  and  C_10
REMARK    8  A    between atoms: C_13  and  O_14
REMARK    9  A    between atoms: C_18  and  O_20
REMARK   10  A    between atoms: O_20  and  C_21
REMARK   11  A    between atoms: C_21  and  C_22
REMARK   12  A    between atoms: C_28  and  C_29
REMARK                            x       y       z     vdW  Elec       q    Type
REMARK                         _______ _______ _______ _____ _____    ______ ____
ROOT
ATOM      1  C   UNL     1       5.028  -1.918  25.518  0.00  0.00    +0.166 C 
ENDROOT
BRANCH   1   4
ATOM      2  N   UNL     1       5.360  -4.256  26.249  0.00  0.00    -0.304 N 
ATOM      3  H   UNL     1       5.151  -4.482  25.283  0.00  0.00    +0.149 HD
ATOM      4  C   UNL     1       5.065  -2.966  26.649  0.00  0.00    +0.234 C 
ATOM      5  O   UNL     1       4.853  -2.664  27.824  0.00  0.00    -0.274 OA
BRANCH   2   6
ATOM      6  C   UNL     1       5.285  -5.363  27.201  0.00  0.00    +0.136 C 
ATOM      7  C   UNL     1       4.483  -6.550  26.673  0.00  0.00    +0.036 C 
BRANCH   6   8
ATOM      8  C   UNL     1       6.700  -5.694  27.724  0.00  0.00    +0.150 C 
ATOM      9  O   UNL     1       6.886  -6.398  28.722  0.00  0.00    -0.296 OA
ATOM     10  C   UNL     1       7.880  -5.231  26.912  0.00  0.00    +0.088 C 
ENDBRANCH   6   8
ENDBRANCH   2   6
ENDBRANCH   1   4
BRANCH   1  11
ATOM     11  N   UNL     1       5.864  -0.789  25.896  0.00  0.00    -0.269 N 
ATOM     12  H   UNL     1       6.844  -0.951  26.099  0.00  0.00    +0.153 HD
ATOM     13  C   UNL     1       5.416   0.488  25.918  0.00  0.00    +0.401 C 
ATOM     14  O   UNL     1       4.252   0.816  25.737  0.00  0.00    -0.226 OA
BRANCH  13  15
ATOM     15  O   UNL     1       6.451   1.326  26.131  0.00  0.00    -0.446 OA
BRANCH  15  16
ATOM     16  C   UNL     1       6.927   2.025  24.977  0.00  0.00    +0.269 C 
BRANCH  16  17
ATOM     17  C   UNL     1       8.365   1.646  24.735  0.00  0.00    -0.010 A 
ATOM     18  C   UNL     1       9.152   2.399  23.858  0.00  0.00    +0.007 A 
ATOM     19  C   UNL     1      10.490   2.062  23.643  0.00  0.00    +0.000 A 
ATOM     20  C   UNL     1      11.049   0.974  24.309  0.00  0.00    +0.000 A 
ATOM     21  C   UNL     1      10.275   0.223  25.193  0.00  0.00    +0.000 A 
ATOM     22  C   UNL     1       8.939   0.558  25.408  0.00  0.00    +0.007 A 
ENDBRANCH  16  17
ENDBRANCH  15  16
ENDBRANCH  13  15
ENDBRANCH   1  11
BRANCH   1  23
ATOM     23  C   UNL     1       5.411  -2.530  24.150  0.00  0.00    +0.067 C 
BRANCH  23  24
ATOM     24  C   UNL     1       6.820  -2.328  23.612  0.00  0.00    -0.045 A 
ATOM     25  C   UNL     1       7.035  -1.307  22.668  0.00  0.00    +0.007 A 
ATOM     26  C   UNL     1       8.309  -1.081  22.138  0.00  0.00    +0.045 A 
ATOM     27  C   UNL     1       9.374  -1.871  22.542  0.00  0.00    +0.117 A 
ATOM     28  C   UNL     1       9.189  -2.885  23.466  0.00  0.00    +0.045 A 
ATOM     29  C   UNL     1       7.918  -3.105  23.995  0.00  0.00    +0.007 A 
BRANCH  27  30
ATOM     30  O   UNL     1      10.606  -1.622  22.014  0.00  0.00    -0.507 OA
ATOM     31  H   UNL     1      10.768  -0.665  22.063  0.00  0.00    +0.292 HD
ENDBRANCH  27  30
ENDBRANCH  23  24
ENDBRANCH   1  23
TORSDOF 10
ENDMDL
