MODEL 1
REMARK VINA RESULT:      -4.7      0.000      0.000
REMARK  Name = 
REMARK  10 active torsions:
REMARK  status: ('A' for Active; 'I' for Inactive)
REMARK    1  A    between atoms: N_1  and  C_2
REMARK    2  A    between atoms: C_2  and  C_3
REMARK    3  A    between atoms: C_3  and  C_4
REMARK    4  A    between atoms: C_4  and  C_5
REMARK    5  A    between atoms: C_5  and  C_6
REMARK    6  A    between atoms: C_6  and  C_7
REMARK    7  A    between atoms: C_7  and  CA_8
REMARK    8  A    between atoms: CA_8  and  N_10
REMARK    9  A    between atoms: CA_8  and  C_11
REMARK   10  A    between atoms: C_11  and  O_12
REMARK                            x       y       z     vdW  Elec       q    Type
REMARK                         _______ _______ _______ _____ _____    ______ ____
ROOT
ATOM      1  C   UNL     1      10.311   1.374  22.971  0.00  0.00    +0.030 C 
ENDROOT
BRANCH   1   2
ATOM      2  C   UNL     1       9.321   2.307  23.681  0.00  0.00    +0.002 C 
BRANCH   2   3
ATOM      3  C   UNL     1       9.806   3.759  23.695  0.00  0.00    +0.000 C 
BRANCH   3   4
ATOM      4  C   UNL     1      11.313   3.821  23.433  0.00  0.00    +0.001 C 
BRANCH   4   5
ATOM      5  C   UNL     1      11.845   5.254  23.492  0.00  0.00    +0.015 C 
BRANCH   5   6
ATOM      6  C   UNL     1      12.994   5.447  22.502  0.00  0.00    +0.077 C 
BRANCH   6   7
ATOM      7  N   UNL     1      14.261   5.048  23.103  0.00  0.00    -0.330 NA
ATOM      8  H   UNL     1      14.465   5.647  23.904  0.00  0.00    +0.118 HD
ATOM      9  H   UNL     1      14.176   4.101  23.468  0.00  0.00    +0.118 HD
ENDBRANCH   6   7
ENDBRANCH   5   6
ENDBRANCH   4   5
ENDBRANCH   3   4
ENDBRANCH   2   3
ENDBRANCH   1   2
BRANCH   1  10
ATOM     10  CA  UNL     1       9.762   0.741  21.684  0.00  0.00    +0.161 C 
BRANCH  10  11
ATOM     11  N   UNL     1       8.633   1.534  21.118  0.00  0.00    -0.318 NA
ATOM     12  H1  UNL     1       7.768   1.196  21.549  0.00  0.00    +0.119 HD
ATOM     13  H2  UNL     1       8.725   2.498  21.459  0.00  0.00    +0.119 HD
ENDBRANCH  10  11
BRANCH  10  14
ATOM     14  C   UNL     1       9.272  -0.694  21.950  0.00  0.00    +0.322 C 
ATOM     15  OXT UNL     1       8.180  -0.990  22.402  0.00  0.00    -0.249 OA
BRANCH  14  16
ATOM     16  O   UNL     1      10.213  -1.605  21.585  0.00  0.00    -0.480 OA
ATOM     17  H   UNL     1       9.730  -2.456  21.440  0.00  0.00    +0.295 HD
ENDBRANCH  14  16
ENDBRANCH  10  14
ENDBRANCH   1  10
TORSDOF 10
ENDMDL
MODEL 2
REMARK VINA RESULT:      -4.7      4.751      6.279
REMARK  Name = 
REMARK  10 active torsions:
REMARK  status: ('A' for Active; 'I' for Inactive)
REMARK    1  A    between atoms: N_1  and  C_2
REMARK    2  A    between atoms: C_2  and  C_3
REMARK    3  A    between atoms: C_3  and  C_4
REMARK    4  A    between atoms: C_4  and  C_5
REMARK    5  A    between atoms: C_5  and  C_6
REMARK    6  A    between atoms: C_6  and  C_7
REMARK    7  A    between atoms: C_7  and  CA_8
REMARK    8  A    between atoms: CA_8  and  N_10
REMARK    9  A    between atoms: CA_8  and  C_11
REMARK   10  A    between atoms: C_11  and  O_12
REMARK                            x       y       z     vdW  Elec       q    Type
REMARK                         _______ _______ _______ _____ _____    ______ ____
ROOT
ATOM      1  C   UNL     1       8.790  -3.269  25.462  0.00  0.00    +0.030 C 
ENDROOT
BRANCH   1   2
ATOM      2  C   UNL     1       9.538  -3.109  24.131  0.00  0.00    +0.002 C 
BRANCH   2   3
ATOM      3  C   UNL     1       9.889  -1.648  23.839  0.00  0.00    +0.000 C 
BRANCH   3   4
ATOM      4  C   UNL     1      10.300  -1.481  22.374  0.00  0.00    +0.001 C 
BRANCH   4   5
ATOM      5  C   UNL     1       9.620  -0.276  21.723  0.00  0.00    +0.015 C 
BRANCH   5   6
ATOM      6  C   UNL     1       9.985   1.015  22.456  0.00  0.00    +0.077 C 
BRANCH   6   7
ATOM      7  N   UNL     1       9.857   2.163  21.567  0.00  0.00    -0.330 NA
ATOM      8  H   UNL     1      10.369   1.987  20.702  0.00  0.00    +0.118 HD
ATOM      9  H   UNL     1       8.879   2.276  21.303  0.00  0.00    +0.118 HD
ENDBRANCH   6   7
ENDBRANCH   5   6
ENDBRANCH   4   5
ENDBRANCH   3   4
ENDBRANCH   2   3
ENDBRANCH   1   2
BRANCH   1  10
ATOM     10  CA  UNL     1       9.083  -4.588  26.191  0.00  0.00    +0.161 C 
BRANCH  10  11
ATOM     11  N   UNL     1      10.040  -5.440  25.426  0.00  0.00    -0.318 NA
ATOM     12  H1  UNL     1       9.653  -6.387  25.389  0.00  0.00    +0.119 HD
ATOM     13  H2  UNL     1      10.029  -5.124  24.450  0.00  0.00    +0.119 HD
ENDBRANCH  10  11
BRANCH  10  14
ATOM     14  C   UNL     1       7.786  -5.385  26.417  0.00  0.00    +0.322 C 
ATOM     15  OXT UNL     1       6.874  -5.484  25.615  0.00  0.00    -0.249 OA
BRANCH  14  16
ATOM     16  O   UNL     1       7.796  -5.997  27.631  0.00  0.00    -0.480 OA
ATOM     17  H   UNL     1       7.043  -5.607  28.141  0.00  0.00    +0.295 HD
ENDBRANCH  14  16
ENDBRANCH  10  14
ENDBRANCH   1  10
TORSDOF 10
ENDMDL
MODEL 3
REMARK VINA RESULT:      -4.4      3.920      6.457
REMARK  Name = 
REMARK  10 active torsions:
REMARK  status: ('A' for Active; 'I' for Inactive)
REMARK    1  A    between atoms: N_1  and  C_2
REMARK    2  A    between atoms: C_2  and  C_3
REMARK    3  A    between atoms: C_3  and  C_4
REMARK    4  A    between atoms: C_4  and  C_5
REMARK    5  A    between atoms: C_5  and  C_6
REMARK    6  A    between atoms: C_6  and  C_7
REMARK    7  A    between atoms: C_7  and  CA_8
REMARK    8  A    between atoms: CA_8  and  N_10
REMARK    9  A    between atoms: CA_8  and  C_11
REMARK   10  A    between atoms: C_11  and  O_12
REMARK                            x       y       z     vdW  Elec       q    Type
REMARK                         _______ _______ _______ _____ _____    ______ ____
ROOT
ATOM      1  C   UNL     1      10.340  -0.032  23.300  0.00  0.00    +0.030 C 
ENDROOT
BRANCH   1   2
ATOM      2  C   UNL     1       9.868  -0.555  24.664  0.00  0.00    +0.002 C 
BRANCH   2   3
ATOM      3  C   UNL     1       8.851  -1.690  24.525  0.00  0.00    +0.000 C 
BRANCH   3   4
ATOM      4  C   UNL     1       9.569  -3.034  24.376  0.00  0.00    +0.001 C 
BRANCH   4   5
ATOM      5  C   UNL     1       8.585  -4.196  24.230  0.00  0.00    +0.015 C 
BRANCH   5   6
ATOM      6  C   UNL     1       8.905  -5.307  25.231  0.00  0.00    +0.077 C 
BRANCH   6   7
ATOM      7  N   UNL     1      10.346  -5.476  25.365  0.00  0.00    -0.330 NA
ATOM      8  H   UNL     1      10.641  -6.318  24.869  0.00  0.00    +0.118 HD
ATOM      9  H   UNL     1      10.820  -4.696  24.911  0.00  0.00    +0.118 HD
ENDBRANCH   6   7
ENDBRANCH   5   6
ENDBRANCH   4   5
ENDBRANCH   3   4
ENDBRANCH   2   3
ENDBRANCH   1   2
BRANCH   1  10
ATOM     10  CA  UNL     1       9.258  -0.058  22.211  0.00  0.00    +0.161 C 
BRANCH  10  11
ATOM     11  N   UNL     1       9.644  -0.938  21.070  0.00  0.00    -0.318 NA
ATOM     12  H1  UNL     1       8.805  -1.437  20.763  0.00  0.00    +0.119 HD
ATOM     13  H2  UNL     1       9.884  -0.334  20.275  0.00  0.00    +0.119 HD
ENDBRANCH  10  11
BRANCH  10  14
ATOM     14  C   UNL     1       8.994   1.360  21.672  0.00  0.00    +0.322 C 
ATOM     15  OXT UNL     1       7.896   1.820  21.413  0.00  0.00    -0.249 OA
BRANCH  14  16
ATOM     16  O   UNL     1      10.155   2.056  21.544  0.00  0.00    -0.480 OA
ATOM     17  H   UNL     1       9.957   2.978  21.844  0.00  0.00    +0.295 HD
ENDBRANCH  14  16
ENDBRANCH  10  14
ENDBRANCH   1  10
TORSDOF 10
ENDMDL
MODEL 4
REMARK VINA RESULT:      -4.4      3.566      5.081
REMARK  Name = 
REMARK  10 active torsions:
REMARK  status: ('A' for Active; 'I' for Inactive)
REMARK    1  A    between atoms: N_1  and  C_2
REMARK    2  A    between atoms: C_2  and  C_3
REMARK    3  A    between atoms: C_3  and  C_4
REMARK    4  A    between atoms: C_4  and  C_5
REMARK    5  A    between atoms: C_5  and  C_6
REMARK    6  A    between atoms: C_6  and  C_7
REMARK    7  A    between atoms: C_7  and  CA_8
REMARK    8  A    between atoms: CA_8  and  N_10
REMARK    9  A    between atoms: CA_8  and  C_11
REMARK   10  A    between atoms: C_11  and  O_12
REMARK                            x       y       z     vdW  Elec       q    Type
REMARK                         _______ _______ _______ _____ _____    ______ ____
ROOT
ATOM      1  C   UNL     1       8.710   1.604  23.838  0.00  0.00    +0.030 C 
ENDROOT
BRANCH   1   2
ATOM      2  C   UNL     1      10.194   1.683  24.218  0.00  0.00    +0.002 C 
BRANCH   2   3
ATOM      3  C   UNL     1      10.763   0.316  24.608  0.00  0.00    +0.000 C 
BRANCH   3   4
ATOM      4  C   UNL     1       9.641  -0.721  24.705  0.00  0.00    +0.001 C 
BRANCH   4   5
ATOM      5  C   UNL     1       9.910  -1.939  23.820  0.00  0.00    +0.015 C 
BRANCH   5   6
ATOM      6  C   UNL     1       9.166  -1.819  22.490  0.00  0.00    +0.077 C 
BRANCH   6   7
ATOM      7  N   UNL     1      10.061  -1.335  21.446  0.00  0.00    -0.330 NA
ATOM      8  H   UNL     1       9.517  -0.892  20.704  0.00  0.00    +0.118 HD
ATOM      9  H   UNL     1      10.665  -0.611  21.830  0.00  0.00    +0.118 HD
ENDBRANCH   6   7
ENDBRANCH   5   6
ENDBRANCH   4   5
ENDBRANCH   3   4
ENDBRANCH   2   3
ENDBRANCH   1   2
BRANCH   1  10
ATOM     10  CA  UNL     1       8.429   1.871  22.352  0.00  0.00    +0.161 C 
BRANCH  10  11
ATOM     11  N   UNL     1       9.690   1.990  21.565  0.00  0.00    -0.318 NA
ATOM     12  H1  UNL     1       9.830   2.981  21.347  0.00  0.00    +0.119 HD
ATOM     13  H2  UNL     1      10.472   1.757  22.189  0.00  0.00    +0.119 HD
ENDBRANCH  10  11
BRANCH  10  14
ATOM     14  C   UNL     1       7.614   3.165  22.176  0.00  0.00    +0.322 C 
ATOM     15  OXT UNL     1       6.430   3.216  21.893  0.00  0.00    -0.249 OA
BRANCH  14  16
ATOM     16  O   UNL     1       8.385   4.261  22.406  0.00  0.00    -0.480 OA
ATOM     17  H   UNL     1       8.916   4.058  23.217  0.00  0.00    +0.295 HD
ENDBRANCH  14  16
ENDBRANCH  10  14
ENDBRANCH   1  10
TORSDOF 10
ENDMDL
MODEL 5
REMARK VINA RESULT:      -4.2      3.418      4.254
REMARK  Name = 
REMARK  10 active torsions:
REMARK  status: ('A' for Active; 'I' for Inactive)
REMARK    1  A    between atoms: N_1  and  C_2
REMARK    2  A    between atoms: C_2  and  C_3
REMARK    3  A    between atoms: C_3  and  C_4
REMARK    4  A    between atoms: C_4  and  C_5
REMARK    5  A    between atoms: C_5  and  C_6
REMARK    6  A    between atoms: C_6  and  C_7
REMARK    7  A    between atoms: C_7  and  CA_8
REMARK    8  A    between atoms: CA_8  and  N_10
REMARK    9  A    between atoms: CA_8  and  C_11
REMARK   10  A    between atoms: C_11  and  O_12
REMARK                            x       y       z     vdW  Elec       q    Type
REMARK                         _______ _______ _______ _____ _____    ______ ____
ROOT
ATOM      1  C   UNL     1       9.846  -0.152  25.057  0.00  0.00    +0.030 C 
ENDROOT
BRANCH   1   2
ATOM      2  C   UNL     1      10.705   0.920  24.373  0.00  0.00    +0.002 C 
BRANCH   2   3
ATOM      3  C   UNL     1       9.854   1.971  23.657  0.00  0.00    +0.000 C 
BRANCH   3   4
ATOM      4  C   UNL     1      10.018   1.846  22.140  0.00  0.00    +0.001 C 
BRANCH   4   5
ATOM      5  C   UNL     1       8.760   1.289  21.472  0.00  0.00    +0.015 C 
BRANCH   5   6
ATOM      6  C   UNL     1       7.541   2.148  21.809  0.00  0.00    +0.077 C 
BRANCH   6   7
ATOM      7  N   UNL     1       6.496   1.338  22.422  0.00  0.00    -0.330 NA
ATOM      8  H   UNL     1       6.913   0.519  22.867  0.00  0.00    +0.118 HD
ATOM      9  H   UNL     1       6.049   1.872  23.166  0.00  0.00    +0.118 HD
ENDBRANCH   6   7
ENDBRANCH   5   6
ENDBRANCH   4   5
ENDBRANCH   3   4
ENDBRANCH   2   3
ENDBRANCH   1   2
BRANCH   1  10
ATOM     10  CA  UNL     1       9.056  -1.037  24.081  0.00  0.00    +0.161 C 
BRANCH  10  11
ATOM     11  N   UNL     1       7.862  -1.649  24.734  0.00  0.00    -0.318 NA
ATOM     12  H1  UNL     1       7.322  -0.894  25.166  0.00  0.00    +0.119 HD
ATOM     13  H2  UNL     1       7.249  -2.007  23.993  0.00  0.00    +0.119 HD
ENDBRANCH  10  11
BRANCH  10  14
ATOM     14  C   UNL     1       9.945  -2.164  23.526  0.00  0.00    +0.322 C 
ATOM     15  OXT UNL     1      10.126  -3.244  24.061  0.00  0.00    -0.249 OA
BRANCH  14  16
ATOM     16  O   UNL     1      10.491  -1.809  22.332  0.00  0.00    -0.480 OA
ATOM     17  H   UNL     1      10.864  -0.901  22.459  0.00  0.00    +0.295 HD
ENDBRANCH  14  16
ENDBRANCH  10  14
ENDBRANCH   1  10
TORSDOF 10
ENDMDL
MODEL 6
REMARK VINA RESULT:      -4.1      4.988      7.349
REMARK  Name = 
REMARK  10 active torsions:
REMARK  status: ('A' for Active; 'I' for Inactive)
REMARK    1  A    between atoms: N_1  and  C_2
REMARK    2  A    between atoms: C_2  and  C_3
REMARK    3  A    between atoms: C_3  and  C_4
REMARK    4  A    between atoms: C_4  and  C_5
REMARK    5  A    between atoms: C_5  and  C_6
REMARK    6  A    between atoms: C_6  and  C_7
REMARK    7  A    between atoms: C_7  and  CA_8
REMARK    8  A    between atoms: CA_8  and  N_10
REMARK    9  A    between atoms: CA_8  and  C_11
REMARK   10  A    between atoms: C_11  and  O_12
REMARK                            x       y       z     vdW  Elec       q    Type
REMARK                         _______ _______ _______ _____ _____    ______ ____
ROOT
ATOM      1  C   UNL     1       7.450  -1.856  22.623  0.00  0.00    +0.030 C 
ENDROOT
BRANCH   1   2
ATOM      2  C   UNL     1       7.401  -3.355  22.300  0.00  0.00    +0.002 C 
BRANCH   2   3
ATOM      3  C   UNL     1       6.758  -4.167  23.428  0.00  0.00    +0.000 C 
BRANCH   3   4
ATOM      4  C   UNL     1       7.806  -5.042  24.120  0.00  0.00    +0.001 C 
BRANCH   4   5
ATOM      5  C   UNL     1       7.758  -4.897  25.642  0.00  0.00    +0.015 C 
BRANCH   5   6
ATOM      6  C   UNL     1       9.169  -4.816  26.224  0.00  0.00    +0.077 C 
BRANCH   6   7
ATOM      7  N   UNL     1      10.129  -5.454  25.332  0.00  0.00    -0.330 NA
ATOM      8  H   UNL     1       9.633  -6.020  24.641  0.00  0.00    +0.118 HD
ATOM      9  H   UNL     1      10.630  -4.738  24.809  0.00  0.00    +0.118 HD
ENDBRANCH   6   7
ENDBRANCH   5   6
ENDBRANCH   4   5
ENDBRANCH   3   4
ENDBRANCH   2   3
ENDBRANCH   1   2
BRANCH   1  10
ATOM     10  CA  UNL     1       8.871  -1.285  22.732  0.00  0.00    +0.161 C 
BRANCH  10  11
ATOM     11  N   UNL     1       9.694  -1.623  21.535  0.00  0.00    -0.318 NA
ATOM     12  H1  UNL     1       9.415  -0.994  20.776  0.00  0.00    +0.119 HD
ATOM     13  H2  UNL     1      10.665  -1.358  21.737  0.00  0.00    +0.119 HD
ENDBRANCH  10  11
BRANCH  10  14
ATOM     14  C   UNL     1       9.580  -1.825  23.986  0.00  0.00    +0.322 C 
ATOM     15  OXT UNL     1       9.372  -1.450  25.127  0.00  0.00    -0.249 OA
BRANCH  14  16
ATOM     16  O   UNL     1      10.461  -2.808  23.662  0.00  0.00    -0.480 OA
ATOM     17  H   UNL     1       9.955  -3.462  23.117  0.00  0.00    +0.295 HD
ENDBRANCH  14  16
ENDBRANCH  10  14
ENDBRANCH   1  10
TORSDOF 10
ENDMDL
MODEL 7
REMARK VINA RESULT:      -4.1      4.161      6.865
REMARK  Name = 
REMARK  10 active torsions:
REMARK  status: ('A' for Active; 'I' for Inactive)
REMARK    1  A    between atoms: N_1  and  C_2
REMARK    2  A    between atoms: C_2  and  C_3
REMARK    3  A    between atoms: C_3  and  C_4
REMARK    4  A    between atoms: C_4  and  C_5
REMARK    5  A    between atoms: C_5  and  C_6
REMARK    6  A    between atoms: C_6  and  C_7
REMARK    7  A    between atoms: C_7  and  CA_8
REMARK    8  A    between atoms: CA_8  and  N_10
REMARK    9  A    between atoms: CA_8  and  C_11
REMARK   10  A    between atoms: C_11  and  O_12
REMARK                            x       y       z     vdW  Elec       q    Type
REMARK                         _______ _______ _______ _____ _____    ______ ____
ROOT
ATOM      1  C   UNL     1       9.815  -0.030  22.567  0.00  0.00    +0.030 C 
ENDROOT
BRANCH   1   2
ATOM      2  C   UNL     1      10.237  -1.491  22.771  0.00  0.00    +0.002 C 
BRANCH   2   3
ATOM      3  C   UNL     1       9.065  -2.375  23.205  0.00  0.00    +0.000 C 
BRANCH   3   4
ATOM      4  C   UNL     1       9.468  -3.250  24.394  0.00  0.00    +0.001 C 
BRANCH   4   5
ATOM      5  C   UNL     1       8.292  -4.071  24.925  0.00  0.00    +0.015 C 
BRANCH   5   6
ATOM      6  C   UNL     1       8.789  -5.313  25.666  0.00  0.00    +0.077 C 
BRANCH   6   7
ATOM      7  N   UNL     1      10.170  -5.606  25.305  0.00  0.00    -0.330 NA
ATOM      8  H   UNL     1      10.268  -5.607  24.289  0.00  0.00    +0.118 HD
ATOM      9  H   UNL     1      10.773  -4.862  25.650  0.00  0.00    +0.118 HD
ENDBRANCH   6   7
ENDBRANCH   5   6
ENDBRANCH   4   5
ENDBRANCH   3   4
ENDBRANCH   2   3
ENDBRANCH   1   2
BRANCH   1  10
ATOM     10  CA  UNL     1      10.513   0.961  23.511  0.00  0.00    +0.161 C 
BRANCH  10  11
ATOM     11  N   UNL     1       9.983   0.863  24.902  0.00  0.00    -0.318 NA
ATOM     12  H1  UNL     1       9.240   0.158  24.904  0.00  0.00    +0.119 HD
ATOM     13  H2  UNL     1      10.719   0.455  25.489  0.00  0.00    +0.119 HD
ENDBRANCH  10  11
BRANCH  10  14
ATOM     14  C   UNL     1      10.330   2.406  23.014  0.00  0.00    +0.322 C 
ATOM     15  OXT UNL     1      10.281   3.393  23.728  0.00  0.00    -0.249 OA
BRANCH  14  16
ATOM     16  O   UNL     1      10.255   2.449  21.658  0.00  0.00    -0.480 OA
ATOM     17  H   UNL     1      10.405   1.522  21.345  0.00  0.00    +0.295 HD
ENDBRANCH  14  16
ENDBRANCH  10  14
ENDBRANCH   1  10
TORSDOF 10
ENDMDL
MODEL 8
REMARK VINA RESULT:      -4.1      3.083      5.357
REMARK  Name = 
REMARK  10 active torsions:
REMARK  status: ('A' for Active; 'I' for Inactive)
REMARK    1  A    between atoms: N_1  and  C_2
REMARK    2  A    between atoms: C_2  and  C_3
REMARK    3  A    between atoms: C_3  and  C_4
REMARK    4  A    between atoms: C_4  and  C_5
REMARK    5  A    between atoms: C_5  and  C_6
REMARK    6  A    between atoms: C_6  and  C_7
REMARK    7  A    between atoms: C_7  and  CA_8
REMARK    8  A    between atoms: CA_8  and  N_10
REMARK    9  A    between atoms: CA_8  and  C_11
REMARK   10  A    between atoms: C_11  and  O_12
REMARK                            x       y       z     vdW  Elec       q    Type
REMARK                         _______ _______ _______ _____ _____    ______ ____
ROOT
ATOM      1  C   UNL     1       9.364   1.243  24.742  0.00  0.00    +0.030 C 
ENDROOT
BRANCH   1   2
ATOM      2  C   UNL     1      10.465   0.175  24.704  0.00  0.00    +0.002 C 
BRANCH   2   3
ATOM      3  C   UNL     1       9.937  -1.180  24.225  0.00  0.00    +0.000 C 
BRANCH   3   4
ATOM      4  C   UNL     1      10.117  -1.318  22.711  0.00  0.00    +0.001 C 
BRANCH   4   5
ATOM      5  C   UNL     1       8.776  -1.431  21.983  0.00  0.00    +0.015 C 
BRANCH   5   6
ATOM      6  C   UNL     1       7.630  -1.597  22.980  0.00  0.00    +0.077 C 
BRANCH   6   7
ATOM      7  N   UNL     1       6.681  -0.497  22.858  0.00  0.00    -0.330 NA
ATOM      8  H   UNL     1       5.948  -0.746  22.193  0.00  0.00    +0.118 HD
ATOM      9  H   UNL     1       6.219  -0.351  23.754  0.00  0.00    +0.118 HD
ENDBRANCH   6   7
ENDBRANCH   5   6
ENDBRANCH   4   5
ENDBRANCH   3   4
ENDBRANCH   2   3
ENDBRANCH   1   2
BRANCH   1  10
ATOM     10  CA  UNL     1       9.651   2.469  23.862  0.00  0.00    +0.161 C 
BRANCH  10  11
ATOM     11  N   UNL     1       9.037   3.707  24.425  0.00  0.00    -0.318 NA
ATOM     12  H1  UNL     1       8.077   3.482  24.700  0.00  0.00    +0.119 HD
ATOM     13  H2  UNL     1       9.511   3.917  25.311  0.00  0.00    +0.119 HD
ENDBRANCH  10  11
BRANCH  10  14
ATOM     14  C   UNL     1       9.110   2.255  22.437  0.00  0.00    +0.322 C 
ATOM     15  OXT UNL     1       7.931   2.184  22.137  0.00  0.00    -0.249 OA
BRANCH  14  16
ATOM     16  O   UNL     1      10.126   2.181  21.537  0.00  0.00    -0.480 OA
ATOM     17  H   UNL     1      10.065   3.001  20.986  0.00  0.00    +0.295 HD
ENDBRANCH  14  16
ENDBRANCH  10  14
ENDBRANCH   1  10
TORSDOF 10
ENDMDL
MODEL 9
REMARK VINA RESULT:      -4.1      3.953      5.090
REMARK  Name = 
REMARK  10 active torsions:
REMARK  status: ('A' for Active; 'I' for Inactive)
REMARK    1  A    between atoms: N_1  and  C_2
REMARK    2  A    between atoms: C_2  and  C_3
REMARK    3  A    between atoms: C_3  and  C_4
REMARK    4  A    between atoms: C_4  and  C_5
REMARK    5  A    between atoms: C_5  and  C_6
REMARK    6  A    between atoms: C_6  and  C_7
REMARK    7  A    between atoms: C_7  and  CA_8
REMARK    8  A    between atoms: CA_8  and  N_10
REMARK    9  A    between atoms: CA_8  and  C_11
REMARK   10  A    between atoms: C_11  and  O_12
REMARK                            x       y       z     vdW  Elec       q    Type
REMARK                         _______ _______ _______ _____ _____    ______ ____
ROOT
ATOM      1  C   UNL     1       8.005  -2.628  25.167  0.00  0.00    +0.030 C 
ENDROOT
BRANCH   1   2
ATOM      2  C   UNL     1       8.571  -1.219  25.393  0.00  0.00    +0.002 C 
BRANCH   2   3
ATOM      3  C   UNL     1       9.717  -0.898  24.431  0.00  0.00    +0.000 C 
BRANCH   3   4
ATOM      4  C   UNL     1      10.526   0.296  24.945  0.00  0.00    +0.001 C 
BRANCH   4   5
ATOM      5  C   UNL     1      10.644   1.402  23.895  0.00  0.00    +0.015 C 
BRANCH   5   6
ATOM      6  C   UNL     1      10.014   0.964  22.573  0.00  0.00    +0.077 C 
BRANCH   6   7
ATOM      7  N   UNL     1       9.947   2.084  21.642  0.00  0.00    -0.330 NA
ATOM      8  H   UNL     1      10.363   2.913  22.070  0.00  0.00    +0.118 HD
ATOM      9  H   UNL     1      10.512   1.873  20.821  0.00  0.00    +0.118 HD
ENDBRANCH   6   7
ENDBRANCH   5   6
ENDBRANCH   4   5
ENDBRANCH   3   4
ENDBRANCH   2   3
ENDBRANCH   1   2
BRANCH   1  10
ATOM     10  CA  UNL     1       9.003  -3.609  24.533  0.00  0.00    +0.161 C 
BRANCH  10  11
ATOM     11  N   UNL     1       8.390  -4.363  23.402  0.00  0.00    -0.318 NA
ATOM     12  H1  UNL     1       8.315  -5.344  23.686  0.00  0.00    +0.119 HD
ATOM     13  H2  UNL     1       7.416  -4.052  23.308  0.00  0.00    +0.119 HD
ENDBRANCH  10  11
BRANCH  10  14
ATOM     14  C   UNL     1       9.514  -4.617  25.578  0.00  0.00    +0.322 C 
ATOM     15  OXT UNL     1       9.122  -4.693  26.730  0.00  0.00    -0.249 OA
BRANCH  14  16
ATOM     16  O   UNL     1      10.451  -5.442  25.041  0.00  0.00    -0.480 OA
ATOM     17  H   UNL     1      10.714  -6.065  25.764  0.00  0.00    +0.295 HD
ENDBRANCH  14  16
ENDBRANCH  10  14
ENDBRANCH   1  10
TORSDOF 10
ENDMDL
