MODEL 1
REMARK VINA RESULT:      -7.9      0.000      0.000
REMARK  Name = 
REMARK  7 active torsions:
REMARK  status: ('A' for Active; 'I' for Inactive)
REMARK    1  A    between atoms: C_1  and  C_2
REMARK    2  A    between atoms: C_6  and  C_8
REMARK    3  A    between atoms: C_8  and  C_10
REMARK    4  A    between atoms: C_14  and  N_15
REMARK    5  A    between atoms: N_15  and  C_16
REMARK    6  A    between atoms: C_16  and  C_17
REMARK    7  A    between atoms: C_20  and  C_23
REMARK                            x       y       z     vdW  Elec       q    Type
REMARK                         _______ _______ _______ _____ _____    ______ ____
ROOT
ATOM      1  C   UNL     1       8.954  -2.984  25.018  0.00  0.00    +0.027 A 
ATOM      2  C   UNL     1       9.545  -2.083  24.132  0.00  0.00    +0.055 A 
ATOM      3  C   UNL     1       9.789  -0.780  24.549  0.00  0.00    +0.120 A 
ATOM      4  N   UNL     1       9.348  -0.323  25.733  0.00  0.00    -0.240 NA
ATOM      5  C   UNL     1       8.657  -1.179  26.523  0.00  0.00    +0.113 A 
ATOM      6  C   UNL     1       8.451  -2.511  26.224  0.00  0.00    +0.031 A 
ENDROOT
BRANCH   1   7
ATOM      7  C   UNL     1       8.876  -4.445  24.731  0.00  0.00    +0.193 C 
ATOM      8  O   UNL     1       9.854  -5.149  24.970  0.00  0.00    -0.287 OA
BRANCH   7  12
ATOM      9  C   UNL     1       6.152  -5.904  20.773  0.00  0.00    +0.044 C 
ATOM     10  C   UNL     1       6.300  -5.783  22.262  0.00  0.00    -0.050 A 
ATOM     11  C   UNL     1       7.528  -5.379  22.801  0.00  0.00    +0.015 A 
ATOM     12  C   UNL     1       7.644  -5.068  24.163  0.00  0.00    +0.023 A 
ATOM     13  C   UNL     1       6.561  -5.311  25.014  0.00  0.00    +0.012 A 
ATOM     14  C   UNL     1       5.355  -5.784  24.494  0.00  0.00    +0.001 A 
ATOM     15  C   UNL     1       5.217  -5.992  23.120  0.00  0.00    +0.003 A 
ENDBRANCH   7  12
ENDBRANCH   1   7
BRANCH   3  16
ATOM     16  N   UNL     1      10.579   0.013  23.715  0.00  0.00    -0.325 N 
ATOM     17  H   UNL     1      11.547  -0.291  23.739  0.00  0.00    +0.148 HD
BRANCH  16  18
ATOM     18  C   UNL     1      10.087   0.250  22.367  0.00  0.00    +0.138 C 
BRANCH  18  19
ATOM     19  C   UNL     1       9.238   1.509  22.394  0.00  0.00    -0.030 A 
ATOM     20  C   UNL     1       9.665   2.633  23.124  0.00  0.00    +0.006 A 
ATOM     21  C   UNL     1       8.926   3.822  23.115  0.00  0.00    +0.016 A 
ATOM     22  C   UNL     1       7.743   3.901  22.377  0.00  0.00    +0.065 A 
ATOM     23  C   UNL     1       7.279   2.770  21.694  0.00  0.00    +0.016 A 
ATOM     24  C   UNL     1       8.024   1.583  21.700  0.00  0.00    +0.006 A 
BRANCH  22  25
ATOM     25  C   UNL     1       6.999   5.191  22.310  0.00  0.00    +0.308 C 
ATOM     26  N   UNL     1       5.886   5.392  22.939  0.00  0.00    -0.099 NA
ATOM     27  H   UNL     1       5.575   4.550  23.430  0.00  0.00    +0.363 HD
ATOM     28  N   UNL     1       7.463   6.227  21.556  0.00  0.00    -0.247 N 
ATOM     29  H   UNL     1       6.953   7.081  21.769  0.00  0.00    +0.288 HD
ATOM     30  H   UNL     1       8.466   6.363  21.551  0.00  0.00    +0.288 HD
ENDBRANCH  22  25
ENDBRANCH  18  19
ENDBRANCH  16  18
ENDBRANCH   3  16
TORSDOF 6
ENDMDL
MODEL 2
REMARK VINA RESULT:      -7.8      2.219      2.817
REMARK  Name = 
REMARK  7 active torsions:
REMARK  status: ('A' for Active; 'I' for Inactive)
REMARK    1  A    between atoms: C_1  and  C_2
REMARK    2  A    between atoms: C_6  and  C_8
REMARK    3  A    between atoms: C_8  and  C_10
REMARK    4  A    between atoms: C_14  and  N_15
REMARK    5  A    between atoms: N_15  and  C_16
REMARK    6  A    between atoms: C_16  and  C_17
REMARK    7  A    between atoms: C_20  and  C_23
REMARK                            x       y       z     vdW  Elec       q    Type
REMARK                         _______ _______ _______ _____ _____    ______ ____
ROOT
ATOM      1  C   UNL     1       8.509  -2.455  25.020  0.00  0.00    +0.027 A 
ATOM      2  C   UNL     1       8.274  -1.427  24.106  0.00  0.00    +0.055 A 
ATOM      3  C   UNL     1       8.323  -0.108  24.539  0.00  0.00    +0.120 A 
ATOM      4  N   UNL     1       8.455   0.205  25.839  0.00  0.00    -0.240 NA
ATOM      5  C   UNL     1       8.547  -0.813  26.728  0.00  0.00    +0.113 A 
ATOM      6  C   UNL     1       8.599  -2.147  26.372  0.00  0.00    +0.031 A 
ENDROOT
BRANCH   1   7
ATOM      7  C   UNL     1       8.706  -3.869  24.591  0.00  0.00    +0.193 C 
ATOM      8  O   UNL     1       9.830  -4.358  24.658  0.00  0.00    -0.287 OA
BRANCH   7  12
ATOM      9  C   UNL     1       6.147  -5.897  20.776  0.00  0.00    +0.044 C 
ATOM     10  C   UNL     1       6.312  -5.693  22.253  0.00  0.00    -0.050 A 
ATOM     11  C   UNL     1       7.474  -5.081  22.739  0.00  0.00    +0.015 A 
ATOM     12  C   UNL     1       7.573  -4.700  24.085  0.00  0.00    +0.023 A 
ATOM     13  C   UNL     1       6.563  -5.073  24.977  0.00  0.00    +0.012 A 
ATOM     14  C   UNL     1       5.434  -5.749  24.512  0.00  0.00    +0.001 A 
ATOM     15  C   UNL     1       5.297  -6.033  23.152  0.00  0.00    +0.003 A 
ENDBRANCH   7  12
ENDBRANCH   1   7
BRANCH   3  16
ATOM     16  N   UNL     1       8.304   0.882  23.554  0.00  0.00    -0.325 N 
ATOM     17  H   UNL     1       7.818   0.556  22.725  0.00  0.00    +0.148 HD
BRANCH  16  18
ATOM     18  C   UNL     1       7.902   2.217  23.966  0.00  0.00    +0.138 C 
BRANCH  18  19
ATOM     19  C   UNL     1       9.104   3.133  23.818  0.00  0.00    -0.030 A 
ATOM     20  C   UNL     1       8.974   4.514  24.058  0.00  0.00    +0.006 A 
ATOM     21  C   UNL     1      10.082   5.366  23.982  0.00  0.00    +0.016 A 
ATOM     22  C   UNL     1      11.338   4.848  23.661  0.00  0.00    +0.065 A 
ATOM     23  C   UNL     1      11.468   3.485  23.366  0.00  0.00    +0.016 A 
ATOM     24  C   UNL     1      10.358   2.634  23.446  0.00  0.00    +0.006 A 
BRANCH  22  25
ATOM     25  C   UNL     1      12.528   5.745  23.657  0.00  0.00    +0.308 C 
ATOM     26  N   UNL     1      12.763   6.602  24.598  0.00  0.00    -0.099 NA
ATOM     27  H   UNL     1      12.014   6.611  25.294  0.00  0.00    +0.363 HD
ATOM     28  N   UNL     1      13.428   5.709  22.634  0.00  0.00    -0.247 N 
ATOM     29  H   UNL     1      14.265   6.234  22.875  0.00  0.00    +0.288 HD
ATOM     30  H   UNL     1      13.637   4.795  22.253  0.00  0.00    +0.288 HD
ENDBRANCH  22  25
ENDBRANCH  18  19
ENDBRANCH  16  18
ENDBRANCH   3  16
TORSDOF 6
ENDMDL
MODEL 3
REMARK VINA RESULT:      -7.7      3.302      9.098
REMARK  Name = 
REMARK  7 active torsions:
REMARK  status: ('A' for Active; 'I' for Inactive)
REMARK    1  A    between atoms: C_1  and  C_2
REMARK    2  A    between atoms: C_6  and  C_8
REMARK    3  A    between atoms: C_8  and  C_10
REMARK    4  A    between atoms: C_14  and  N_15
REMARK    5  A    between atoms: N_15  and  C_16
REMARK    6  A    between atoms: C_16  and  C_17
REMARK    7  A    between atoms: C_20  and  C_23
REMARK                            x       y       z     vdW  Elec       q    Type
REMARK                         _______ _______ _______ _____ _____    ______ ____
ROOT
ATOM      1  C   UNL     1       9.982   0.135  23.334  0.00  0.00    +0.027 A 
ATOM      2  C   UNL     1       9.491  -1.034  23.916  0.00  0.00    +0.055 A 
ATOM      3  C   UNL     1       9.006  -2.048  23.099  0.00  0.00    +0.120 A 
ATOM      4  N   UNL     1       8.868  -1.882  21.772  0.00  0.00    -0.240 NA
ATOM      5  C   UNL     1       9.226  -0.686  21.245  0.00  0.00    +0.113 A 
ATOM      6  C   UNL     1       9.801   0.338  21.972  0.00  0.00    +0.031 A 
ENDROOT
BRANCH   1   7
ATOM      7  C   UNL     1      10.729   1.159  24.120  0.00  0.00    +0.193 C 
ATOM      8  O   UNL     1      11.564   0.785  24.940  0.00  0.00    -0.287 OA
BRANCH   7  12
ATOM      9  C   UNL     1      12.459   5.782  23.196  0.00  0.00    +0.044 C 
ATOM     10  C   UNL     1      11.301   4.874  23.489  0.00  0.00    -0.050 A 
ATOM     11  C   UNL     1      11.492   3.487  23.474  0.00  0.00    +0.015 A 
ATOM     12  C   UNL     1      10.488   2.621  23.932  0.00  0.00    +0.023 A 
ATOM     13  C   UNL     1       9.234   3.142  24.263  0.00  0.00    +0.012 A 
ATOM     14  C   UNL     1       9.013   4.520  24.209  0.00  0.00    +0.001 A 
ATOM     15  C   UNL     1      10.050   5.383  23.851  0.00  0.00    +0.003 A 
ENDBRANCH   7  12
ENDBRANCH   1   7
BRANCH   3  16
ATOM     16  N   UNL     1       8.737  -3.275  23.707  0.00  0.00    -0.325 N 
ATOM     17  H   UNL     1       8.607  -3.162  24.707  0.00  0.00    +0.148 HD
BRANCH  16  18
ATOM     18  C   UNL     1       7.721  -4.111  23.088  0.00  0.00    +0.138 C 
BRANCH  18  19
ATOM     19  C   UNL     1       6.935  -4.789  24.198  0.00  0.00    -0.030 A 
ATOM     20  C   UNL     1       5.668  -5.339  23.932  0.00  0.00    +0.006 A 
ATOM     21  C   UNL     1       4.953  -6.017  24.927  0.00  0.00    +0.016 A 
ATOM     22  C   UNL     1       5.497  -6.151  26.206  0.00  0.00    +0.065 A 
ATOM     23  C   UNL     1       6.732  -5.559  26.497  0.00  0.00    +0.016 A 
ATOM     24  C   UNL     1       7.447  -4.884  25.498  0.00  0.00    +0.006 A 
BRANCH  22  25
ATOM     25  C   UNL     1       4.767  -6.939  27.240  0.00  0.00    +0.308 C 
ATOM     26  N   UNL     1       3.506  -7.217  27.148  0.00  0.00    -0.099 NA
ATOM     27  H   UNL     1       3.086  -6.787  26.320  0.00  0.00    +0.363 HD
ATOM     28  N   UNL     1       5.408  -7.396  28.351  0.00  0.00    -0.247 N 
ATOM     29  H   UNL     1       4.827  -8.067  28.849  0.00  0.00    +0.288 HD
ATOM     30  H   UNL     1       6.356  -7.725  28.219  0.00  0.00    +0.288 HD
ENDBRANCH  22  25
ENDBRANCH  18  19
ENDBRANCH  16  18
ENDBRANCH   3  16
TORSDOF 6
ENDMDL
MODEL 4
REMARK VINA RESULT:      -7.6      2.446      3.633
REMARK  Name = 
REMARK  7 active torsions:
REMARK  status: ('A' for Active; 'I' for Inactive)
REMARK    1  A    between atoms: C_1  and  C_2
REMARK    2  A    between atoms: C_6  and  C_8
REMARK    3  A    between atoms: C_8  and  C_10
REMARK    4  A    between atoms: C_14  and  N_15
REMARK    5  A    between atoms: N_15  and  C_16
REMARK    6  A    between atoms: C_16  and  C_17
REMARK    7  A    between atoms: C_20  and  C_23
REMARK                            x       y       z     vdW  Elec       q    Type
REMARK                         _______ _______ _______ _____ _____    ______ ____
ROOT
ATOM      1  C   UNL     1       7.366  -4.923  25.345  0.00  0.00    +0.027 A 
ATOM      2  C   UNL     1       7.409  -3.795  24.524  0.00  0.00    +0.055 A 
ATOM      3  C   UNL     1       8.635  -3.351  24.043  0.00  0.00    +0.120 A 
ATOM      4  N   UNL     1       9.794  -3.893  24.454  0.00  0.00    -0.240 NA
ATOM      5  C   UNL     1       9.735  -4.901  25.357  0.00  0.00    +0.113 A 
ATOM      6  C   UNL     1       8.558  -5.461  25.815  0.00  0.00    +0.031 A 
ENDROOT
BRANCH   1   7
ATOM      7  C   UNL     1       6.084  -5.594  25.705  0.00  0.00    +0.193 C 
ATOM      8  O   UNL     1       6.063  -6.354  26.669  0.00  0.00    -0.287 OA
BRANCH   7  12
ATOM      9  C   UNL     1       1.508  -3.567  25.302  0.00  0.00    +0.044 C 
ATOM     10  C   UNL     1       2.608  -4.393  24.704  0.00  0.00    -0.050 A 
ATOM     11  C   UNL     1       3.852  -4.452  25.346  0.00  0.00    +0.015 A 
ATOM     12  C   UNL     1       4.832  -5.363  24.925  0.00  0.00    +0.023 A 
ATOM     13  C   UNL     1       4.618  -6.108  23.762  0.00  0.00    +0.012 A 
ATOM     14  C   UNL     1       3.407  -6.000  23.075  0.00  0.00    +0.001 A 
ATOM     15  C   UNL     1       2.397  -5.167  23.560  0.00  0.00    +0.003 A 
ENDBRANCH   7  12
ENDBRANCH   1   7
BRANCH   3  16
ATOM     16  N   UNL     1       8.606  -2.366  23.055  0.00  0.00    -0.325 N 
ATOM     17  H   UNL     1       8.015  -1.590  23.336  0.00  0.00    +0.148 HD
BRANCH  16  18
ATOM     18  C   UNL     1       9.885  -1.941  22.507  0.00  0.00    +0.138 C 
BRANCH  18  19
ATOM     19  C   UNL     1      10.050  -0.460  22.801  0.00  0.00    -0.030 A 
ATOM     20  C   UNL     1       9.834   0.490  21.785  0.00  0.00    +0.006 A 
ATOM     21  C   UNL     1       9.925   1.862  22.050  0.00  0.00    +0.016 A 
ATOM     22  C   UNL     1      10.238   2.303  23.338  0.00  0.00    +0.065 A 
ATOM     23  C   UNL     1      10.510   1.365  24.342  0.00  0.00    +0.016 A 
ATOM     24  C   UNL     1      10.414  -0.007  24.075  0.00  0.00    +0.006 A 
BRANCH  22  25
ATOM     25  C   UNL     1      10.259   3.764  23.633  0.00  0.00    +0.308 C 
ATOM     26  N   UNL     1      11.207   4.547  23.227  0.00  0.00    -0.099 NA
ATOM     27  H   UNL     1      11.940   4.028  22.738  0.00  0.00    +0.363 HD
ATOM     28  N   UNL     1       9.269   4.343  24.368  0.00  0.00    -0.247 N 
ATOM     29  H   UNL     1       9.329   5.357  24.314  0.00  0.00    +0.288 HD
ATOM     30  H   UNL     1       8.331   3.999  24.206  0.00  0.00    +0.288 HD
ENDBRANCH  22  25
ENDBRANCH  18  19
ENDBRANCH  16  18
ENDBRANCH   3  16
TORSDOF 6
ENDMDL
MODEL 5
REMARK VINA RESULT:      -7.6      2.669      3.616
REMARK  Name = 
REMARK  7 active torsions:
REMARK  status: ('A' for Active; 'I' for Inactive)
REMARK    1  A    between atoms: C_1  and  C_2
REMARK    2  A    between atoms: C_6  and  C_8
REMARK    3  A    between atoms: C_8  and  C_10
REMARK    4  A    between atoms: C_14  and  N_15
REMARK    5  A    between atoms: N_15  and  C_16
REMARK    6  A    between atoms: C_16  and  C_17
REMARK    7  A    between atoms: C_20  and  C_23
REMARK                            x       y       z     vdW  Elec       q    Type
REMARK                         _______ _______ _______ _____ _____    ______ ____
ROOT
ATOM      1  C   UNL     1       6.823  -4.004  23.640  0.00  0.00    +0.027 A 
ATOM      2  C   UNL     1       7.830  -3.047  23.513  0.00  0.00    +0.055 A 
ATOM      3  C   UNL     1       9.098  -3.324  24.007  0.00  0.00    +0.120 A 
ATOM      4  N   UNL     1       9.350  -4.432  24.725  0.00  0.00    -0.240 NA
ATOM      5  C   UNL     1       8.322  -5.285  24.952  0.00  0.00    +0.113 A 
ATOM      6  C   UNL     1       7.057  -5.129  24.421  0.00  0.00    +0.031 A 
ENDROOT
BRANCH   1   7
ATOM      7  C   UNL     1       5.515  -3.878  22.935  0.00  0.00    +0.193 C 
ATOM      8  O   UNL     1       5.502  -3.461  21.779  0.00  0.00    -0.287 OA
BRANCH   7  12
ATOM      9  C   UNL     1       1.171  -6.397  22.927  0.00  0.00    +0.044 C 
ATOM     10  C   UNL     1       2.114  -5.456  23.618  0.00  0.00    -0.050 A 
ATOM     11  C   UNL     1       3.398  -5.259  23.094  0.00  0.00    +0.015 A 
ATOM     12  C   UNL     1       4.229  -4.247  23.597  0.00  0.00    +0.023 A 
ATOM     13  C   UNL     1       3.826  -3.532  24.729  0.00  0.00    +0.012 A 
ATOM     14  C   UNL     1       2.576  -3.774  25.301  0.00  0.00    +0.001 A 
ATOM     15  C   UNL     1       1.713  -4.712  24.731  0.00  0.00    +0.003 A 
ENDBRANCH   7  12
ENDBRANCH   1   7
BRANCH   3  16
ATOM     16  N   UNL     1      10.120  -2.439  23.660  0.00  0.00    -0.325 N 
ATOM     17  H   UNL     1      11.030  -2.867  23.795  0.00  0.00    +0.148 HD
BRANCH  16  18
ATOM     18  C   UNL     1       9.995  -1.751  22.385  0.00  0.00    +0.138 C 
BRANCH  18  19
ATOM     19  C   UNL     1      10.085  -0.258  22.649  0.00  0.00    -0.030 A 
ATOM     20  C   UNL     1      10.626   0.214  23.860  0.00  0.00    +0.006 A 
ATOM     21  C   UNL     1      10.770   1.586  24.099  0.00  0.00    +0.016 A 
ATOM     22  C   UNL     1      10.372   2.507  23.128  0.00  0.00    +0.065 A 
ATOM     23  C   UNL     1       9.781   2.051  21.944  0.00  0.00    +0.016 A 
ATOM     24  C   UNL     1       9.642   0.677  21.705  0.00  0.00    +0.006 A 
BRANCH  22  25
ATOM     25  C   UNL     1      10.598   3.963  23.355  0.00  0.00    +0.308 C 
ATOM     26  N   UNL     1       9.639   4.785  23.640  0.00  0.00    -0.099 NA
ATOM     27  H   UNL     1       8.729   4.317  23.635  0.00  0.00    +0.363 HD
ATOM     28  N   UNL     1      11.845   4.501  23.256  0.00  0.00    -0.247 N 
ATOM     29  H   UNL     1      11.857   5.449  23.624  0.00  0.00    +0.288 HD
ATOM     30  H   UNL     1      12.606   3.936  23.612  0.00  0.00    +0.288 HD
ENDBRANCH  22  25
ENDBRANCH  18  19
ENDBRANCH  16  18
ENDBRANCH   3  16
TORSDOF 6
ENDMDL
MODEL 6
REMARK VINA RESULT:      -7.4      3.266      8.761
REMARK  Name = 
REMARK  7 active torsions:
REMARK  status: ('A' for Active; 'I' for Inactive)
REMARK    1  A    between atoms: C_1  and  C_2
REMARK    2  A    between atoms: C_6  and  C_8
REMARK    3  A    between atoms: C_8  and  C_10
REMARK    4  A    between atoms: C_14  and  N_15
REMARK    5  A    between atoms: N_15  and  C_16
REMARK    6  A    between atoms: C_16  and  C_17
REMARK    7  A    between atoms: C_20  and  C_23
REMARK                            x       y       z     vdW  Elec       q    Type
REMARK                         _______ _______ _______ _____ _____    ______ ____
ROOT
ATOM      1  C   UNL     1       9.041   1.112  23.356  0.00  0.00    +0.027 A 
ATOM      2  C   UNL     1       9.190  -0.190  23.833  0.00  0.00    +0.055 A 
ATOM      3  C   UNL     1       9.504  -1.209  22.943  0.00  0.00    +0.120 A 
ATOM      4  N   UNL     1       9.534  -1.003  21.615  0.00  0.00    -0.240 NA
ATOM      5  C   UNL     1       9.252   0.242  21.163  0.00  0.00    +0.113 A 
ATOM      6  C   UNL     1       9.021   1.328  21.983  0.00  0.00    +0.031 A 
ENDROOT
BRANCH   1   7
ATOM      7  C   UNL     1       8.939   2.286  24.269  0.00  0.00    +0.193 C 
ATOM      8  O   UNL     1       8.301   2.172  25.313  0.00  0.00    -0.287 OA
BRANCH   7  12
ATOM      9  C   UNL     1      13.057   4.963  23.225  0.00  0.00    +0.044 C 
ATOM     10  C   UNL     1      11.573   4.913  23.441  0.00  0.00    -0.050 A 
ATOM     11  C   UNL     1      10.934   3.671  23.552  0.00  0.00    +0.015 A 
ATOM     12  C   UNL     1       9.591   3.590  23.947  0.00  0.00    +0.023 A 
ATOM     13  C   UNL     1       8.846   4.766  24.082  0.00  0.00    +0.012 A 
ATOM     14  C   UNL     1       9.459   6.007  23.901  0.00  0.00    +0.001 A 
ATOM     15  C   UNL     1      10.822   6.080  23.609  0.00  0.00    +0.003 A 
ENDBRANCH   7  12
ENDBRANCH   1   7
BRANCH   3  16
ATOM     16  N   UNL     1       9.862  -2.441  23.493  0.00  0.00    -0.325 N 
ATOM     17  H   UNL     1      10.870  -2.560  23.486  0.00  0.00    +0.148 HD
BRANCH  16  18
ATOM     18  C   UNL     1       9.252  -2.801  24.764  0.00  0.00    +0.138 C 
BRANCH  18  19
ATOM     19  C   UNL     1       8.091  -3.737  24.476  0.00  0.00    -0.030 A 
ATOM     20  C   UNL     1       7.299  -4.225  25.531  0.00  0.00    +0.006 A 
ATOM     21  C   UNL     1       6.190  -5.043  25.282  0.00  0.00    +0.016 A 
ATOM     22  C   UNL     1       5.861  -5.388  23.969  0.00  0.00    +0.065 A 
ATOM     23  C   UNL     1       6.675  -4.954  22.916  0.00  0.00    +0.016 A 
ATOM     24  C   UNL     1       7.781  -4.132  23.168  0.00  0.00    +0.006 A 
BRANCH  22  25
ATOM     25  C   UNL     1       4.636  -6.195  23.703  0.00  0.00    +0.308 C 
ATOM     26  N   UNL     1       4.517  -7.431  24.073  0.00  0.00    -0.099 NA
ATOM     27  H   UNL     1       5.374  -7.776  24.511  0.00  0.00    +0.363 HD
ATOM     28  N   UNL     1       3.577  -5.660  23.035  0.00  0.00    -0.247 N 
ATOM     29  H   UNL     1       2.764  -6.267  23.106  0.00  0.00    +0.288 HD
ATOM     30  H   UNL     1       3.360  -4.693  23.241  0.00  0.00    +0.288 HD
ENDBRANCH  22  25
ENDBRANCH  18  19
ENDBRANCH  16  18
ENDBRANCH   3  16
TORSDOF 6
ENDMDL
MODEL 7
REMARK VINA RESULT:      -7.4      2.120      3.183
REMARK  Name = 
REMARK  7 active torsions:
REMARK  status: ('A' for Active; 'I' for Inactive)
REMARK    1  A    between atoms: C_1  and  C_2
REMARK    2  A    between atoms: C_6  and  C_8
REMARK    3  A    between atoms: C_8  and  C_10
REMARK    4  A    between atoms: C_14  and  N_15
REMARK    5  A    between atoms: N_15  and  C_16
REMARK    6  A    between atoms: C_16  and  C_17
REMARK    7  A    between atoms: C_20  and  C_23
REMARK                            x       y       z     vdW  Elec       q    Type
REMARK                         _______ _______ _______ _____ _____    ______ ____
ROOT
ATOM      1  C   UNL     1       7.226  -3.693  23.080  0.00  0.00    +0.027 A 
ATOM      2  C   UNL     1       8.008  -2.605  22.689  0.00  0.00    +0.055 A 
ATOM      3  C   UNL     1       9.306  -2.493  23.171  0.00  0.00    +0.120 A 
ATOM      4  N   UNL     1       9.786  -3.326  24.110  0.00  0.00    -0.240 NA
ATOM      5  C   UNL     1       8.962  -4.296  24.575  0.00  0.00    +0.113 A 
ATOM      6  C   UNL     1       7.692  -4.532  24.084  0.00  0.00    +0.031 A 
ENDROOT
BRANCH   1   7
ATOM      7  C   UNL     1       5.922  -4.007  22.429  0.00  0.00    +0.193 C 
ATOM      8  O   UNL     1       5.823  -3.889  21.210  0.00  0.00    -0.287 OA
BRANCH   7  12
ATOM      9  C   UNL     1       2.650  -3.307  26.173  0.00  0.00    +0.044 C 
ATOM     10  C   UNL     1       3.141  -4.148  25.031  0.00  0.00    -0.050 A 
ATOM     11  C   UNL     1       4.121  -3.637  24.171  0.00  0.00    +0.015 A 
ATOM     12  C   UNL     1       4.740  -4.461  23.220  0.00  0.00    +0.023 A 
ATOM     13  C   UNL     1       4.264  -5.763  23.031  0.00  0.00    +0.012 A 
ATOM     14  C   UNL     1       3.236  -6.256  23.837  0.00  0.00    +0.001 A 
ATOM     15  C   UNL     1       2.697  -5.461  24.851  0.00  0.00    +0.003 A 
ENDBRANCH   7  12
ENDBRANCH   1   7
BRANCH   3  16
ATOM     16  N   UNL     1      10.117  -1.521  22.583  0.00  0.00    -0.325 N 
ATOM     17  H   UNL     1       9.721  -1.206  21.703  0.00  0.00    +0.148 HD
BRANCH  16  18
ATOM     18  C   UNL     1      10.564  -0.429  23.433  0.00  0.00    +0.138 C 
BRANCH  18  19
ATOM     19  C   UNL     1       9.744   0.801  23.082  0.00  0.00    -0.030 A 
ATOM     20  C   UNL     1       9.007   0.840  21.884  0.00  0.00    +0.006 A 
ATOM     21  C   UNL     1       8.201   1.941  21.569  0.00  0.00    +0.016 A 
ATOM     22  C   UNL     1       8.124   3.022  22.450  0.00  0.00    +0.065 A 
ATOM     23  C   UNL     1       8.896   3.017  23.618  0.00  0.00    +0.016 A 
ATOM     24  C   UNL     1       9.699   1.913  23.932  0.00  0.00    +0.006 A 
BRANCH  22  25
ATOM     25  C   UNL     1       7.206   4.157  22.147  0.00  0.00    +0.308 C 
ATOM     26  N   UNL     1       7.621   5.374  22.001  0.00  0.00    -0.099 NA
ATOM     27  H   UNL     1       8.627   5.450  22.168  0.00  0.00    +0.363 HD
ATOM     28  N   UNL     1       5.864   3.957  22.024  0.00  0.00    -0.247 N 
ATOM     29  H   UNL     1       5.414   4.780  21.633  0.00  0.00    +0.288 HD
ATOM     30  H   UNL     1       5.578   3.101  21.564  0.00  0.00    +0.288 HD
ENDBRANCH  22  25
ENDBRANCH  18  19
ENDBRANCH  16  18
ENDBRANCH   3  16
TORSDOF 6
ENDMDL
MODEL 8
REMARK VINA RESULT:      -7.3      2.916      6.142
REMARK  Name = 
REMARK  7 active torsions:
REMARK  status: ('A' for Active; 'I' for Inactive)
REMARK    1  A    between atoms: C_1  and  C_2
REMARK    2  A    between atoms: C_6  and  C_8
REMARK    3  A    between atoms: C_8  and  C_10
REMARK    4  A    between atoms: C_14  and  N_15
REMARK    5  A    between atoms: N_15  and  C_16
REMARK    6  A    between atoms: C_16  and  C_17
REMARK    7  A    between atoms: C_20  and  C_23
REMARK                            x       y       z     vdW  Elec       q    Type
REMARK                         _______ _______ _______ _____ _____    ______ ____
ROOT
ATOM      1  C   UNL     1       6.258   2.458  23.936  0.00  0.00    +0.027 A 
ATOM      2  C   UNL     1       7.120   2.025  22.927  0.00  0.00    +0.055 A 
ATOM      3  C   UNL     1       7.996   2.932  22.346  0.00  0.00    +0.120 A 
ATOM      4  N   UNL     1       7.945   4.245  22.628  0.00  0.00    -0.240 NA
ATOM      5  C   UNL     1       7.008   4.665  23.512  0.00  0.00    +0.113 A 
ATOM      6  C   UNL     1       6.162   3.819  24.202  0.00  0.00    +0.031 A 
ENDROOT
BRANCH   1   7
ATOM      7  C   UNL     1       5.463   1.507  24.764  0.00  0.00    +0.193 C 
ATOM      8  O   UNL     1       4.279   1.752  24.977  0.00  0.00    -0.287 OA
BRANCH   7  12
ATOM      9  C   UNL     1       5.414  -3.470  25.431  0.00  0.00    +0.044 C 
ATOM     10  C   UNL     1       6.070  -2.143  25.678  0.00  0.00    -0.050 A 
ATOM     11  C   UNL     1       5.617  -1.011  24.988  0.00  0.00    +0.015 A 
ATOM     12  C   UNL     1       6.071   0.269  25.337  0.00  0.00    +0.023 A 
ATOM     13  C   UNL     1       7.097   0.398  26.278  0.00  0.00    +0.012 A 
ATOM     14  C   UNL     1       7.605  -0.735  26.917  0.00  0.00    +0.001 A 
ATOM     15  C   UNL     1       7.074  -1.995  26.638  0.00  0.00    +0.003 A 
ENDBRANCH   7  12
ENDBRANCH   1   7
BRANCH   3  16
ATOM     16  N   UNL     1       8.984   2.410  21.509  0.00  0.00    -0.325 N 
ATOM     17  H   UNL     1       9.183   3.047  20.745  0.00  0.00    +0.148 HD
BRANCH  16  18
ATOM     18  C   UNL     1      10.182   1.888  22.146  0.00  0.00    +0.138 C 
BRANCH  18  19
ATOM     19  C   UNL     1       9.911   0.446  22.541  0.00  0.00    -0.030 A 
ATOM     20  C   UNL     1      10.154   0.017  23.859  0.00  0.00    +0.006 A 
ATOM     21  C   UNL     1       9.856  -1.292  24.257  0.00  0.00    +0.016 A 
ATOM     22  C   UNL     1       9.314  -2.193  23.339  0.00  0.00    +0.065 A 
ATOM     23  C   UNL     1       9.121  -1.793  22.011  0.00  0.00    +0.016 A 
ATOM     24  C   UNL     1       9.415  -0.481  21.616  0.00  0.00    +0.006 A 
BRANCH  22  25
ATOM     25  C   UNL     1       8.928  -3.561  23.786  0.00  0.00    +0.308 C 
ATOM     26  N   UNL     1       9.549  -4.190  24.732  0.00  0.00    -0.099 NA
ATOM     27  H   UNL     1      10.347  -3.653  25.080  0.00  0.00    +0.363 HD
ATOM     28  N   UNL     1       7.895  -4.224  23.196  0.00  0.00    -0.247 N 
ATOM     29  H   UNL     1       7.643  -5.048  23.737  0.00  0.00    +0.288 HD
ATOM     30  H   UNL     1       7.091  -3.665  22.940  0.00  0.00    +0.288 HD
ENDBRANCH  22  25
ENDBRANCH  18  19
ENDBRANCH  16  18
ENDBRANCH   3  16
TORSDOF 6
ENDMDL
MODEL 9
REMARK VINA RESULT:      -7.1      1.396      2.139
REMARK  Name = 
REMARK  7 active torsions:
REMARK  status: ('A' for Active; 'I' for Inactive)
REMARK    1  A    between atoms: C_1  and  C_2
REMARK    2  A    between atoms: C_6  and  C_8
REMARK    3  A    between atoms: C_8  and  C_10
REMARK    4  A    between atoms: C_14  and  N_15
REMARK    5  A    between atoms: N_15  and  C_16
REMARK    6  A    between atoms: C_16  and  C_17
REMARK    7  A    between atoms: C_20  and  C_23
REMARK                            x       y       z     vdW  Elec       q    Type
REMARK                         _______ _______ _______ _____ _____    ______ ____
ROOT
ATOM      1  C   UNL     1       9.559  -2.351  24.140  0.00  0.00    +0.027 A 
ATOM      2  C   UNL     1       9.321  -1.367  25.100  0.00  0.00    +0.055 A 
ATOM      3  C   UNL     1       9.499  -0.031  24.762  0.00  0.00    +0.120 A 
ATOM      4  N   UNL     1      10.025   0.335  23.581  0.00  0.00    -0.240 NA
ATOM      5  C   UNL     1      10.375  -0.645  22.714  0.00  0.00    +0.113 A 
ATOM      6  C   UNL     1      10.148  -1.989  22.935  0.00  0.00    +0.031 A 
ENDROOT
BRANCH   1   7
ATOM      7  C   UNL     1       9.169  -3.775  24.350  0.00  0.00    +0.193 C 
ATOM      8  O   UNL     1       9.981  -4.544  24.857  0.00  0.00    -0.287 OA
BRANCH   7  12
ATOM      9  C   UNL     1       6.107  -5.869  20.965  0.00  0.00    +0.044 C 
ATOM     10  C   UNL     1       6.313  -5.296  22.337  0.00  0.00    -0.050 A 
ATOM     11  C   UNL     1       7.610  -4.997  22.771  0.00  0.00    +0.015 A 
ATOM     12  C   UNL     1       7.820  -4.284  23.960  0.00  0.00    +0.023 A 
ATOM     13  C   UNL     1       6.731  -4.004  24.791  0.00  0.00    +0.012 A 
ATOM     14  C   UNL     1       5.441  -4.364  24.398  0.00  0.00    +0.001 A 
ATOM     15  C   UNL     1       5.231  -4.983  23.164  0.00  0.00    +0.003 A 
ENDBRANCH   7  12
ENDBRANCH   1   7
BRANCH   3  16
ATOM     16  N   UNL     1       9.037   0.919  25.675  0.00  0.00    -0.325 N 
ATOM     17  H   UNL     1       9.579   1.775  25.609  0.00  0.00    +0.148 HD
BRANCH  16  18
ATOM     18  C   UNL     1       7.602   1.151  25.720  0.00  0.00    +0.138 C 
BRANCH  18  19
ATOM     19  C   UNL     1       7.298   2.360  24.851  0.00  0.00    -0.030 A 
ATOM     20  C   UNL     1       8.195   3.442  24.808  0.00  0.00    +0.006 A 
ATOM     21  C   UNL     1       7.961   4.540  23.971  0.00  0.00    +0.016 A 
ATOM     22  C   UNL     1       6.821   4.570  23.166  0.00  0.00    +0.065 A 
ATOM     23  C   UNL     1       5.893   3.524  23.242  0.00  0.00    +0.016 A 
ATOM     24  C   UNL     1       6.132   2.425  24.078  0.00  0.00    +0.006 A 
BRANCH  22  25
ATOM     25  C   UNL     1       6.614   5.704  22.220  0.00  0.00    +0.308 C 
ATOM     26  N   UNL     1       7.561   6.175  21.473  0.00  0.00    -0.099 NA
ATOM     27  H   UNL     1       8.452   5.708  21.658  0.00  0.00    +0.363 HD
ATOM     28  N   UNL     1       5.400   6.311  22.111  0.00  0.00    -0.247 N 
ATOM     29  H   UNL     1       5.377   6.924  21.300  0.00  0.00    +0.288 HD
ATOM     30  H   UNL     1       4.590   5.707  22.166  0.00  0.00    +0.288 HD
ENDBRANCH  22  25
ENDBRANCH  18  19
ENDBRANCH  16  18
ENDBRANCH   3  16
TORSDOF 6
ENDMDL
