MODEL 1
REMARK VINA RESULT:      -6.8      0.000      0.000
REMARK  Name = 
REMARK  12 active torsions:
REMARK  status: ('A' for Active; 'I' for Inactive)
REMARK    1  A    between atoms: CA_2  and  C_3
REMARK    2  A    between atoms: CA_2  and  N_5
REMARK    3  A    between atoms: CA_2  and  CB_29
REMARK    4  A    between atoms: C_3  and  O_4
REMARK    5  A    between atoms: N_12  and  C_13
REMARK    6  A    between atoms: C_13  and  C_14
REMARK    7  A    between atoms: C_13  and  C_15
REMARK    8  A    between atoms: N_17  and  C_18
REMARK    9  A    between atoms: C_21  and  C_22
REMARK   10  A    between atoms: C_22  and  O_23
REMARK   11  A    between atoms: CB_29  and  CG1_30
REMARK   12  A    between atoms: CB_29  and  CG2_31
REMARK                            x       y       z     vdW  Elec       q    Type
REMARK                         _______ _______ _______ _____ _____    ______ ____
ROOT
ATOM      1  N   VAL A   1       6.859   0.676  26.298  0.00  0.00    -0.308 N 
ATOM      2  H   VAL A   1       5.987   0.898  25.828  0.00  0.00    +0.149 HD
ATOM      3  C   UNK A   0       7.580  -0.085  25.376  0.00  0.00    +0.219 A 
ATOM      4  N   UNK A   0       7.714  -1.409  25.580  0.00  0.00    -0.197 NA
ATOM      5  C   UNK A   0       8.426  -2.187  24.715  0.00  0.00    +0.156 A 
ATOM      6  N   UNK A   0       8.534  -3.579  24.882  0.00  0.00    -0.298 N 
ATOM      7  H   UNK A   0       9.184  -3.991  24.217  0.00  0.00    +0.154 HD
ATOM      8  C   UNK A   0       9.059  -1.538  23.648  0.00  0.00    +0.148 A 
ATOM      9  N   UNK A   0       9.869  -2.004  22.635  0.00  0.00    -0.231 NA
ATOM     10  C   UNK A   0      10.140  -0.937  21.913  0.00  0.00    +0.201 A 
ATOM     11  N   UNK A   0       9.540   0.192  22.412  0.00  0.00    -0.312 N 
ATOM     12  C   UNK A   0       8.832  -0.179  23.524  0.00  0.00    +0.167 A 
ATOM     13  N   UNK A   0       8.079   0.588  24.328  0.00  0.00    -0.195 NA
ENDROOT
BRANCH   6  14
ATOM     14  C   UNK A   0       7.660  -4.472  25.520  0.00  0.00    +0.034 A 
ATOM     15  C   UNK A   0       6.635  -5.138  24.836  0.00  0.00    +0.044 A 
ATOM     16  C   UNK A   0       5.700  -5.936  25.502  0.00  0.00    +0.057 A 
ATOM     17 CL   UNK A   0       4.518  -6.731  24.522  0.00  0.00    -0.083 Cl
ATOM     18  C   UNK A   0       5.761  -6.067  26.887  0.00  0.00    +0.077 A 
ATOM     19  C   UNK A   0       6.809  -5.447  27.583  0.00  0.00    +0.018 A 
ATOM     20  C   UNK A   0       7.743  -4.653  26.906  0.00  0.00    +0.024 A 
BRANCH  18  21
ATOM     21  C   UNK A   0       4.772  -6.823  27.696  0.00  0.00    +0.338 C 
ATOM     22  O   UNK A   0       3.570  -6.695  27.534  0.00  0.00    -0.245 OA
BRANCH  21  23
ATOM     23  O   UNK A   0       5.306  -7.743  28.525  0.00  0.00    -0.477 OA
ATOM     24  H   UNK A   0       4.692  -8.445  28.831  0.00  0.00    +0.295 HD
ENDBRANCH  21  23
ENDBRANCH  18  21
ENDBRANCH   6  14
BRANCH  11  25
ATOM     25  C   UNK A   0       9.661   1.539  21.872  0.00  0.00    +0.084 C 
ATOM     26  C   UNK A   0      10.456   2.453  22.806  0.00  0.00    +0.030 C 
ATOM     27  C   UNK A   0       8.290   2.143  21.559  0.00  0.00    +0.030 C 
ENDBRANCH  11  25
BRANCH   1  28
ATOM     28  CA  VAL A   1       6.672   0.109  27.644  0.00  0.00    +0.101 C 
BRANCH  28  29
ATOM     29  CB  VAL A   1       5.177  -0.295  27.869  0.00  0.00    +0.005 C 
ATOM     30  CG2 VAL A   1       4.926  -1.791  27.653  0.00  0.00    +0.009 C 
ATOM     31  CG1 VAL A   1       4.178   0.518  27.037  0.00  0.00    +0.009 C 
ENDBRANCH  28  29
BRANCH  28  32
ATOM     32  C   VAL A   1       7.122   1.134  28.722  0.00  0.00    +0.178 C 
BRANCH  32  33
ATOM     33  O   VAL A   1       8.372   0.768  29.305  0.00  0.00    -0.393 OA
ATOM     34  H   VAL A   1       8.244   0.771  30.270  0.00  0.00    +0.209 HD
ENDBRANCH  32  33
ENDBRANCH  28  32
ENDBRANCH   1  28
TORSDOF 8
ENDMDL
MODEL 2
REMARK VINA RESULT:      -6.8      2.764      3.926
REMARK  Name = 
REMARK  12 active torsions:
REMARK  status: ('A' for Active; 'I' for Inactive)
REMARK    1  A    between atoms: CA_2  and  C_3
REMARK    2  A    between atoms: CA_2  and  N_5
REMARK    3  A    between atoms: CA_2  and  CB_29
REMARK    4  A    between atoms: C_3  and  O_4
REMARK    5  A    between atoms: N_12  and  C_13
REMARK    6  A    between atoms: C_13  and  C_14
REMARK    7  A    between atoms: C_13  and  C_15
REMARK    8  A    between atoms: N_17  and  C_18
REMARK    9  A    between atoms: C_21  and  C_22
REMARK   10  A    between atoms: C_22  and  O_23
REMARK   11  A    between atoms: CB_29  and  CG1_30
REMARK   12  A    between atoms: CB_29  and  CG2_31
REMARK                            x       y       z     vdW  Elec       q    Type
REMARK                         _______ _______ _______ _____ _____    ______ ____
ROOT
ATOM      1  N   VAL A   1       6.526   2.081  26.719  0.00  0.00    -0.308 N 
ATOM      2  H   VAL A   1       5.713   2.384  26.192  0.00  0.00    +0.149 HD
ATOM      3  C   UNK A   0       7.572   2.076  25.795  0.00  0.00    +0.219 A 
ATOM      4  N   UNK A   0       8.047   0.898  25.347  0.00  0.00    -0.197 NA
ATOM      5  C   UNK A   0       9.080   0.847  24.458  0.00  0.00    +0.156 A 
ATOM      6  N   UNK A   0       9.556  -0.370  23.939  0.00  0.00    -0.298 N 
ATOM      7  H   UNK A   0      10.393  -0.241  23.377  0.00  0.00    +0.154 HD
ATOM      8  C   UNK A   0       9.661   2.065  24.086  0.00  0.00    +0.148 A 
ATOM      9  N   UNK A   0      10.721   2.366  23.258  0.00  0.00    -0.231 NA
ATOM     10  C   UNK A   0      10.786   3.681  23.270  0.00  0.00    +0.201 A 
ATOM     11  N   UNK A   0       9.815   4.240  24.064  0.00  0.00    -0.312 N 
ATOM     12  C   UNK A   0       9.076   3.213  24.589  0.00  0.00    +0.167 A 
ATOM     13  N   UNK A   0       8.016   3.283  25.411  0.00  0.00    -0.195 NA
ENDROOT
BRANCH   6  14
ATOM     14  C   UNK A   0       8.885  -1.591  23.769  0.00  0.00    +0.034 A 
ATOM     15  C   UNK A   0       9.269  -2.759  24.439  0.00  0.00    +0.044 A 
ATOM     16  C   UNK A   0       8.667  -3.993  24.177  0.00  0.00    +0.057 A 
ATOM     17 CL   UNK A   0       9.214  -5.340  25.112  0.00  0.00    -0.083 Cl
ATOM     18  C   UNK A   0       7.669  -4.087  23.209  0.00  0.00    +0.077 A 
ATOM     19  C   UNK A   0       7.238  -2.919  22.563  0.00  0.00    +0.018 A 
ATOM     20  C   UNK A   0       7.845  -1.687  22.836  0.00  0.00    +0.024 A 
BRANCH  18  21
ATOM     21  C   UNK A   0       7.024  -5.359  22.800  0.00  0.00    +0.338 C 
ATOM     22  O   UNK A   0       7.440  -6.025  21.866  0.00  0.00    -0.245 OA
BRANCH  21  23
ATOM     23  O   UNK A   0       6.031  -5.775  23.612  0.00  0.00    -0.477 OA
ATOM     24  H   UNK A   0       6.183  -5.641  24.572  0.00  0.00    +0.295 HD
ENDBRANCH  21  23
ENDBRANCH  18  21
ENDBRANCH   6  14
BRANCH  11  25
ATOM     25  C   UNK A   0       9.628   5.661  24.322  0.00  0.00    +0.084 C 
ATOM     26  C   UNK A   0       8.811   6.333  23.217  0.00  0.00    +0.030 C 
ATOM     27  C   UNK A   0      10.967   6.376  24.520  0.00  0.00    +0.030 C 
ENDBRANCH  11  25
BRANCH   1  28
ATOM     28  CA  VAL A   1       6.299   0.846  27.490  0.00  0.00    +0.101 C 
BRANCH  28  29
ATOM     29  CB  VAL A   1       4.843   0.316  27.264  0.00  0.00    +0.005 C 
ATOM     30  CG2 VAL A   1       4.795  -0.926  26.368  0.00  0.00    +0.009 C 
ATOM     31  CG1 VAL A   1       3.870   1.373  26.728  0.00  0.00    +0.009 C 
ENDBRANCH  28  29
BRANCH  28  32
ATOM     32  C   VAL A   1       6.549   1.107  29.001  0.00  0.00    +0.178 C 
BRANCH  32  33
ATOM     33  O   VAL A   1       7.944   1.135  29.304  0.00  0.00    -0.393 OA
ATOM     34  H   VAL A   1       8.356   1.754  28.677  0.00  0.00    +0.209 HD
ENDBRANCH  32  33
ENDBRANCH  28  32
ENDBRANCH   1  28
TORSDOF 8
ENDMDL
MODEL 3
REMARK VINA RESULT:      -6.5      2.593      3.721
REMARK  Name = 
REMARK  12 active torsions:
REMARK  status: ('A' for Active; 'I' for Inactive)
REMARK    1  A    between atoms: CA_2  and  C_3
REMARK    2  A    between atoms: CA_2  and  N_5
REMARK    3  A    between atoms: CA_2  and  CB_29
REMARK    4  A    between atoms: C_3  and  O_4
REMARK    5  A    between atoms: N_12  and  C_13
REMARK    6  A    between atoms: C_13  and  C_14
REMARK    7  A    between atoms: C_13  and  C_15
REMARK    8  A    between atoms: N_17  and  C_18
REMARK    9  A    between atoms: C_21  and  C_22
REMARK   10  A    between atoms: C_22  and  O_23
REMARK   11  A    between atoms: CB_29  and  CG1_30
REMARK   12  A    between atoms: CB_29  and  CG2_31
REMARK                            x       y       z     vdW  Elec       q    Type
REMARK                         _______ _______ _______ _____ _____    ______ ____
ROOT
ATOM      1  N   VAL A   1       6.653   2.023  26.728  0.00  0.00    -0.308 N 
ATOM      2  H   VAL A   1       5.824   2.329  26.229  0.00  0.00    +0.149 HD
ATOM      3  C   UNK A   0       7.674   2.042  25.778  0.00  0.00    +0.219 A 
ATOM      4  N   UNK A   0       8.145   0.877  25.296  0.00  0.00    -0.197 NA
ATOM      5  C   UNK A   0       9.155   0.849  24.380  0.00  0.00    +0.156 A 
ATOM      6  N   UNK A   0       9.627  -0.355  23.826  0.00  0.00    -0.298 N 
ATOM      7  H   UNK A   0      10.448  -0.209  23.246  0.00  0.00    +0.154 HD
ATOM      8  C   UNK A   0       9.718   2.078  24.014  0.00  0.00    +0.148 A 
ATOM      9  N   UNK A   0      10.754   2.402  23.165  0.00  0.00    -0.231 NA
ATOM     10  C   UNK A   0      10.809   3.717  23.199  0.00  0.00    +0.201 A 
ATOM     11  N   UNK A   0       9.855   4.254  24.028  0.00  0.00    -0.312 N 
ATOM     12  C   UNK A   0       9.137   3.212  24.554  0.00  0.00    +0.167 A 
ATOM     13  N   UNK A   0       8.100   3.259  25.403  0.00  0.00    -0.195 NA
ENDROOT
BRANCH   6  14
ATOM     14  C   UNK A   0       8.960  -1.578  23.652  0.00  0.00    +0.034 A 
ATOM     15  C   UNK A   0       7.772  -1.689  22.920  0.00  0.00    +0.044 A 
ATOM     16  C   UNK A   0       7.058  -2.888  22.848  0.00  0.00    +0.057 A 
ATOM     17 CL   UNK A   0       5.632  -2.887  21.871  0.00  0.00    -0.083 Cl
ATOM     18  C   UNK A   0       7.514  -4.010  23.537  0.00  0.00    +0.077 A 
ATOM     19  C   UNK A   0       8.727  -3.930  24.237  0.00  0.00    +0.018 A 
ATOM     20  C   UNK A   0       9.437  -2.725  24.298  0.00  0.00    +0.024 A 
BRANCH  18  21
ATOM     21  C   UNK A   0       6.790  -5.304  23.592  0.00  0.00    +0.338 C 
ATOM     22  O   UNK A   0       6.749  -6.063  22.638  0.00  0.00    -0.245 OA
BRANCH  21  23
ATOM     23  O   UNK A   0       6.294  -5.624  24.805  0.00  0.00    -0.477 OA
ATOM     24  H   UNK A   0       6.937  -5.599  25.546  0.00  0.00    +0.295 HD
ENDBRANCH  21  23
ENDBRANCH  18  21
ENDBRANCH   6  14
BRANCH  11  25
ATOM     25  C   UNK A   0       9.665   5.669  24.316  0.00  0.00    +0.084 C 
ATOM     26  C   UNK A   0       8.844   6.362  23.227  0.00  0.00    +0.030 C 
ATOM     27  C   UNK A   0      11.002   6.384  24.526  0.00  0.00    +0.030 C 
ENDBRANCH  11  25
BRANCH   1  28
ATOM     28  CA  VAL A   1       6.455   0.773  27.482  0.00  0.00    +0.101 C 
BRANCH  28  29
ATOM     29  CB  VAL A   1       5.075   0.127  27.125  0.00  0.00    +0.005 C 
ATOM     30  CG2 VAL A   1       4.336  -0.416  28.353  0.00  0.00    +0.009 C 
ATOM     31  CG1 VAL A   1       5.155  -0.964  26.051  0.00  0.00    +0.009 C 
ENDBRANCH  28  29
BRANCH  28  32
ATOM     32  C   VAL A   1       6.541   1.052  29.009  0.00  0.00    +0.178 C 
BRANCH  32  33
ATOM     33  O   VAL A   1       7.814   1.584  29.373  0.00  0.00    -0.393 OA
ATOM     34  H   VAL A   1       8.351   1.609  28.563  0.00  0.00    +0.209 HD
ENDBRANCH  32  33
ENDBRANCH  28  32
ENDBRANCH   1  28
TORSDOF 8
ENDMDL
MODEL 4
REMARK VINA RESULT:      -6.2      3.528      8.208
REMARK  Name = 
REMARK  12 active torsions:
REMARK  status: ('A' for Active; 'I' for Inactive)
REMARK    1  A    between atoms: CA_2  and  C_3
REMARK    2  A    between atoms: CA_2  and  N_5
REMARK    3  A    between atoms: CA_2  and  CB_29
REMARK    4  A    between atoms: C_3  and  O_4
REMARK    5  A    between atoms: N_12  and  C_13
REMARK    6  A    between atoms: C_13  and  C_14
REMARK    7  A    between atoms: C_13  and  C_15
REMARK    8  A    between atoms: N_17  and  C_18
REMARK    9  A    between atoms: C_21  and  C_22
REMARK   10  A    between atoms: C_22  and  O_23
REMARK   11  A    between atoms: CB_29  and  CG1_30
REMARK   12  A    between atoms: CB_29  and  CG2_31
REMARK                            x       y       z     vdW  Elec       q    Type
REMARK                         _______ _______ _______ _____ _____    ______ ____
ROOT
ATOM      1  N   VAL A   1       6.545  -4.381  25.400  0.00  0.00    -0.308 N 
ATOM      2  H   VAL A   1       5.897  -4.445  24.621  0.00  0.00    +0.149 HD
ATOM      3  C   UNK A   0       6.083  -3.311  26.167  0.00  0.00    +0.219 A 
ATOM      4  N   UNK A   0       6.765  -2.151  26.154  0.00  0.00    -0.197 NA
ATOM      5  C   UNK A   0       6.360  -1.085  26.903  0.00  0.00    +0.156 A 
ATOM      6  N   UNK A   0       7.028   0.151  26.864  0.00  0.00    -0.298 N 
ATOM      7  H   UNK A   0       6.666   0.800  27.557  0.00  0.00    +0.154 HD
ATOM      8  C   UNK A   0       5.244  -1.275  27.728  0.00  0.00    +0.148 A 
ATOM      9  N   UNK A   0       4.605  -0.442  28.621  0.00  0.00    -0.231 NA
ATOM     10  C   UNK A   0       3.601  -1.158  29.079  0.00  0.00    +0.201 A 
ATOM     11  N   UNK A   0       3.562  -2.412  28.521  0.00  0.00    -0.312 N 
ATOM     12  C   UNK A   0       4.607  -2.500  27.640  0.00  0.00    +0.167 A 
ATOM     13  N   UNK A   0       4.954  -3.534  26.858  0.00  0.00    -0.195 NA
ENDROOT
BRANCH   6  14
ATOM     14  C   UNK A   0       7.799   0.717  25.836  0.00  0.00    +0.034 A 
ATOM     15  C   UNK A   0       8.681  -0.039  25.055  0.00  0.00    +0.044 A 
ATOM     16  C   UNK A   0       9.526   0.553  24.111  0.00  0.00    +0.057 A 
ATOM     17 CL   UNK A   0      10.529  -0.511  23.189  0.00  0.00    -0.083 Cl
ATOM     18  C   UNK A   0       9.520   1.936  23.946  0.00  0.00    +0.077 A 
ATOM     19  C   UNK A   0       8.609   2.705  24.686  0.00  0.00    +0.018 A 
ATOM     20  C   UNK A   0       7.764   2.100  25.625  0.00  0.00    +0.024 A 
BRANCH  18  21
ATOM     21  C   UNK A   0      10.431   2.668  23.032  0.00  0.00    +0.338 C 
ATOM     22  O   UNK A   0      11.354   3.349  23.448  0.00  0.00    -0.245 OA
BRANCH  21  23
ATOM     23  O   UNK A   0      10.235   2.422  21.722  0.00  0.00    -0.477 OA
ATOM     24  H   UNK A   0      11.030   2.146  21.217  0.00  0.00    +0.295 HD
ENDBRANCH  21  23
ENDBRANCH  18  21
ENDBRANCH   6  14
BRANCH  11  25
ATOM     25  C   UNK A   0       2.601  -3.461  28.832  0.00  0.00    +0.084 C 
ATOM     26  C   UNK A   0       1.234  -2.885  29.202  0.00  0.00    +0.030 C 
ATOM     27  C   UNK A   0       3.118  -4.386  29.937  0.00  0.00    +0.030 C 
ENDBRANCH  11  25
BRANCH   1  28
ATOM     28  CA  VAL A   1       7.959  -4.355  24.985  0.00  0.00    +0.101 C 
BRANCH  28  29
ATOM     29  CB  VAL A   1       8.077  -4.423  23.426  0.00  0.00    +0.005 C 
ATOM     30  CG2 VAL A   1       7.853  -3.065  22.753  0.00  0.00    +0.009 C 
ATOM     31  CG1 VAL A   1       7.169  -5.474  22.776  0.00  0.00    +0.009 C 
ENDBRANCH  28  29
BRANCH  28  32
ATOM     32  C   VAL A   1       8.727  -5.538  25.637  0.00  0.00    +0.178 C 
BRANCH  32  33
ATOM     33  O   VAL A   1      10.106  -5.534  25.269  0.00  0.00    -0.393 OA
ATOM     34  H   VAL A   1      10.145  -5.731  24.318  0.00  0.00    +0.209 HD
ENDBRANCH  32  33
ENDBRANCH  28  32
ENDBRANCH   1  28
TORSDOF 8
ENDMDL
MODEL 5
REMARK VINA RESULT:      -6.2      3.634      8.157
REMARK  Name = 
REMARK  12 active torsions:
REMARK  status: ('A' for Active; 'I' for Inactive)
REMARK    1  A    between atoms: CA_2  and  C_3
REMARK    2  A    between atoms: CA_2  and  N_5
REMARK    3  A    between atoms: CA_2  and  CB_29
REMARK    4  A    between atoms: C_3  and  O_4
REMARK    5  A    between atoms: N_12  and  C_13
REMARK    6  A    between atoms: C_13  and  C_14
REMARK    7  A    between atoms: C_13  and  C_15
REMARK    8  A    between atoms: N_17  and  C_18
REMARK    9  A    between atoms: C_21  and  C_22
REMARK   10  A    between atoms: C_22  and  O_23
REMARK   11  A    between atoms: CB_29  and  CG1_30
REMARK   12  A    between atoms: CB_29  and  CG2_31
REMARK                            x       y       z     vdW  Elec       q    Type
REMARK                         _______ _______ _______ _____ _____    ______ ____
ROOT
ATOM      1  N   VAL A   1       6.506  -4.407  25.702  0.00  0.00    -0.308 N 
ATOM      2  H   VAL A   1       6.199  -4.747  24.797  0.00  0.00    +0.149 HD
ATOM      3  C   UNK A   0       5.692  -3.305  25.968  0.00  0.00    +0.219 A 
ATOM      4  N   UNK A   0       6.216  -2.067  25.885  0.00  0.00    -0.197 NA
ATOM      5  C   UNK A   0       5.462  -0.963  26.155  0.00  0.00    +0.156 A 
ATOM      6  N   UNK A   0       5.975   0.339  26.025  0.00  0.00    -0.298 N 
ATOM      7  H   UNK A   0       5.322   1.040  26.365  0.00  0.00    +0.154 HD
ATOM      8  C   UNK A   0       4.145  -1.179  26.580  0.00  0.00    +0.148 A 
ATOM      9  N   UNK A   0       3.146  -0.311  26.963  0.00  0.00    -0.231 NA
ATOM     10  C   UNK A   0       2.118  -1.089  27.228  0.00  0.00    +0.201 A 
ATOM     11  N   UNK A   0       2.408  -2.416  27.031  0.00  0.00    -0.312 N 
ATOM     12  C   UNK A   0       3.707  -2.491  26.604  0.00  0.00    +0.167 A 
ATOM     13  N   UNK A   0       4.416  -3.583  26.276  0.00  0.00    -0.195 NA
ENDROOT
BRANCH   6  14
ATOM     14  C   UNK A   0       7.011   0.812  25.204  0.00  0.00    +0.034 A 
ATOM     15  C   UNK A   0       8.349   0.447  25.396  0.00  0.00    +0.044 A 
ATOM     16  C   UNK A   0       9.384   1.012  24.646  0.00  0.00    +0.057 A 
ATOM     17 CL   UNK A   0      10.981   0.432  24.964  0.00  0.00    -0.083 Cl
ATOM     18  C   UNK A   0       9.098   1.984  23.690  0.00  0.00    +0.077 A 
ATOM     19  C   UNK A   0       7.759   2.327  23.450  0.00  0.00    +0.018 A 
ATOM     20  C   UNK A   0       6.729   1.752  24.204  0.00  0.00    +0.024 A 
BRANCH  18  21
ATOM     21  C   UNK A   0      10.128   2.702  22.899  0.00  0.00    +0.338 C 
ATOM     22  O   UNK A   0      10.878   3.521  23.403  0.00  0.00    -0.245 OA
BRANCH  21  23
ATOM     23  O   UNK A   0      10.248   2.288  21.621  0.00  0.00    -0.477 OA
ATOM     24  H   UNK A   0       9.515   2.545  21.021  0.00  0.00    +0.295 HD
ENDBRANCH  21  23
ENDBRANCH  18  21
ENDBRANCH   6  14
BRANCH  11  25
ATOM     25  C   UNK A   0       1.507  -3.537  27.263  0.00  0.00    +0.084 C 
ATOM     26  C   UNK A   0       0.754  -3.930  25.991  0.00  0.00    +0.030 C 
ATOM     27  C   UNK A   0       0.530  -3.244  28.404  0.00  0.00    +0.030 C 
ENDBRANCH  11  25
BRANCH   1  28
ATOM     28  CA  VAL A   1       7.963  -4.209  25.791  0.00  0.00    +0.101 C 
BRANCH  28  29
ATOM     29  CB  VAL A   1       8.613  -4.254  24.368  0.00  0.00    +0.005 C 
ATOM     30  CG2 VAL A   1       9.284  -2.932  23.979  0.00  0.00    +0.009 C 
ATOM     31  CG1 VAL A   1       7.651  -4.687  23.255  0.00  0.00    +0.009 C 
ENDBRANCH  28  29
BRANCH  28  32
ATOM     32  C   VAL A   1       8.594  -5.296  26.706  0.00  0.00    +0.178 C 
BRANCH  32  33
ATOM     33  O   VAL A   1       7.636  -5.834  27.617  0.00  0.00    -0.393 OA
ATOM     34  H   VAL A   1       7.978  -5.674  28.513  0.00  0.00    +0.209 HD
ENDBRANCH  32  33
ENDBRANCH  28  32
ENDBRANCH   1  28
TORSDOF 8
ENDMDL
MODEL 6
REMARK VINA RESULT:      -6.1      3.094      5.753
REMARK  Name = 
REMARK  12 active torsions:
REMARK  status: ('A' for Active; 'I' for Inactive)
REMARK    1  A    between atoms: CA_2  and  C_3
REMARK    2  A    between atoms: CA_2  and  N_5
REMARK    3  A    between atoms: CA_2  and  CB_29
REMARK    4  A    between atoms: C_3  and  O_4
REMARK    5  A    between atoms: N_12  and  C_13
REMARK    6  A    between atoms: C_13  and  C_14
REMARK    7  A    between atoms: C_13  and  C_15
REMARK    8  A    between atoms: N_17  and  C_18
REMARK    9  A    between atoms: C_21  and  C_22
REMARK   10  A    between atoms: C_22  and  O_23
REMARK   11  A    between atoms: CB_29  and  CG1_30
REMARK   12  A    between atoms: CB_29  and  CG2_31
REMARK                            x       y       z     vdW  Elec       q    Type
REMARK                         _______ _______ _______ _____ _____    ______ ____
ROOT
ATOM      1  N   VAL A   1       8.143   1.811  23.998  0.00  0.00    -0.308 N 
ATOM      2  H   VAL A   1       9.120   1.656  24.223  0.00  0.00    +0.149 HD
ATOM      3  C   UNK A   0       7.437   1.316  25.095  0.00  0.00    +0.219 A 
ATOM      4  N   UNK A   0       6.762   0.157  24.972  0.00  0.00    -0.197 NA
ATOM      5  C   UNK A   0       6.044  -0.354  26.013  0.00  0.00    +0.156 A 
ATOM      6  N   UNK A   0       5.375  -1.587  25.922  0.00  0.00    -0.298 N 
ATOM      7  H   UNK A   0       4.802  -1.769  26.742  0.00  0.00    +0.154 HD
ATOM      8  C   UNK A   0       5.990   0.410  27.186  0.00  0.00    +0.148 A 
ATOM      9  N   UNK A   0       5.339   0.214  28.385  0.00  0.00    -0.231 NA
ATOM     10  C   UNK A   0       5.683   1.251  29.119  0.00  0.00    +0.201 A 
ATOM     11  N   UNK A   0       6.526   2.103  28.450  0.00  0.00    -0.312 N 
ATOM     12  C   UNK A   0       6.742   1.571  27.206  0.00  0.00    +0.167 A 
ATOM     13  N   UNK A   0       7.508   2.052  26.215  0.00  0.00    -0.195 NA
ENDROOT
BRANCH   6  14
ATOM     14  C   UNK A   0       5.656  -2.697  25.110  0.00  0.00    +0.034 A 
ATOM     15  C   UNK A   0       6.877  -3.378  25.166  0.00  0.00    +0.044 A 
ATOM     16  C   UNK A   0       7.190  -4.410  24.275  0.00  0.00    +0.057 A 
ATOM     17 CL   UNK A   0       8.717  -5.189  24.492  0.00  0.00    -0.083 Cl
ATOM     18  C   UNK A   0       6.280  -4.768  23.283  0.00  0.00    +0.077 A 
ATOM     19  C   UNK A   0       5.032  -4.130  23.243  0.00  0.00    +0.018 A 
ATOM     20  C   UNK A   0       4.728  -3.101  24.142  0.00  0.00    +0.024 A 
BRANCH  18  21
ATOM     21  C   UNK A   0       6.546  -5.791  22.241  0.00  0.00    +0.338 C 
ATOM     22  O   UNK A   0       7.388  -5.629  21.374  0.00  0.00    -0.245 OA
BRANCH  21  23
ATOM     23  O   UNK A   0       5.877  -6.951  22.404  0.00  0.00    -0.477 OA
ATOM     24  H   UNK A   0       5.189  -7.142  21.731  0.00  0.00    +0.295 HD
ENDBRANCH  21  23
ENDBRANCH  18  21
ENDBRANCH   6  14
BRANCH  11  25
ATOM     25  C   UNK A   0       7.065   3.355  28.961  0.00  0.00    +0.084 C 
ATOM     26  C   UNK A   0       7.241   3.318  30.480  0.00  0.00    +0.030 C 
ATOM     27  C   UNK A   0       6.203   4.549  28.543  0.00  0.00    +0.030 C 
ENDBRANCH  11  25
BRANCH   1  28
ATOM     28  CA  VAL A   1       7.761   1.311  22.666  0.00  0.00    +0.101 C 
BRANCH  28  29
ATOM     29  CB  VAL A   1       9.016   1.207  21.736  0.00  0.00    +0.005 C 
ATOM     30  CG2 VAL A   1       9.440  -0.241  21.470  0.00  0.00    +0.009 C 
ATOM     31  CG1 VAL A   1      10.225   2.013  22.226  0.00  0.00    +0.009 C 
ENDBRANCH  28  29
BRANCH  28  32
ATOM     32  C   VAL A   1       6.695   2.246  22.030  0.00  0.00    +0.178 C 
BRANCH  32  33
ATOM     33  O   VAL A   1       5.410   2.053  22.619  0.00  0.00    -0.393 OA
ATOM     34  H   VAL A   1       5.514   2.192  23.576  0.00  0.00    +0.209 HD
ENDBRANCH  32  33
ENDBRANCH  28  32
ENDBRANCH   1  28
TORSDOF 8
ENDMDL
MODEL 7
REMARK VINA RESULT:      -6.1      3.185      5.199
REMARK  Name = 
REMARK  12 active torsions:
REMARK  status: ('A' for Active; 'I' for Inactive)
REMARK    1  A    between atoms: CA_2  and  C_3
REMARK    2  A    between atoms: CA_2  and  N_5
REMARK    3  A    between atoms: CA_2  and  CB_29
REMARK    4  A    between atoms: C_3  and  O_4
REMARK    5  A    between atoms: N_12  and  C_13
REMARK    6  A    between atoms: C_13  and  C_14
REMARK    7  A    between atoms: C_13  and  C_15
REMARK    8  A    between atoms: N_17  and  C_18
REMARK    9  A    between atoms: C_21  and  C_22
REMARK   10  A    between atoms: C_22  and  O_23
REMARK   11  A    between atoms: CB_29  and  CG1_30
REMARK   12  A    between atoms: CB_29  and  CG2_31
REMARK                            x       y       z     vdW  Elec       q    Type
REMARK                         _______ _______ _______ _____ _____    ______ ____
ROOT
ATOM      1  N   VAL A   1       8.813   1.799  23.756  0.00  0.00    -0.308 N 
ATOM      2  H   VAL A   1       9.507   1.986  24.472  0.00  0.00    +0.149 HD
ATOM      3  C   UNK A   0       7.585   1.879  24.414  0.00  0.00    +0.219 A 
ATOM      4  N   UNK A   0       6.900   0.748  24.667  0.00  0.00    -0.197 NA
ATOM      5  C   UNK A   0       5.688   0.782  25.291  0.00  0.00    +0.156 A 
ATOM      6  N   UNK A   0       4.981  -0.390  25.610  0.00  0.00    -0.298 N 
ATOM      7  H   UNK A   0       4.053  -0.187  25.973  0.00  0.00    +0.154 HD
ATOM      8  C   UNK A   0       5.165   2.045  25.597  0.00  0.00    +0.148 A 
ATOM      9  N   UNK A   0       3.977   2.435  26.178  0.00  0.00    -0.231 NA
ATOM     10  C   UNK A   0       4.053   3.747  26.234  0.00  0.00    +0.201 A 
ATOM     11  N   UNK A   0       5.235   4.220  25.720  0.00  0.00    -0.312 N 
ATOM     12  C   UNK A   0       5.967   3.135  25.314  0.00  0.00    +0.167 A 
ATOM     13  N   UNK A   0       7.190   3.114  24.762  0.00  0.00    -0.195 NA
ENDROOT
BRANCH   6  14
ATOM     14  C   UNK A   0       5.464  -1.686  25.851  0.00  0.00    +0.034 A 
ATOM     15  C   UNK A   0       5.932  -2.516  24.826  0.00  0.00    +0.044 A 
ATOM     16  C   UNK A   0       6.304  -3.843  25.061  0.00  0.00    +0.057 A 
ATOM     17 CL   UNK A   0       6.904  -4.735  23.707  0.00  0.00    -0.083 Cl
ATOM     18  C   UNK A   0       6.191  -4.378  26.342  0.00  0.00    +0.077 A 
ATOM     19  C   UNK A   0       5.771  -3.547  27.392  0.00  0.00    +0.018 A 
ATOM     20  C   UNK A   0       5.405  -2.218  27.145  0.00  0.00    +0.024 A 
BRANCH  18  21
ATOM     21  C   UNK A   0       6.483  -5.793  26.682  0.00  0.00    +0.338 C 
ATOM     22  O   UNK A   0       5.693  -6.692  26.442  0.00  0.00    -0.245 OA
BRANCH  21  23
ATOM     23  O   UNK A   0       7.725  -6.017  27.154  0.00  0.00    -0.477 OA
ATOM     24  H   UNK A   0       8.420  -6.151  26.474  0.00  0.00    +0.295 HD
ENDBRANCH  21  23
ENDBRANCH  18  21
ENDBRANCH   6  14
BRANCH  11  25
ATOM     25  C   UNK A   0       5.623   5.619  25.602  0.00  0.00    +0.084 C 
ATOM     26  C   UNK A   0       5.040   6.465  26.735  0.00  0.00    +0.030 C 
ATOM     27  C   UNK A   0       5.234   6.196  24.238  0.00  0.00    +0.030 C 
ENDBRANCH  11  25
BRANCH   1  28
ATOM     28  CA  VAL A   1       9.086   0.575  22.981  0.00  0.00    +0.101 C 
BRANCH  28  29
ATOM     29  CB  VAL A   1      10.196  -0.281  23.677  0.00  0.00    +0.005 C 
ATOM     30  CG2 VAL A   1       9.673  -1.625  24.194  0.00  0.00    +0.009 C 
ATOM     31  CG1 VAL A   1      10.934   0.450  24.804  0.00  0.00    +0.009 C 
ENDBRANCH  28  29
BRANCH  28  32
ATOM     32  C   VAL A   1       9.517   0.946  21.534  0.00  0.00    +0.178 C 
BRANCH  32  33
ATOM     33  O   VAL A   1      10.137   2.230  21.485  0.00  0.00    -0.393 OA
ATOM     34  H   VAL A   1       9.494   2.867  21.839  0.00  0.00    +0.209 HD
ENDBRANCH  32  33
ENDBRANCH  28  32
ENDBRANCH   1  28
TORSDOF 8
ENDMDL
MODEL 8
REMARK VINA RESULT:      -6.0      3.809      7.821
REMARK  Name = 
REMARK  12 active torsions:
REMARK  status: ('A' for Active; 'I' for Inactive)
REMARK    1  A    between atoms: CA_2  and  C_3
REMARK    2  A    between atoms: CA_2  and  N_5
REMARK    3  A    between atoms: CA_2  and  CB_29
REMARK    4  A    between atoms: C_3  and  O_4
REMARK    5  A    between atoms: N_12  and  C_13
REMARK    6  A    between atoms: C_13  and  C_14
REMARK    7  A    between atoms: C_13  and  C_15
REMARK    8  A    between atoms: N_17  and  C_18
REMARK    9  A    between atoms: C_21  and  C_22
REMARK   10  A    between atoms: C_22  and  O_23
REMARK   11  A    between atoms: CB_29  and  CG1_30
REMARK   12  A    between atoms: CB_29  and  CG2_31
REMARK                            x       y       z     vdW  Elec       q    Type
REMARK                         _______ _______ _______ _____ _____    ______ ____
ROOT
ATOM      1  N   VAL A   1       5.277  -0.061  26.473  0.00  0.00    -0.308 N 
ATOM      2  H   VAL A   1       5.807  -0.361  27.285  0.00  0.00    +0.149 HD
ATOM      3  C   UNK A   0       5.978  -0.567  25.378  0.00  0.00    +0.219 A 
ATOM      4  N   UNK A   0       6.686   0.278  24.604  0.00  0.00    -0.197 NA
ATOM      5  C   UNK A   0       7.370  -0.171  23.513  0.00  0.00    +0.156 A 
ATOM      6  N   UNK A   0       8.156   0.686  22.723  0.00  0.00    -0.298 N 
ATOM      7  H   UNK A   0       8.509   0.218  21.892  0.00  0.00    +0.154 HD
ATOM      8  C   UNK A   0       7.251  -1.531  23.202  0.00  0.00    +0.148 A 
ATOM      9  N   UNK A   0       7.765  -2.290  22.172  0.00  0.00    -0.231 NA
ATOM     10  C   UNK A   0       7.338  -3.510  22.417  0.00  0.00    +0.201 A 
ATOM     11  N   UNK A   0       6.576  -3.573  23.557  0.00  0.00    -0.312 N 
ATOM     12  C   UNK A   0       6.519  -2.308  24.080  0.00  0.00    +0.167 A 
ATOM     13  N   UNK A   0       5.896  -1.894  25.195  0.00  0.00    -0.195 NA
ENDROOT
BRANCH   6  14
ATOM     14  C   UNK A   0       8.799   1.884  23.073  0.00  0.00    +0.034 A 
ATOM     15  C   UNK A   0       8.109   3.094  23.213  0.00  0.00    +0.044 A 
ATOM     16  C   UNK A   0       8.773   4.301  23.450  0.00  0.00    +0.057 A 
ATOM     17 CL   UNK A   0       7.787   5.707  23.645  0.00  0.00    -0.083 Cl
ATOM     18  C   UNK A   0      10.164   4.322  23.530  0.00  0.00    +0.077 A 
ATOM     19  C   UNK A   0      10.869   3.113  23.440  0.00  0.00    +0.018 A 
ATOM     20  C   UNK A   0      10.193   1.909  23.207  0.00  0.00    +0.024 A 
BRANCH  18  21
ATOM     21  C   UNK A   0      10.968   5.558  23.698  0.00  0.00    +0.338 C 
ATOM     22  O   UNK A   0      10.886   6.253  24.697  0.00  0.00    -0.245 OA
BRANCH  21  23
ATOM     23  O   UNK A   0      11.876   5.778  22.726  0.00  0.00    -0.477 OA
ATOM     24  H   UNK A   0      12.650   6.324  22.983  0.00  0.00    +0.295 HD
ENDBRANCH  21  23
ENDBRANCH  18  21
ENDBRANCH   6  14
BRANCH  11  25
ATOM     25  C   UNK A   0       5.927  -4.761  24.093  0.00  0.00    +0.084 C 
ATOM     26  C   UNK A   0       6.694  -5.338  25.283  0.00  0.00    +0.030 C 
ATOM     27  C   UNK A   0       5.723  -5.825  23.011  0.00  0.00    +0.030 C 
ENDBRANCH  11  25
BRANCH   1  28
ATOM     28  CA  VAL A   1       4.971   1.380  26.473  0.00  0.00    +0.101 C 
BRANCH  28  29
ATOM     29  CB  VAL A   1       5.859   2.131  27.521  0.00  0.00    +0.005 C 
ATOM     30  CG2 VAL A   1       6.919   3.026  26.870  0.00  0.00    +0.009 C 
ATOM     31  CG1 VAL A   1       6.526   1.211  28.550  0.00  0.00    +0.009 C 
ENDBRANCH  28  29
BRANCH  28  32
ATOM     32  C   VAL A   1       3.465   1.605  26.782  0.00  0.00    +0.178 C 
BRANCH  32  33
ATOM     33  O   VAL A   1       2.727   0.386  26.710  0.00  0.00    -0.393 OA
ATOM     34  H   VAL A   1       2.927  -0.112  27.521  0.00  0.00    +0.209 HD
ENDBRANCH  32  33
ENDBRANCH  28  32
ENDBRANCH   1  28
TORSDOF 8
ENDMDL
MODEL 9
REMARK VINA RESULT:      -6.0      3.368      6.024
REMARK  Name = 
REMARK  12 active torsions:
REMARK  status: ('A' for Active; 'I' for Inactive)
REMARK    1  A    between atoms: CA_2  and  C_3
REMARK    2  A    between atoms: CA_2  and  N_5
REMARK    3  A    between atoms: CA_2  and  CB_29
REMARK    4  A    between atoms: C_3  and  O_4
REMARK    5  A    between atoms: N_12  and  C_13
REMARK    6  A    between atoms: C_13  and  C_14
REMARK    7  A    between atoms: C_13  and  C_15
REMARK    8  A    between atoms: N_17  and  C_18
REMARK    9  A    between atoms: C_21  and  C_22
REMARK   10  A    between atoms: C_22  and  O_23
REMARK   11  A    between atoms: CB_29  and  CG1_30
REMARK   12  A    between atoms: CB_29  and  CG2_31
REMARK                            x       y       z     vdW  Elec       q    Type
REMARK                         _______ _______ _______ _____ _____    ______ ____
ROOT
ATOM      1  N   VAL A   1       8.389   2.972  24.126  0.00  0.00    -0.308 N 
ATOM      2  H   VAL A   1       9.361   3.180  24.330  0.00  0.00    +0.149 HD
ATOM      3  C   UNK A   0       7.841   2.579  25.348  0.00  0.00    +0.219 A 
ATOM      4  N   UNK A   0       7.555   1.280  25.552  0.00  0.00    -0.197 NA
ATOM      5  C   UNK A   0       7.002   0.855  26.724  0.00  0.00    +0.156 A 
ATOM      6  N   UNK A   0       6.744  -0.504  26.978  0.00  0.00    -0.298 N 
ATOM      7  H   UNK A   0       6.235  -0.638  27.847  0.00  0.00    +0.154 HD
ATOM      8  C   UNK A   0       6.689   1.836  27.673  0.00  0.00    +0.148 A 
ATOM      9  N   UNK A   0       6.100   1.761  28.917  0.00  0.00    -0.231 NA
ATOM     10  C   UNK A   0       6.092   3.003  29.353  0.00  0.00    +0.201 A 
ATOM     11  N   UNK A   0       6.650   3.873  28.449  0.00  0.00    -0.312 N 
ATOM     12  C   UNK A   0       7.049   3.136  27.366  0.00  0.00    +0.167 A 
ATOM     13  N   UNK A   0       7.656   3.560  26.246  0.00  0.00    -0.195 NA
ENDROOT
BRANCH   6  14
ATOM     14  C   UNK A   0       7.371  -1.644  26.451  0.00  0.00    +0.034 A 
ATOM     15  C   UNK A   0       8.376  -1.568  25.479  0.00  0.00    +0.044 A 
ATOM     16  C   UNK A   0       8.913  -2.712  24.880  0.00  0.00    +0.057 A 
ATOM     17 CL   UNK A   0      10.178  -2.465  23.728  0.00  0.00    -0.083 Cl
ATOM     18  C   UNK A   0       8.430  -3.970  25.232  0.00  0.00    +0.077 A 
ATOM     19  C   UNK A   0       7.459  -4.069  26.239  0.00  0.00    +0.018 A 
ATOM     20  C   UNK A   0       6.931  -2.917  26.835  0.00  0.00    +0.024 A 
BRANCH  18  21
ATOM     21  C   UNK A   0       8.874  -5.237  24.600  0.00  0.00    +0.338 C 
ATOM     22  O   UNK A   0       8.394  -5.643  23.555  0.00  0.00    -0.245 OA
BRANCH  21  23
ATOM     23  O   UNK A   0       9.924  -5.831  25.203  0.00  0.00    -0.477 OA
ATOM     24  H   UNK A   0       9.962  -6.809  25.124  0.00  0.00    +0.295 HD
ENDBRANCH  21  23
ENDBRANCH  18  21
ENDBRANCH   6  14
BRANCH  11  25
ATOM     25  C   UNK A   0       6.769   5.316  28.605  0.00  0.00    +0.084 C 
ATOM     26  C   UNK A   0       6.872   5.719  30.077  0.00  0.00    +0.030 C 
ATOM     27  C   UNK A   0       5.613   6.051  27.921  0.00  0.00    +0.030 C 
ENDBRANCH  11  25
BRANCH   1  28
ATOM     28  CA  VAL A   1       8.211   2.061  22.982  0.00  0.00    +0.101 C 
BRANCH  28  29
ATOM     29  CB  VAL A   1       9.596   1.537  22.475  0.00  0.00    +0.005 C 
ATOM     30  CG2 VAL A   1       9.469   0.348  21.518  0.00  0.00    +0.009 C 
ATOM     31  CG1 VAL A   1      10.581   1.188  23.598  0.00  0.00    +0.009 C 
ENDBRANCH  28  29
BRANCH  28  32
ATOM     32  C   VAL A   1       7.457   2.788  21.834  0.00  0.00    +0.178 C 
BRANCH  32  33
ATOM     33  O   VAL A   1       7.128   4.130  22.190  0.00  0.00    -0.393 OA
ATOM     34  H   VAL A   1       7.548   4.304  23.050  0.00  0.00    +0.209 HD
ENDBRANCH  32  33
ENDBRANCH  28  32
ENDBRANCH   1  28
TORSDOF 8
ENDMDL
