MODEL 1
REMARK VINA RESULT:      -7.6      0.000      0.000
REMARK  Name = 
REMARK  9 active torsions:
REMARK  status: ('A' for Active; 'I' for Inactive)
REMARK    1  A    between atoms: C_1  and  C_2
REMARK    2  A    between atoms: C_2  and  C_3
REMARK    3  A    between atoms: C_2  and  C_4
REMARK    4  A    between atoms: C_6  and  O_7
REMARK    5  A    between atoms: O_7  and  C_8
REMARK    6  A    between atoms: C_9  and  C_10
REMARK    7  A    between atoms: C_12  and  N_16
REMARK    8  A    between atoms: C_14  and  C_15
REMARK    9  A    between atoms: C_26  and  O_27
REMARK                            x       y       z     vdW  Elec       q    Type
REMARK                         _______ _______ _______ _____ _____    ______ ____
ROOT
ATOM      1  C   UNL     1       9.817  -1.146  24.020  0.00  0.00    +0.134 A 
ATOM      2  C   UNL     1       9.771  -0.564  22.726  0.00  0.00    -0.006 A 
ATOM      3  C   UNL     1       9.882  -1.408  21.480  0.00  0.00    +0.047 C 
ATOM      4  C   UNL     1       9.563   0.831  22.573  0.00  0.00    +0.035 A 
ATOM      5  C   UNL     1       9.410   1.674  23.682  0.00  0.00    +0.071 A 
ATOM      6  C   UNL     1       9.331   1.054  24.927  0.00  0.00    +0.035 A 
ATOM      7  C   UNL     1       9.438  -0.341  25.105  0.00  0.00    -0.006 A 
ATOM      8  C   UNL     1       9.060  -0.824  26.480  0.00  0.00    +0.047 C 
ENDROOT
BRANCH   5   9
ATOM      9  N   UNL     1       9.250   3.099  23.550  0.00  0.00    -0.182 N 
ATOM     10  C   UNL     1      10.348   3.986  23.509  0.00  0.00    +0.350 A 
ATOM     11  O   UNL     1      11.536   3.686  23.436  0.00  0.00    -0.245 OA
ATOM     12  N   UNL     1      10.054   5.318  23.537  0.00  0.00    -0.272 N 
ATOM     13  H   UNL     1      10.838   5.951  23.518  0.00  0.00    +0.174 HD
ATOM     14  C   UNL     1       8.796   5.824  23.539  0.00  0.00    +0.272 A 
ATOM     15  O   UNL     1       8.511   7.009  23.547  0.00  0.00    -0.266 OA
ATOM     16  C   UNL     1       7.710   4.800  23.510  0.00  0.00    +0.203 A 
ATOM     17  N   UNL     1       7.932   3.526  23.507  0.00  0.00    -0.165 NA
ENDBRANCH   5   9
BRANCH   1  18
ATOM     18  O   UNL     1      10.120  -2.498  24.066  0.00  0.00    -0.455 OA
BRANCH  18  23
ATOM     19  C   UNL     1       6.972  -4.426  24.077  0.00  0.00    +0.000 A 
ATOM     20  C   UNL     1       7.102  -5.115  25.289  0.00  0.00    +0.120 A 
ATOM     21  C   UNL     1       8.314  -5.134  25.966  0.00  0.00    +0.049 A 
ATOM     22  C   UNL     1       9.400  -4.411  25.466  0.00  0.00    +0.050 A 
ATOM     23  C   UNL     1       9.217  -3.474  24.455  0.00  0.00    +0.129 A 
ATOM     24  C   UNL     1       8.005  -3.517  23.741  0.00  0.00    +0.053 A 
BRANCH  19  26
ATOM     25  C   UNL     1       5.322  -3.539  22.304  0.00  0.00    +0.012 C 
ATOM     26  C   UNL     1       5.799  -4.736  23.139  0.00  0.00    +0.017 C 
ATOM     27  C   UNL     1       6.171  -5.870  22.154  0.00  0.00    +0.012 C 
ENDBRANCH  19  26
BRANCH  20  28
ATOM     28  O   UNL     1       6.040  -5.810  25.793  0.00  0.00    -0.506 OA
ATOM     29  H   UNL     1       5.762  -5.403  26.630  0.00  0.00    +0.292 HD
ENDBRANCH  20  28
ENDBRANCH  18  23
ENDBRANCH   1  18
TORSDOF 5
ENDMDL
MODEL 2
REMARK VINA RESULT:      -7.5      4.133      8.753
REMARK  Name = 
REMARK  9 active torsions:
REMARK  status: ('A' for Active; 'I' for Inactive)
REMARK    1  A    between atoms: C_1  and  C_2
REMARK    2  A    between atoms: C_2  and  C_3
REMARK    3  A    between atoms: C_2  and  C_4
REMARK    4  A    between atoms: C_6  and  O_7
REMARK    5  A    between atoms: O_7  and  C_8
REMARK    6  A    between atoms: C_9  and  C_10
REMARK    7  A    between atoms: C_12  and  N_16
REMARK    8  A    between atoms: C_14  and  C_15
REMARK    9  A    between atoms: C_26  and  O_27
REMARK                            x       y       z     vdW  Elec       q    Type
REMARK                         _______ _______ _______ _____ _____    ______ ____
ROOT
ATOM      1  C   UNL     1       8.078  -2.822  25.080  0.00  0.00    +0.134 A 
ATOM      2  C   UNL     1       8.411  -4.200  25.019  0.00  0.00    -0.006 A 
ATOM      3  C   UNL     1       9.832  -4.675  25.206  0.00  0.00    +0.047 C 
ATOM      4  C   UNL     1       7.400  -5.176  24.830  0.00  0.00    +0.035 A 
ATOM      5  C   UNL     1       6.052  -4.817  24.688  0.00  0.00    +0.071 A 
ATOM      6  C   UNL     1       5.746  -3.472  24.883  0.00  0.00    +0.035 A 
ATOM      7  C   UNL     1       6.718  -2.490  25.168  0.00  0.00    -0.006 A 
ATOM      8  C   UNL     1       6.153  -1.164  25.605  0.00  0.00    +0.047 C 
ENDROOT
BRANCH   5   9
ATOM      9  N   UNL     1       5.017  -5.787  24.444  0.00  0.00    -0.182 N 
ATOM     10  C   UNL     1       4.383  -5.923  23.190  0.00  0.00    +0.350 A 
ATOM     11  O   UNL     1       4.700  -5.369  22.141  0.00  0.00    -0.245 OA
ATOM     12  N   UNL     1       3.317  -6.773  23.137  0.00  0.00    -0.272 N 
ATOM     13  H   UNL     1       2.859  -6.861  22.243  0.00  0.00    +0.174 HD
ATOM     14  C   UNL     1       2.882  -7.520  24.181  0.00  0.00    +0.272 A 
ATOM     15  O   UNL     1       1.943  -8.297  24.151  0.00  0.00    -0.266 OA
ATOM     16  C   UNL     1       3.667  -7.354  25.440  0.00  0.00    +0.203 A 
ATOM     17  N   UNL     1       4.670  -6.545  25.552  0.00  0.00    -0.165 NA
ENDBRANCH   5   9
BRANCH   1  18
ATOM     18  O   UNL     1       9.146  -1.943  25.171  0.00  0.00    -0.455 OA
BRANCH  18  23
ATOM     19  C   UNL     1       9.640   1.372  23.625  0.00  0.00    +0.000 A 
ATOM     20  C   UNL     1       9.726   1.011  22.275  0.00  0.00    +0.120 A 
ATOM     21  C   UNL     1       9.869  -0.320  21.905  0.00  0.00    +0.049 A 
ATOM     22  C   UNL     1       9.868  -1.315  22.885  0.00  0.00    +0.050 A 
ATOM     23  C   UNL     1       9.469  -1.024  24.185  0.00  0.00    +0.129 A 
ATOM     24  C   UNL     1       9.394   0.332  24.553  0.00  0.00    +0.053 A 
BRANCH  19  26
ATOM     25  C   UNL     1      11.137   3.462  23.407  0.00  0.00    +0.012 C 
ATOM     26  C   UNL     1       9.898   2.823  24.050  0.00  0.00    +0.017 C 
ATOM     27  C   UNL     1       8.683   3.717  23.706  0.00  0.00    +0.012 C 
ENDBRANCH  19  26
BRANCH  20  28
ATOM     28  O   UNL     1       9.711   1.979  21.311  0.00  0.00    -0.506 OA
ATOM     29  H   UNL     1       9.762   1.558  20.437  0.00  0.00    +0.292 HD
ENDBRANCH  20  28
ENDBRANCH  18  23
ENDBRANCH   1  18
TORSDOF 5
ENDMDL
MODEL 3
REMARK VINA RESULT:      -7.3      4.058      8.577
REMARK  Name = 
REMARK  9 active torsions:
REMARK  status: ('A' for Active; 'I' for Inactive)
REMARK    1  A    between atoms: C_1  and  C_2
REMARK    2  A    between atoms: C_2  and  C_3
REMARK    3  A    between atoms: C_2  and  C_4
REMARK    4  A    between atoms: C_6  and  O_7
REMARK    5  A    between atoms: O_7  and  C_8
REMARK    6  A    between atoms: C_9  and  C_10
REMARK    7  A    between atoms: C_12  and  N_16
REMARK    8  A    between atoms: C_14  and  C_15
REMARK    9  A    between atoms: C_26  and  O_27
REMARK                            x       y       z     vdW  Elec       q    Type
REMARK                         _______ _______ _______ _____ _____    ______ ____
ROOT
ATOM      1  C   UNL     1       7.587  -1.671  25.408  0.00  0.00    +0.134 A 
ATOM      2  C   UNL     1       6.182  -1.643  25.601  0.00  0.00    -0.006 A 
ATOM      3  C   UNL     1       5.474  -0.387  26.048  0.00  0.00    +0.047 C 
ATOM      4  C   UNL     1       5.395  -2.791  25.324  0.00  0.00    +0.035 A 
ATOM      5  C   UNL     1       5.974  -3.982  24.867  0.00  0.00    +0.071 A 
ATOM      6  C   UNL     1       7.333  -3.935  24.566  0.00  0.00    +0.035 A 
ATOM      7  C   UNL     1       8.125  -2.781  24.739  0.00  0.00    -0.006 A 
ATOM      8  C   UNL     1       9.489  -2.862  24.107  0.00  0.00    +0.047 C 
ENDROOT
BRANCH   5   9
ATOM      9  N   UNL     1       5.201  -5.174  24.630  0.00  0.00    -0.182 N 
ATOM     10  C   UNL     1       4.543  -5.422  23.406  0.00  0.00    +0.350 A 
ATOM     11  O   UNL     1       4.643  -4.770  22.370  0.00  0.00    -0.245 OA
ATOM     12  N   UNL     1       3.723  -6.511  23.367  0.00  0.00    -0.272 N 
ATOM     13  H   UNL     1       3.245  -6.682  22.495  0.00  0.00    +0.174 HD
ATOM     14  C   UNL     1       3.557  -7.381  24.393  0.00  0.00    +0.272 A 
ATOM     15  O   UNL     1       2.842  -8.368  24.374  0.00  0.00    -0.266 OA
ATOM     16  C   UNL     1       4.353  -7.065  25.616  0.00  0.00    +0.203 A 
ATOM     17  N   UNL     1       5.127  -6.033  25.715  0.00  0.00    -0.165 NA
ENDBRANCH   5   9
BRANCH   1  18
ATOM     18  O   UNL     1       8.276  -0.533  25.797  0.00  0.00    -0.455 OA
BRANCH  18  23
ATOM     19  C   UNL     1       8.543   1.911  23.044  0.00  0.00    +0.000 A 
ATOM     20  C   UNL     1       9.920   1.862  22.796  0.00  0.00    +0.120 A 
ATOM     21  C   UNL     1      10.777   1.225  23.683  0.00  0.00    +0.049 A 
ATOM     22  C   UNL     1      10.257   0.574  24.804  0.00  0.00    +0.050 A 
ATOM     23  C   UNL     1       8.892   0.333  24.908  0.00  0.00    +0.129 A 
ATOM     24  C   UNL     1       8.039   1.040  24.041  0.00  0.00    +0.053 A 
BRANCH  19  26
ATOM     25  C   UNL     1       6.166   2.617  22.334  0.00  0.00    +0.012 C 
ATOM     26  C   UNL     1       7.667   2.938  22.317  0.00  0.00    +0.017 C 
ATOM     27  C   UNL     1       7.847   4.346  22.935  0.00  0.00    +0.012 C 
ENDBRANCH  19  26
BRANCH  20  28
ATOM     28  O   UNL     1      10.433   2.481  21.692  0.00  0.00    -0.506 OA
ATOM     29  H   UNL     1      10.961   3.247  21.973  0.00  0.00    +0.292 HD
ENDBRANCH  20  28
ENDBRANCH  18  23
ENDBRANCH   1  18
TORSDOF 5
ENDMDL
MODEL 4
REMARK VINA RESULT:      -7.3      3.740      8.657
REMARK  Name = 
REMARK  9 active torsions:
REMARK  status: ('A' for Active; 'I' for Inactive)
REMARK    1  A    between atoms: C_1  and  C_2
REMARK    2  A    between atoms: C_2  and  C_3
REMARK    3  A    between atoms: C_2  and  C_4
REMARK    4  A    between atoms: C_6  and  O_7
REMARK    5  A    between atoms: O_7  and  C_8
REMARK    6  A    between atoms: C_9  and  C_10
REMARK    7  A    between atoms: C_12  and  N_16
REMARK    8  A    between atoms: C_14  and  C_15
REMARK    9  A    between atoms: C_26  and  O_27
REMARK                            x       y       z     vdW  Elec       q    Type
REMARK                         _______ _______ _______ _____ _____    ______ ____
ROOT
ATOM      1  C   UNL     1       8.228  -1.080  24.480  0.00  0.00    +0.134 A 
ATOM      2  C   UNL     1       8.783  -2.249  23.900  0.00  0.00    -0.006 A 
ATOM      3  C   UNL     1      10.192  -2.267  23.360  0.00  0.00    +0.047 C 
ATOM      4  C   UNL     1       8.038  -3.456  23.863  0.00  0.00    +0.035 A 
ATOM      5  C   UNL     1       6.738  -3.530  24.380  0.00  0.00    +0.071 A 
ATOM      6  C   UNL     1       6.275  -2.403  25.056  0.00  0.00    +0.035 A 
ATOM      7  C   UNL     1       7.029  -1.219  25.195  0.00  0.00    -0.006 A 
ATOM      8  C   UNL     1       6.461  -0.231  26.178  0.00  0.00    +0.047 C 
ENDROOT
BRANCH   5   9
ATOM      9  N   UNL     1       5.945  -4.730  24.306  0.00  0.00    -0.182 N 
ATOM     10  C   UNL     1       5.273  -5.124  23.129  0.00  0.00    +0.350 A 
ATOM     11  O   UNL     1       5.373  -4.614  22.017  0.00  0.00    -0.245 OA
ATOM     12  N   UNL     1       4.436  -6.196  23.238  0.00  0.00    -0.272 N 
ATOM     13  H   UNL     1       3.948  -6.471  22.400  0.00  0.00    +0.174 HD
ATOM     14  C   UNL     1       4.266  -6.922  24.370  0.00  0.00    +0.272 A 
ATOM     15  O   UNL     1       3.536  -7.892  24.485  0.00  0.00    -0.266 OA
ATOM     16  C   UNL     1       5.078  -6.463  25.536  0.00  0.00    +0.203 A 
ATOM     17  N   UNL     1       5.868  -5.440  25.494  0.00  0.00    -0.165 NA
ENDBRANCH   5   9
BRANCH   1  18
ATOM     18  O   UNL     1       8.997   0.070  24.381  0.00  0.00    -0.455 OA
BRANCH  18  23
ATOM     19  C   UNL     1       8.504   3.626  23.520  0.00  0.00    +0.000 A 
ATOM     20  C   UNL     1       7.691   3.501  22.387  0.00  0.00    +0.120 A 
ATOM     21  C   UNL     1       7.516   2.268  21.774  0.00  0.00    +0.049 A 
ATOM     22  C   UNL     1       8.107   1.128  22.325  0.00  0.00    +0.050 A 
ATOM     23  C   UNL     1       8.646   1.164  23.607  0.00  0.00    +0.129 A 
ATOM     24  C   UNL     1       8.874   2.428  24.180  0.00  0.00    +0.053 A 
BRANCH  19  26
ATOM     25  C   UNL     1       8.738   5.370  25.406  0.00  0.00    +0.012 C 
ATOM     26  C   UNL     1       9.027   5.004  23.943  0.00  0.00    +0.017 C 
ATOM     27  C   UNL     1      10.558   5.095  23.735  0.00  0.00    +0.012 C 
ENDBRANCH  19  26
BRANCH  20  28
ATOM     28  O   UNL     1       7.097   4.608  21.853  0.00  0.00    -0.506 OA
ATOM     29  H   UNL     1       6.250   4.762  22.303  0.00  0.00    +0.292 HD
ENDBRANCH  20  28
ENDBRANCH  18  23
ENDBRANCH   1  18
TORSDOF 5
ENDMDL
MODEL 5
REMARK VINA RESULT:      -7.3      1.520      2.437
REMARK  Name = 
REMARK  9 active torsions:
REMARK  status: ('A' for Active; 'I' for Inactive)
REMARK    1  A    between atoms: C_1  and  C_2
REMARK    2  A    between atoms: C_2  and  C_3
REMARK    3  A    between atoms: C_2  and  C_4
REMARK    4  A    between atoms: C_6  and  O_7
REMARK    5  A    between atoms: O_7  and  C_8
REMARK    6  A    between atoms: C_9  and  C_10
REMARK    7  A    between atoms: C_12  and  N_16
REMARK    8  A    between atoms: C_14  and  C_15
REMARK    9  A    between atoms: C_26  and  O_27
REMARK                            x       y       z     vdW  Elec       q    Type
REMARK                         _______ _______ _______ _____ _____    ______ ____
ROOT
ATOM      1  C   UNL     1       9.297  -1.215  24.638  0.00  0.00    +0.134 A 
ATOM      2  C   UNL     1       8.787  -0.285  25.580  0.00  0.00    -0.006 A 
ATOM      3  C   UNL     1       8.693  -0.623  27.048  0.00  0.00    +0.047 C 
ATOM      4  C   UNL     1       8.399   1.016  25.167  0.00  0.00    +0.035 A 
ATOM      5  C   UNL     1       8.495   1.419  23.828  0.00  0.00    +0.071 A 
ATOM      6  C   UNL     1       9.119   0.529  22.957  0.00  0.00    +0.035 A 
ATOM      7  C   UNL     1       9.603  -0.735  23.355  0.00  0.00    -0.006 A 
ATOM      8  C   UNL     1      10.473  -1.418  22.334  0.00  0.00    +0.047 C 
ENDROOT
BRANCH   5   9
ATOM      9  N   UNL     1       8.058   2.715  23.380  0.00  0.00    -0.182 N 
ATOM     10  C   UNL     1       6.940   2.891  22.536  0.00  0.00    +0.350 A 
ATOM     11  O   UNL     1       6.132   2.032  22.195  0.00  0.00    -0.245 OA
ATOM     12  N   UNL     1       6.728   4.153  22.064  0.00  0.00    -0.272 N 
ATOM     13  H   UNL     1       5.935   4.275  21.452  0.00  0.00    +0.174 HD
ATOM     14  C   UNL     1       7.476   5.232  22.401  0.00  0.00    +0.272 A 
ATOM     15  O   UNL     1       7.294   6.370  22.004  0.00  0.00    -0.266 OA
ATOM     16  C   UNL     1       8.589   4.948  23.355  0.00  0.00    +0.203 A 
ATOM     17  N   UNL     1       8.849   3.767  23.814  0.00  0.00    -0.165 NA
ENDBRANCH   5   9
BRANCH   1  18
ATOM     18  O   UNL     1       9.557  -2.488  25.122  0.00  0.00    -0.455 OA
BRANCH  18  23
ATOM     19  C   UNL     1       6.780  -4.570  23.866  0.00  0.00    +0.000 A 
ATOM     20  C   UNL     1       6.451  -5.279  25.027  0.00  0.00    +0.120 A 
ATOM     21  C   UNL     1       7.290  -5.254  26.134  0.00  0.00    +0.049 A 
ATOM     22  C   UNL     1       8.443  -4.466  26.112  0.00  0.00    +0.050 A 
ATOM     23  C   UNL     1       8.629  -3.516  25.114  0.00  0.00    +0.129 A 
ATOM     24  C   UNL     1       7.809  -3.603  23.974  0.00  0.00    +0.053 A 
BRANCH  19  26
ATOM     25  C   UNL     1       5.941  -3.727  21.577  0.00  0.00    +0.012 C 
ATOM     26  C   UNL     1       6.100  -4.915  22.536  0.00  0.00    +0.017 C 
ATOM     27  C   UNL     1       6.891  -6.014  21.786  0.00  0.00    +0.012 C 
ENDBRANCH  19  26
BRANCH  20  28
ATOM     28  O   UNL     1       5.316  -6.038  25.061  0.00  0.00    -0.506 OA
ATOM     29  H   UNL     1       4.561  -5.493  24.783  0.00  0.00    +0.292 HD
ENDBRANCH  20  28
ENDBRANCH  18  23
ENDBRANCH   1  18
TORSDOF 5
ENDMDL
MODEL 6
REMARK VINA RESULT:      -7.1      2.341      4.200
REMARK  Name = 
REMARK  9 active torsions:
REMARK  status: ('A' for Active; 'I' for Inactive)
REMARK    1  A    between atoms: C_1  and  C_2
REMARK    2  A    between atoms: C_2  and  C_3
REMARK    3  A    between atoms: C_2  and  C_4
REMARK    4  A    between atoms: C_6  and  O_7
REMARK    5  A    between atoms: O_7  and  C_8
REMARK    6  A    between atoms: C_9  and  C_10
REMARK    7  A    between atoms: C_12  and  N_16
REMARK    8  A    between atoms: C_14  and  C_15
REMARK    9  A    between atoms: C_26  and  O_27
REMARK                            x       y       z     vdW  Elec       q    Type
REMARK                         _______ _______ _______ _____ _____    ______ ____
ROOT
ATOM      1  C   UNL     1       7.628  -3.924  23.646  0.00  0.00    +0.134 A 
ATOM      2  C   UNL     1       8.791  -3.478  24.324  0.00  0.00    -0.006 A 
ATOM      3  C   UNL     1       9.705  -4.443  25.038  0.00  0.00    +0.047 C 
ATOM      4  C   UNL     1       9.155  -2.106  24.301  0.00  0.00    +0.035 A 
ATOM      5  C   UNL     1       8.379  -1.155  23.625  0.00  0.00    +0.071 A 
ATOM      6  C   UNL     1       7.319  -1.645  22.865  0.00  0.00    +0.035 A 
ATOM      7  C   UNL     1       6.989  -3.015  22.790  0.00  0.00    -0.006 A 
ATOM      8  C   UNL     1       5.992  -3.356  21.715  0.00  0.00    +0.047 C 
ENDROOT
BRANCH   5   9
ATOM      9  N   UNL     1       8.701   0.249  23.633  0.00  0.00    -0.182 N 
ATOM     10  C   UNL     1       9.478   0.855  22.623  0.00  0.00    +0.350 A 
ATOM     11  O   UNL     1       9.853   0.341  21.572  0.00  0.00    -0.245 OA
ATOM     12  N   UNL     1       9.836   2.156  22.830  0.00  0.00    -0.272 N 
ATOM     13  H   UNL     1      10.400   2.585  22.113  0.00  0.00    +0.174 HD
ATOM     14  C   UNL     1       9.445   2.896  23.896  0.00  0.00    +0.272 A 
ATOM     15  O   UNL     1       9.739   4.062  24.092  0.00  0.00    -0.266 OA
ATOM     16  C   UNL     1       8.566   2.179  24.867  0.00  0.00    +0.203 A 
ATOM     17  N   UNL     1       8.217   0.941  24.732  0.00  0.00    -0.165 NA
ENDBRANCH   5   9
BRANCH   1  18
ATOM     18  O   UNL     1       7.307  -5.263  23.809  0.00  0.00    -0.455 OA
BRANCH  18  23
ATOM     19  C   UNL     1       5.149  -6.140  26.672  0.00  0.00    +0.000 A 
ATOM     20  C   UNL     1       4.152  -6.877  26.020  0.00  0.00    +0.120 A 
ATOM     21  C   UNL     1       4.060  -6.873  24.635  0.00  0.00    +0.049 A 
ATOM     22  C   UNL     1       5.005  -6.175  23.879  0.00  0.00    +0.050 A 
ATOM     23  C   UNL     1       6.173  -5.706  24.470  0.00  0.00    +0.129 A 
ATOM     24  C   UNL     1       6.217  -5.661  25.875  0.00  0.00    +0.053 A 
BRANCH  19  26
ATOM     25  C   UNL     1       6.142  -6.356  29.043  0.00  0.00    +0.012 C 
ATOM     26  C   UNL     1       5.009  -5.809  28.163  0.00  0.00    +0.017 C 
ATOM     27  C   UNL     1       4.952  -4.278  28.379  0.00  0.00    +0.012 C 
ENDBRANCH  19  26
BRANCH  20  28
ATOM     28  O   UNL     1       3.236  -7.575  26.754  0.00  0.00    -0.506 OA
ATOM     29  H   UNL     1       2.891  -7.004  27.459  0.00  0.00    +0.292 HD
ENDBRANCH  20  28
ENDBRANCH  18  23
ENDBRANCH   1  18
TORSDOF 5
ENDMDL
MODEL 7
REMARK VINA RESULT:      -7.1      3.602      8.640
REMARK  Name = 
REMARK  9 active torsions:
REMARK  status: ('A' for Active; 'I' for Inactive)
REMARK    1  A    between atoms: C_1  and  C_2
REMARK    2  A    between atoms: C_2  and  C_3
REMARK    3  A    between atoms: C_2  and  C_4
REMARK    4  A    between atoms: C_6  and  O_7
REMARK    5  A    between atoms: O_7  and  C_8
REMARK    6  A    between atoms: C_9  and  C_10
REMARK    7  A    between atoms: C_12  and  N_16
REMARK    8  A    between atoms: C_14  and  C_15
REMARK    9  A    between atoms: C_26  and  O_27
REMARK                            x       y       z     vdW  Elec       q    Type
REMARK                         _______ _______ _______ _____ _____    ______ ____
ROOT
ATOM      1  C   UNL     1       9.093   0.067  24.994  0.00  0.00    +0.134 A 
ATOM      2  C   UNL     1       8.091   0.104  25.998  0.00  0.00    -0.006 A 
ATOM      3  C   UNL     1       7.545   1.412  26.515  0.00  0.00    +0.047 C 
ATOM      4  C   UNL     1       7.537  -1.099  26.506  0.00  0.00    +0.035 A 
ATOM      5  C   UNL     1       7.964  -2.353  26.046  0.00  0.00    +0.071 A 
ATOM      6  C   UNL     1       8.852  -2.350  24.973  0.00  0.00    +0.035 A 
ATOM      7  C   UNL     1       9.348  -1.169  24.381  0.00  0.00    -0.006 A 
ATOM      8  C   UNL     1      10.073  -1.383  23.079  0.00  0.00    +0.047 C 
ENDROOT
BRANCH   5   9
ATOM      9  N   UNL     1       7.453  -3.586  26.585  0.00  0.00    -0.182 N 
ATOM     10  C   UNL     1       8.263  -4.727  26.770  0.00  0.00    +0.350 A 
ATOM     11  O   UNL     1       9.483  -4.794  26.646  0.00  0.00    -0.245 OA
ATOM     12  N   UNL     1       7.622  -5.873  27.143  0.00  0.00    -0.272 N 
ATOM     13  H   UNL     1       8.200  -6.690  27.265  0.00  0.00    +0.174 HD
ATOM     14  C   UNL     1       6.294  -5.958  27.398  0.00  0.00    +0.272 A 
ATOM     15  O   UNL     1       5.704  -6.966  27.748  0.00  0.00    -0.266 OA
ATOM     16  C   UNL     1       5.543  -4.677  27.241  0.00  0.00    +0.203 A 
ATOM     17  N   UNL     1       6.096  -3.569  26.867  0.00  0.00    -0.165 NA
ENDBRANCH   5   9
BRANCH   1  18
ATOM     18  O   UNL     1       9.637   1.290  24.634  0.00  0.00    -0.455 OA
BRANCH  18  23
ATOM     19  C   UNL     1       8.541   4.571  23.346  0.00  0.00    +0.000 A 
ATOM     20  C   UNL     1       7.554   4.169  22.438  0.00  0.00    +0.120 A 
ATOM     21  C   UNL     1       7.427   2.834  22.075  0.00  0.00    +0.049 A 
ATOM     22  C   UNL     1       8.252   1.874  22.665  0.00  0.00    +0.050 A 
ATOM     23  C   UNL     1       9.011   2.189  23.787  0.00  0.00    +0.129 A 
ATOM     24  C   UNL     1       9.178   3.552  24.095  0.00  0.00    +0.053 A 
BRANCH  19  26
ATOM     25  C   UNL     1       8.147   6.872  24.444  0.00  0.00    +0.012 C 
ATOM     26  C   UNL     1       8.952   6.046  23.430  0.00  0.00    +0.017 C 
ATOM     27  C   UNL     1      10.447   6.176  23.809  0.00  0.00    +0.012 C 
ENDBRANCH  19  26
BRANCH  20  28
ATOM     28  O   UNL     1       6.733   5.101  21.871  0.00  0.00    -0.506 OA
ATOM     29  H   UNL     1       6.056   5.364  22.516  0.00  0.00    +0.292 HD
ENDBRANCH  20  28
ENDBRANCH  18  23
ENDBRANCH   1  18
TORSDOF 5
ENDMDL
MODEL 8
REMARK VINA RESULT:      -7.1      2.275      4.262
REMARK  Name = 
REMARK  9 active torsions:
REMARK  status: ('A' for Active; 'I' for Inactive)
REMARK    1  A    between atoms: C_1  and  C_2
REMARK    2  A    between atoms: C_2  and  C_3
REMARK    3  A    between atoms: C_2  and  C_4
REMARK    4  A    between atoms: C_6  and  O_7
REMARK    5  A    between atoms: O_7  and  C_8
REMARK    6  A    between atoms: C_9  and  C_10
REMARK    7  A    between atoms: C_12  and  N_16
REMARK    8  A    between atoms: C_14  and  C_15
REMARK    9  A    between atoms: C_26  and  O_27
REMARK                            x       y       z     vdW  Elec       q    Type
REMARK                         _______ _______ _______ _____ _____    ______ ____
ROOT
ATOM      1  C   UNL     1       7.586  -4.114  23.308  0.00  0.00    +0.134 A 
ATOM      2  C   UNL     1       6.940  -2.975  22.762  0.00  0.00    -0.006 A 
ATOM      3  C   UNL     1       5.574  -3.074  22.129  0.00  0.00    +0.047 C 
ATOM      4  C   UNL     1       7.546  -1.696  22.848  0.00  0.00    +0.035 A 
ATOM      5  C   UNL     1       8.795  -1.516  23.457  0.00  0.00    +0.071 A 
ATOM      6  C   UNL     1       9.339  -2.629  24.095  0.00  0.00    +0.035 A 
ATOM      7  C   UNL     1       8.716  -3.894  24.111  0.00  0.00    -0.006 A 
ATOM      8  C   UNL     1       9.329  -4.878  25.071  0.00  0.00    +0.047 C 
ENDROOT
BRANCH   5   9
ATOM      9  N   UNL     1       9.451  -0.236  23.509  0.00  0.00    -0.182 N 
ATOM     10  C   UNL     1       9.773   0.405  24.725  0.00  0.00    +0.350 A 
ATOM     11  O   UNL     1       9.680  -0.068  25.854  0.00  0.00    -0.245 OA
ATOM     12  N   UNL     1      10.253   1.678  24.632  0.00  0.00    -0.272 N 
ATOM     13  H   UNL     1      10.473   2.139  25.502  0.00  0.00    +0.174 HD
ATOM     14  C   UNL     1      10.490   2.323  23.464  0.00  0.00    +0.272 A 
ATOM     15  O   UNL     1      10.933   3.454  23.358  0.00  0.00    -0.266 OA
ATOM     16  C   UNL     1      10.183   1.529  22.237  0.00  0.00    +0.203 A 
ATOM     17  N   UNL     1       9.704   0.328  22.268  0.00  0.00    -0.165 NA
ENDBRANCH   5   9
BRANCH   1  18
ATOM     18  O   UNL     1       6.958  -5.331  23.089  0.00  0.00    -0.455 OA
BRANCH  18  23
ATOM     19  C   UNL     1       5.070  -6.245  26.126  0.00  0.00    +0.000 A 
ATOM     20  C   UNL     1       4.031  -6.995  25.561  0.00  0.00    +0.120 A 
ATOM     21  C   UNL     1       3.818  -6.989  24.189  0.00  0.00    +0.049 A 
ATOM     22  C   UNL     1       4.684  -6.276  23.356  0.00  0.00    +0.050 A 
ATOM     23  C   UNL     1       5.892  -5.792  23.845  0.00  0.00    +0.129 A 
ATOM     24  C   UNL     1       6.058  -5.749  25.241  0.00  0.00    +0.053 A 
BRANCH  19  26
ATOM     25  C   UNL     1       6.448  -5.774  28.255  0.00  0.00    +0.012 C 
ATOM     26  C   UNL     1       5.056  -5.920  27.624  0.00  0.00    +0.017 C 
ATOM     27  C   UNL     1       4.286  -4.603  27.890  0.00  0.00    +0.012 C 
ENDBRANCH  19  26
BRANCH  20  28
ATOM     28  O   UNL     1       3.191  -7.708  26.369  0.00  0.00    -0.506 OA
ATOM     29  H   UNL     1       2.290  -7.355  26.281  0.00  0.00    +0.292 HD
ENDBRANCH  20  28
ENDBRANCH  18  23
ENDBRANCH   1  18
TORSDOF 5
ENDMDL
MODEL 9
REMARK VINA RESULT:      -7.0      1.710      2.890
REMARK  Name = 
REMARK  9 active torsions:
REMARK  status: ('A' for Active; 'I' for Inactive)
REMARK    1  A    between atoms: C_1  and  C_2
REMARK    2  A    between atoms: C_2  and  C_3
REMARK    3  A    between atoms: C_2  and  C_4
REMARK    4  A    between atoms: C_6  and  O_7
REMARK    5  A    between atoms: O_7  and  C_8
REMARK    6  A    between atoms: C_9  and  C_10
REMARK    7  A    between atoms: C_12  and  N_16
REMARK    8  A    between atoms: C_14  and  C_15
REMARK    9  A    between atoms: C_26  and  O_27
REMARK                            x       y       z     vdW  Elec       q    Type
REMARK                         _______ _______ _______ _____ _____    ______ ____
ROOT
ATOM      1  C   UNL     1       8.866  -1.391  24.281  0.00  0.00    +0.134 A 
ATOM      2  C   UNL     1       8.277  -0.572  25.279  0.00  0.00    -0.006 A 
ATOM      3  C   UNL     1       7.801  -1.148  26.590  0.00  0.00    +0.047 C 
ATOM      4  C   UNL     1       8.169   0.830  25.086  0.00  0.00    +0.035 A 
ATOM      5  C   UNL     1       8.626   1.445  23.912  0.00  0.00    +0.071 A 
ATOM      6  C   UNL     1       9.313   0.632  23.013  0.00  0.00    +0.035 A 
ATOM      7  C   UNL     1       9.521  -0.748  23.220  0.00  0.00    -0.006 A 
ATOM      8  C   UNL     1      10.507  -1.378  22.273  0.00  0.00    +0.047 C 
ENDROOT
BRANCH   5   9
ATOM      9  N   UNL     1       8.479   2.857  23.675  0.00  0.00    -0.182 N 
ATOM     10  C   UNL     1       7.701   3.373  22.616  0.00  0.00    +0.350 A 
ATOM     11  O   UNL     1       6.957   2.740  21.872  0.00  0.00    -0.245 OA
ATOM     12  N   UNL     1       7.770   4.720  22.411  0.00  0.00    -0.272 N 
ATOM     13  H   UNL     1       7.222   5.086  21.648  0.00  0.00    +0.174 HD
ATOM     14  C   UNL     1       8.480   5.576  23.186  0.00  0.00    +0.272 A 
ATOM     15  O   UNL     1       8.543   6.783  23.031  0.00  0.00    -0.266 OA
ATOM     16  C   UNL     1       9.209   4.935  24.320  0.00  0.00    +0.203 A 
ATOM     17  N   UNL     1       9.197   3.661  24.546  0.00  0.00    -0.165 NA
ENDBRANCH   5   9
BRANCH   1  18
ATOM     18  O   UNL     1       8.837  -2.756  24.522  0.00  0.00    -0.455 OA
BRANCH  18  23
ATOM     19  C   UNL     1       6.221  -5.358  24.400  0.00  0.00    +0.000 A 
ATOM     20  C   UNL     1       6.243  -5.674  23.036  0.00  0.00    +0.120 A 
ATOM     21  C   UNL     1       6.928  -4.871  22.134  0.00  0.00    +0.049 A 
ATOM     22  C   UNL     1       7.652  -3.770  22.597  0.00  0.00    +0.050 A 
ATOM     23  C   UNL     1       7.911  -3.616  23.954  0.00  0.00    +0.129 A 
ATOM     24  C   UNL     1       7.157  -4.396  24.851  0.00  0.00    +0.053 A 
BRANCH  19  26
ATOM     25  C   UNL     1       5.539  -6.006  26.802  0.00  0.00    +0.012 C 
ATOM     26  C   UNL     1       5.157  -5.976  25.315  0.00  0.00    +0.017 C 
ATOM     27  C   UNL     1       3.819  -5.208  25.195  0.00  0.00    +0.012 C 
ENDBRANCH  19  26
BRANCH  20  28
ATOM     28  O   UNL     1       5.551  -6.759  22.580  0.00  0.00    -0.506 OA
ATOM     29  H   UNL     1       4.667  -6.475  22.292  0.00  0.00    +0.292 HD
ENDBRANCH  20  28
ENDBRANCH  18  23
ENDBRANCH   1  18
TORSDOF 5
ENDMDL
