MODEL 1
REMARK VINA RESULT:      -5.4      0.000      0.000
REMARK  Name = 
REMARK  10 active torsions:
REMARK  status: ('A' for Active; 'I' for Inactive)
REMARK    1  A    between atoms: C_1  and  C_2
REMARK    2  A    between atoms: C_2  and  C_3
REMARK    3  A    between atoms: C_2  and  C_4
REMARK    4  A    between atoms: C_2  and  N_5
REMARK    5  A    between atoms: N_5  and  C_6
REMARK    6  A    between atoms: C_6  and  C_7
REMARK    7  A    between atoms: C_7  and  O_8
REMARK    8  A    between atoms: C_7  and  C_9
REMARK    9  A    between atoms: C_11  and  O_12
REMARK   10  A    between atoms: C_14  and  O_15
REMARK                            x       y       z     vdW  Elec       q    Type
REMARK                         _______ _______ _______ _____ _____    ______ ____
ROOT
ATOM      1  C   UNL     1       9.294  -4.673  25.176  0.00  0.00    +0.158 C 
ENDROOT
BRANCH   1   2
ATOM      2  C   UNL     1       8.241  -4.483  24.095  0.00  0.00    -0.011 A 
ATOM      3  C   UNL     1       7.765  -5.570  23.340  0.00  0.00    +0.051 A 
ATOM      4  C   UNL     1       6.722  -5.397  22.433  0.00  0.00    +0.121 A 
ATOM      5  C   UNL     1       6.143  -4.150  22.244  0.00  0.00    +0.090 A 
ATOM      6  C   UNL     1       6.626  -3.069  22.969  0.00  0.00    +0.121 A 
ATOM      7  C   UNL     1       7.666  -3.221  23.887  0.00  0.00    +0.051 A 
BRANCH   4   8
ATOM      8  O   UNL     1       6.282  -6.499  21.761  0.00  0.00    -0.507 OA
ATOM      9  H   UNL     1       6.217  -6.277  20.817  0.00  0.00    +0.292 HD
ENDBRANCH   4   8
BRANCH   6  10
ATOM     10  O   UNL     1       6.031  -1.858  22.766  0.00  0.00    -0.507 OA
ATOM     11  H   UNL     1       6.509  -1.186  23.280  0.00  0.00    +0.292 HD
ENDBRANCH   6  10
ENDBRANCH   1   2
BRANCH   1  12
ATOM     12  O   UNL     1       9.861  -5.984  25.085  0.00  0.00    -0.386 OA
ATOM     13  H   UNL     1       9.289  -6.586  25.587  0.00  0.00    +0.210 HD
ENDBRANCH   1  12
BRANCH   1  14
ATOM     14  C   UNL     1       8.670  -4.447  26.579  0.00  0.00    +0.117 C 
BRANCH  14  15
ATOM     15  N   UNL     1       7.977  -5.632  27.103  0.00  0.00    -0.309 NA
ATOM     16  H   UNL     1       8.132  -6.410  26.457  0.00  0.00    +0.123 HD
BRANCH  15  18
ATOM     17  C   UNL     1       6.105  -5.964  28.740  0.00  0.00    +0.027 C 
ATOM     18  C   UNL     1       6.532  -5.446  27.354  0.00  0.00    +0.011 C 
ATOM     19  C   UNL     1       6.253  -3.932  27.302  0.00  0.00    +0.027 C 
ATOM     20  C   UNL     1       5.690  -6.126  26.259  0.00  0.00    +0.027 C 
ENDBRANCH  15  18
ENDBRANCH  14  15
ENDBRANCH   1  14
TORSDOF 7
ENDMDL
MODEL 2
REMARK VINA RESULT:      -5.3      0.243      2.079
REMARK  Name = 
REMARK  10 active torsions:
REMARK  status: ('A' for Active; 'I' for Inactive)
REMARK    1  A    between atoms: C_1  and  C_2
REMARK    2  A    between atoms: C_2  and  C_3
REMARK    3  A    between atoms: C_2  and  C_4
REMARK    4  A    between atoms: C_2  and  N_5
REMARK    5  A    between atoms: N_5  and  C_6
REMARK    6  A    between atoms: C_6  and  C_7
REMARK    7  A    between atoms: C_7  and  O_8
REMARK    8  A    between atoms: C_7  and  C_9
REMARK    9  A    between atoms: C_11  and  O_12
REMARK   10  A    between atoms: C_14  and  O_15
REMARK                            x       y       z     vdW  Elec       q    Type
REMARK                         _______ _______ _______ _____ _____    ______ ____
ROOT
ATOM      1  C   UNL     1       9.170  -4.645  24.979  0.00  0.00    +0.158 C 
ENDROOT
BRANCH   1   2
ATOM      2  C   UNL     1       8.022  -4.425  24.006  0.00  0.00    -0.011 A 
ATOM      3  C   UNL     1       7.464  -3.148  23.812  0.00  0.00    +0.051 A 
ATOM      4  C   UNL     1       6.491  -2.945  22.836  0.00  0.00    +0.121 A 
ATOM      5  C   UNL     1       6.040  -3.995  22.049  0.00  0.00    +0.090 A 
ATOM      6  C   UNL     1       6.570  -5.263  22.255  0.00  0.00    +0.121 A 
ATOM      7  C   UNL     1       7.550  -5.488  23.223  0.00  0.00    +0.051 A 
BRANCH   4   8
ATOM      8  O   UNL     1       6.020  -1.675  22.672  0.00  0.00    -0.507 OA
ATOM      9  H   UNL     1       6.359  -1.126  23.398  0.00  0.00    +0.292 HD
ENDBRANCH   4   8
BRANCH   6  10
ATOM     10  O   UNL     1       6.111  -6.273  21.462  0.00  0.00    -0.507 OA
ATOM     11  H   UNL     1       6.795  -6.961  21.406  0.00  0.00    +0.292 HD
ENDBRANCH   6  10
ENDBRANCH   1   2
BRANCH   1  12
ATOM     12  O   UNL     1       9.783  -5.915  24.739  0.00  0.00    -0.386 OA
ATOM     13  H   UNL     1       9.469  -6.234  23.878  0.00  0.00    +0.210 HD
ENDBRANCH   1  12
BRANCH   1  14
ATOM     14  C   UNL     1       8.659  -4.555  26.441  0.00  0.00    +0.117 C 
BRANCH  14  15
ATOM     15  N   UNL     1       7.941  -5.761  26.879  0.00  0.00    -0.309 NA
ATOM     16  H   UNL     1       8.001  -6.461  26.136  0.00  0.00    +0.123 HD
BRANCH  15  18
ATOM     17  C   UNL     1       6.217  -6.093  28.671  0.00  0.00    +0.027 C 
ATOM     18  C   UNL     1       6.533  -5.538  27.269  0.00  0.00    +0.011 C 
ATOM     19  C   UNL     1       6.304  -4.015  27.296  0.00  0.00    +0.027 C 
ATOM     20  C   UNL     1       5.570  -6.150  26.236  0.00  0.00    +0.027 C 
ENDBRANCH  15  18
ENDBRANCH  14  15
ENDBRANCH   1  14
TORSDOF 7
ENDMDL
MODEL 3
REMARK VINA RESULT:      -5.3      1.619      2.717
REMARK  Name = 
REMARK  10 active torsions:
REMARK  status: ('A' for Active; 'I' for Inactive)
REMARK    1  A    between atoms: C_1  and  C_2
REMARK    2  A    between atoms: C_2  and  C_3
REMARK    3  A    between atoms: C_2  and  C_4
REMARK    4  A    between atoms: C_2  and  N_5
REMARK    5  A    between atoms: N_5  and  C_6
REMARK    6  A    between atoms: C_6  and  C_7
REMARK    7  A    between atoms: C_7  and  O_8
REMARK    8  A    between atoms: C_7  and  C_9
REMARK    9  A    between atoms: C_11  and  O_12
REMARK   10  A    between atoms: C_14  and  O_15
REMARK                            x       y       z     vdW  Elec       q    Type
REMARK                         _______ _______ _______ _____ _____    ______ ____
ROOT
ATOM      1  C   UNL     1       9.717  -4.701  25.421  0.00  0.00    +0.158 C 
ENDROOT
BRANCH   1   2
ATOM      2  C   UNL     1       9.186  -3.782  24.332  0.00  0.00    -0.011 A 
ATOM      3  C   UNL     1       9.899  -2.638  23.931  0.00  0.00    +0.051 A 
ATOM      4  C   UNL     1       9.455  -1.870  22.857  0.00  0.00    +0.121 A 
ATOM      5  C   UNL     1       8.296  -2.206  22.173  0.00  0.00    +0.090 A 
ATOM      6  C   UNL     1       7.575  -3.320  22.582  0.00  0.00    +0.121 A 
ATOM      7  C   UNL     1       8.005  -4.107  23.651  0.00  0.00    +0.051 A 
BRANCH   4   8
ATOM      8  O   UNL     1      10.214  -0.796  22.494  0.00  0.00    -0.507 OA
ATOM      9  H   UNL     1       9.625  -0.034  22.365  0.00  0.00    +0.292 HD
ENDBRANCH   4   8
BRANCH   6  10
ATOM     10  O   UNL     1       6.443  -3.628  21.885  0.00  0.00    -0.507 OA
ATOM     11  H   UNL     1       6.697  -4.044  21.045  0.00  0.00    +0.292 HD
ENDBRANCH   6  10
ENDBRANCH   1   2
BRANCH   1  12
ATOM     12  O   UNL     1       9.719  -6.057  24.964  0.00  0.00    -0.386 OA
ATOM     13  H   UNL     1      10.005  -6.616  25.705  0.00  0.00    +0.210 HD
ENDBRANCH   1  12
BRANCH   1  14
ATOM     14  C   UNL     1       8.860  -4.562  26.707  0.00  0.00    +0.117 C 
BRANCH  14  15
ATOM     15  N   UNL     1       8.000  -5.727  26.959  0.00  0.00    -0.309 NA
ATOM     16  H   UNL     1       8.146  -6.405  26.208  0.00  0.00    +0.123 HD
BRANCH  15  18
ATOM     17  C   UNL     1       5.707  -6.051  25.997  0.00  0.00    +0.027 C 
ATOM     18  C   UNL     1       6.563  -5.417  27.109  0.00  0.00    +0.011 C 
ATOM     19  C   UNL     1       6.109  -6.008  28.457  0.00  0.00    +0.027 C 
ATOM     20  C   UNL     1       6.327  -3.896  27.148  0.00  0.00    +0.027 C 
ENDBRANCH  15  18
ENDBRANCH  14  15
ENDBRANCH   1  14
TORSDOF 7
ENDMDL
MODEL 4
REMARK VINA RESULT:      -5.2      3.609      5.232
REMARK  Name = 
REMARK  10 active torsions:
REMARK  status: ('A' for Active; 'I' for Inactive)
REMARK    1  A    between atoms: C_1  and  C_2
REMARK    2  A    between atoms: C_2  and  C_3
REMARK    3  A    between atoms: C_2  and  C_4
REMARK    4  A    between atoms: C_2  and  N_5
REMARK    5  A    between atoms: N_5  and  C_6
REMARK    6  A    between atoms: C_6  and  C_7
REMARK    7  A    between atoms: C_7  and  O_8
REMARK    8  A    between atoms: C_7  and  C_9
REMARK    9  A    between atoms: C_11  and  O_12
REMARK   10  A    between atoms: C_14  and  O_15
REMARK                            x       y       z     vdW  Elec       q    Type
REMARK                         _______ _______ _______ _____ _____    ______ ____
ROOT
ATOM      1  C   UNL     1       9.727  -1.828  23.918  0.00  0.00    +0.158 C 
ENDROOT
BRANCH   1   2
ATOM      2  C   UNL     1       9.213  -0.518  23.342  0.00  0.00    -0.011 A 
ATOM      3  C   UNL     1      10.084   0.405  22.735  0.00  0.00    +0.051 A 
ATOM      4  C   UNL     1       9.582   1.546  22.113  0.00  0.00    +0.121 A 
ATOM      5  C   UNL     1       8.219   1.805  22.093  0.00  0.00    +0.090 A 
ATOM      6  C   UNL     1       7.357   0.909  22.712  0.00  0.00    +0.121 A 
ATOM      7  C   UNL     1       7.838  -0.243  23.336  0.00  0.00    +0.051 A 
BRANCH   4   8
ATOM      8  O   UNL     1      10.477   2.380  21.510  0.00  0.00    -0.507 OA
ATOM      9  H   UNL     1      10.025   2.844  20.786  0.00  0.00    +0.292 HD
ENDBRANCH   4   8
BRANCH   6  10
ATOM     10  O   UNL     1       6.022   1.188  22.670  0.00  0.00    -0.507 OA
ATOM     11  H   UNL     1       5.574   0.491  22.162  0.00  0.00    +0.292 HD
ENDBRANCH   6  10
ENDBRANCH   1   2
BRANCH   1  12
ATOM     12  O   UNL     1      10.611  -2.462  22.988  0.00  0.00    -0.386 OA
ATOM     13  H   UNL     1      11.326  -2.876  23.498  0.00  0.00    +0.210 HD
ENDBRANCH   1  12
BRANCH   1  14
ATOM     14  C   UNL     1       8.541  -2.764  24.265  0.00  0.00    +0.117 C 
BRANCH  14  15
ATOM     15  N   UNL     1       8.546  -4.017  23.497  0.00  0.00    -0.309 NA
ATOM     16  H   UNL     1       9.218  -3.924  22.731  0.00  0.00    +0.123 HD
BRANCH  15  18
ATOM     17  C   UNL     1       7.278  -5.798  22.267  0.00  0.00    +0.027 C 
ATOM     18  C   UNL     1       7.226  -4.435  22.981  0.00  0.00    +0.011 C 
ATOM     19  C   UNL     1       6.285  -4.567  24.193  0.00  0.00    +0.027 C 
ATOM     20  C   UNL     1       6.641  -3.371  22.034  0.00  0.00    +0.027 C 
ENDBRANCH  15  18
ENDBRANCH  14  15
ENDBRANCH   1  14
TORSDOF 7
ENDMDL
MODEL 5
REMARK VINA RESULT:      -5.2      1.555      2.179
REMARK  Name = 
REMARK  10 active torsions:
REMARK  status: ('A' for Active; 'I' for Inactive)
REMARK    1  A    between atoms: C_1  and  C_2
REMARK    2  A    between atoms: C_2  and  C_3
REMARK    3  A    between atoms: C_2  and  C_4
REMARK    4  A    between atoms: C_2  and  N_5
REMARK    5  A    between atoms: N_5  and  C_6
REMARK    6  A    between atoms: C_6  and  C_7
REMARK    7  A    between atoms: C_7  and  O_8
REMARK    8  A    between atoms: C_7  and  C_9
REMARK    9  A    between atoms: C_11  and  O_12
REMARK   10  A    between atoms: C_14  and  O_15
REMARK                            x       y       z     vdW  Elec       q    Type
REMARK                         _______ _______ _______ _____ _____    ______ ____
ROOT
ATOM      1  C   UNL     1       9.698  -4.671  25.460  0.00  0.00    +0.158 C 
ENDROOT
BRANCH   1   2
ATOM      2  C   UNL     1       9.194  -3.839  24.291  0.00  0.00    -0.011 A 
ATOM      3  C   UNL     1       7.987  -4.151  23.640  0.00  0.00    +0.051 A 
ATOM      4  C   UNL     1       7.484  -3.314  22.646  0.00  0.00    +0.121 A 
ATOM      5  C   UNL     1       8.169  -2.168  22.267  0.00  0.00    +0.090 A 
ATOM      6  C   UNL     1       9.374  -1.870  22.890  0.00  0.00    +0.121 A 
ATOM      7  C   UNL     1       9.892  -2.691  23.891  0.00  0.00    +0.051 A 
BRANCH   4   8
ATOM      8  O   UNL     1       6.290  -3.653  22.082  0.00  0.00    -0.507 OA
ATOM      9  H   UNL     1       5.743  -4.088  22.758  0.00  0.00    +0.292 HD
ENDBRANCH   4   8
BRANCH   6  10
ATOM     10  O   UNL     1      10.019  -0.733  22.499  0.00  0.00    -0.507 OA
ATOM     11  H   UNL     1      10.912  -0.734  22.883  0.00  0.00    +0.292 HD
ENDBRANCH   6  10
ENDBRANCH   1   2
BRANCH   1  12
ATOM     12  O   UNL     1       9.725  -6.057  25.103  0.00  0.00    -0.386 OA
ATOM     13  H   UNL     1      10.290  -6.146  24.318  0.00  0.00    +0.210 HD
ENDBRANCH   1  12
BRANCH   1  14
ATOM     14  C   UNL     1       8.799  -4.448  26.704  0.00  0.00    +0.117 C 
BRANCH  14  15
ATOM     15  N   UNL     1       8.016  -5.635  27.074  0.00  0.00    -0.309 NA
ATOM     16  H   UNL     1       8.201  -6.372  26.389  0.00  0.00    +0.123 HD
BRANCH  15  18
ATOM     17  C   UNL     1       5.754  -6.073  26.080  0.00  0.00    +0.027 C 
ATOM     18  C   UNL     1       6.562  -5.403  27.207  0.00  0.00    +0.011 C 
ATOM     19  C   UNL     1       6.123  -6.028  28.545  0.00  0.00    +0.027 C 
ATOM     20  C   UNL     1       6.245  -3.898  27.255  0.00  0.00    +0.027 C 
ENDBRANCH  15  18
ENDBRANCH  14  15
ENDBRANCH   1  14
TORSDOF 7
ENDMDL
MODEL 6
REMARK VINA RESULT:      -5.2      3.531      5.189
REMARK  Name = 
REMARK  10 active torsions:
REMARK  status: ('A' for Active; 'I' for Inactive)
REMARK    1  A    between atoms: C_1  and  C_2
REMARK    2  A    between atoms: C_2  and  C_3
REMARK    3  A    between atoms: C_2  and  C_4
REMARK    4  A    between atoms: C_2  and  N_5
REMARK    5  A    between atoms: N_5  and  C_6
REMARK    6  A    between atoms: C_6  and  C_7
REMARK    7  A    between atoms: C_7  and  O_8
REMARK    8  A    between atoms: C_7  and  C_9
REMARK    9  A    between atoms: C_11  and  O_12
REMARK   10  A    between atoms: C_14  and  O_15
REMARK                            x       y       z     vdW  Elec       q    Type
REMARK                         _______ _______ _______ _____ _____    ______ ____
ROOT
ATOM      1  C   UNL     1       9.472  -1.936  23.865  0.00  0.00    +0.158 C 
ENDROOT
BRANCH   1   2
ATOM      2  C   UNL     1       9.015  -0.662  23.172  0.00  0.00    -0.011 A 
ATOM      3  C   UNL     1       7.660  -0.284  23.159  0.00  0.00    +0.051 A 
ATOM      4  C   UNL     1       7.274   0.940  22.618  0.00  0.00    +0.121 A 
ATOM      5  C   UNL     1       8.211   1.802  22.066  0.00  0.00    +0.090 A 
ATOM      6  C   UNL     1       9.547   1.422  22.054  0.00  0.00    +0.121 A 
ATOM      7  C   UNL     1       9.956   0.203  22.596  0.00  0.00    +0.051 A 
BRANCH   4   8
ATOM      8  O   UNL     1       5.950   1.264  22.672  0.00  0.00    -0.507 OA
ATOM      9  H   UNL     1       5.532   0.985  21.840  0.00  0.00    +0.292 HD
ENDBRANCH   4   8
BRANCH   6  10
ATOM     10  O   UNL     1      10.445   2.293  21.510  0.00  0.00    -0.507 OA
ATOM     11  H   UNL     1      10.963   1.827  20.834  0.00  0.00    +0.292 HD
ENDBRANCH   6  10
ENDBRANCH   1   2
BRANCH   1  12
ATOM     12  O   UNL     1      10.461  -2.601  23.073  0.00  0.00    -0.386 OA
ATOM     13  H   UNL     1      10.798  -1.960  22.427  0.00  0.00    +0.210 HD
ENDBRANCH   1  12
BRANCH   1  14
ATOM     14  C   UNL     1       8.262  -2.871  24.122  0.00  0.00    +0.117 C 
BRANCH  14  15
ATOM     15  N   UNL     1       8.311  -4.112  23.336  0.00  0.00    -0.309 NA
ATOM     16  H   UNL     1       8.920  -3.960  22.528  0.00  0.00    +0.123 HD
BRANCH  15  18
ATOM     17  C   UNL     1       6.137  -3.547  22.220  0.00  0.00    +0.027 C 
ATOM     18  C   UNL     1       6.995  -4.627  22.904  0.00  0.00    +0.011 C 
ATOM     19  C   UNL     1       7.258  -5.747  21.879  0.00  0.00    +0.027 C 
ATOM     20  C   UNL     1       6.223  -5.234  24.089  0.00  0.00    +0.027 C 
ENDBRANCH  15  18
ENDBRANCH  14  15
ENDBRANCH   1  14
TORSDOF 7
ENDMDL
MODEL 7
REMARK VINA RESULT:      -5.1      3.934      5.598
REMARK  Name = 
REMARK  10 active torsions:
REMARK  status: ('A' for Active; 'I' for Inactive)
REMARK    1  A    between atoms: C_1  and  C_2
REMARK    2  A    between atoms: C_2  and  C_3
REMARK    3  A    between atoms: C_2  and  C_4
REMARK    4  A    between atoms: C_2  and  N_5
REMARK    5  A    between atoms: N_5  and  C_6
REMARK    6  A    between atoms: C_6  and  C_7
REMARK    7  A    between atoms: C_7  and  O_8
REMARK    8  A    between atoms: C_7  and  C_9
REMARK    9  A    between atoms: C_11  and  O_12
REMARK   10  A    between atoms: C_14  and  O_15
REMARK                            x       y       z     vdW  Elec       q    Type
REMARK                         _______ _______ _______ _____ _____    ______ ____
ROOT
ATOM      1  C   UNL     1       9.913  -1.973  23.987  0.00  0.00    +0.158 C 
ENDROOT
BRANCH   1   2
ATOM      2  C   UNL     1       9.612  -0.488  23.854  0.00  0.00    -0.011 A 
ATOM      3  C   UNL     1       8.980   0.224  24.890  0.00  0.00    +0.051 A 
ATOM      4  C   UNL     1       8.814   1.604  24.797  0.00  0.00    +0.121 A 
ATOM      5  C   UNL     1       9.250   2.301  23.679  0.00  0.00    +0.090 A 
ATOM      6  C   UNL     1       9.851   1.598  22.643  0.00  0.00    +0.121 A 
ATOM      7  C   UNL     1      10.033   0.216  22.717  0.00  0.00    +0.051 A 
BRANCH   4   8
ATOM      8  O   UNL     1       8.230   2.240  25.853  0.00  0.00    -0.507 OA
ATOM      9  H   UNL     1       8.926   2.497  26.481  0.00  0.00    +0.292 HD
ENDBRANCH   4   8
BRANCH   6  10
ATOM     10  O   UNL     1      10.274   2.312  21.560  0.00  0.00    -0.507 OA
ATOM     11  H   UNL     1      10.224   1.744  20.774  0.00  0.00    +0.292 HD
ENDBRANCH   6  10
ENDBRANCH   1   2
BRANCH   1  12
ATOM     12  O   UNL     1      10.505  -2.466  22.782  0.00  0.00    -0.386 OA
ATOM     13  H   UNL     1      10.910  -3.324  22.984  0.00  0.00    +0.210 HD
ENDBRANCH   1  12
BRANCH   1  14
ATOM     14  C   UNL     1       8.615  -2.757  24.315  0.00  0.00    +0.117 C 
BRANCH  14  15
ATOM     15  N   UNL     1       8.578  -4.097  23.712  0.00  0.00    -0.309 NA
ATOM     16  H   UNL     1       9.349  -4.172  23.044  0.00  0.00    +0.123 HD
BRANCH  15  18
ATOM     17  C   UNL     1       7.387  -5.765  22.266  0.00  0.00    +0.027 C 
ATOM     18  C   UNL     1       7.297  -4.454  23.069  0.00  0.00    +0.011 C 
ATOM     19  C   UNL     1       6.264  -4.654  24.194  0.00  0.00    +0.027 C 
ATOM     20  C   UNL     1       6.800  -3.317  22.159  0.00  0.00    +0.027 C 
ENDBRANCH  15  18
ENDBRANCH  14  15
ENDBRANCH   1  14
TORSDOF 7
ENDMDL
MODEL 8
REMARK VINA RESULT:      -5.1      2.933      4.549
REMARK  Name = 
REMARK  10 active torsions:
REMARK  status: ('A' for Active; 'I' for Inactive)
REMARK    1  A    between atoms: C_1  and  C_2
REMARK    2  A    between atoms: C_2  and  C_3
REMARK    3  A    between atoms: C_2  and  C_4
REMARK    4  A    between atoms: C_2  and  N_5
REMARK    5  A    between atoms: N_5  and  C_6
REMARK    6  A    between atoms: C_6  and  C_7
REMARK    7  A    between atoms: C_7  and  O_8
REMARK    8  A    between atoms: C_7  and  C_9
REMARK    9  A    between atoms: C_11  and  O_12
REMARK   10  A    between atoms: C_14  and  O_15
REMARK                            x       y       z     vdW  Elec       q    Type
REMARK                         _______ _______ _______ _____ _____    ______ ____
ROOT
ATOM      1  C   UNL     1       8.978  -4.248  24.726  0.00  0.00    +0.158 C 
ENDROOT
BRANCH   1   2
ATOM      2  C   UNL     1       9.179  -2.825  24.230  0.00  0.00    -0.011 A 
ATOM      3  C   UNL     1       9.364  -1.758  25.128  0.00  0.00    +0.051 A 
ATOM      4  C   UNL     1       9.659  -0.481  24.656  0.00  0.00    +0.121 A 
ATOM      5  C   UNL     1       9.759  -0.230  23.295  0.00  0.00    +0.090 A 
ATOM      6  C   UNL     1       9.552  -1.276  22.404  0.00  0.00    +0.121 A 
ATOM      7  C   UNL     1       9.262  -2.564  22.855  0.00  0.00    +0.051 A 
BRANCH   4   8
ATOM      8  O   UNL     1       9.866   0.500  25.581  0.00  0.00    -0.507 OA
ATOM      9  H   UNL     1       9.016   0.936  25.761  0.00  0.00    +0.292 HD
ENDBRANCH   4   8
BRANCH   6  10
ATOM     10  O   UNL     1       9.663  -0.999  21.072  0.00  0.00    -0.507 OA
ATOM     11  H   UNL     1       9.086  -1.605  20.579  0.00  0.00    +0.292 HD
ENDBRANCH   6  10
ENDBRANCH   1   2
BRANCH   1  12
ATOM     12  O   UNL     1      10.240  -4.913  24.840  0.00  0.00    -0.386 OA
ATOM     13  H   UNL     1      10.109  -5.838  24.578  0.00  0.00    +0.210 HD
ENDBRANCH   1  12
BRANCH   1  14
ATOM     14  C   UNL     1       8.040  -5.024  23.766  0.00  0.00    +0.117 C 
BRANCH  14  15
ATOM     15  N   UNL     1       6.617  -4.714  23.968  0.00  0.00    -0.309 NA
ATOM     16  H   UNL     1       6.241  -5.363  24.664  0.00  0.00    +0.123 HD
BRANCH  15  18
ATOM     17  C   UNL     1       4.415  -5.378  22.967  0.00  0.00    +0.027 C 
ATOM     18  C   UNL     1       5.796  -4.735  22.740  0.00  0.00    +0.011 C 
ATOM     19  C   UNL     1       5.577  -3.271  22.315  0.00  0.00    +0.027 C 
ATOM     20  C   UNL     1       6.529  -5.461  21.598  0.00  0.00    +0.027 C 
ENDBRANCH  15  18
ENDBRANCH  14  15
ENDBRANCH   1  14
TORSDOF 7
ENDMDL
MODEL 9
REMARK VINA RESULT:      -5.0      3.944      5.700
REMARK  Name = 
REMARK  10 active torsions:
REMARK  status: ('A' for Active; 'I' for Inactive)
REMARK    1  A    between atoms: C_1  and  C_2
REMARK    2  A    between atoms: C_2  and  C_3
REMARK    3  A    between atoms: C_2  and  C_4
REMARK    4  A    between atoms: C_2  and  N_5
REMARK    5  A    between atoms: N_5  and  C_6
REMARK    6  A    between atoms: C_6  and  C_7
REMARK    7  A    between atoms: C_7  and  O_8
REMARK    8  A    between atoms: C_7  and  C_9
REMARK    9  A    between atoms: C_11  and  O_12
REMARK   10  A    between atoms: C_14  and  O_15
REMARK                            x       y       z     vdW  Elec       q    Type
REMARK                         _______ _______ _______ _____ _____    ______ ____
ROOT
ATOM      1  C   UNL     1       9.510  -1.996  23.666  0.00  0.00    +0.158 C 
ENDROOT
BRANCH   1   2
ATOM      2  C   UNL     1       9.500  -0.476  23.711  0.00  0.00    -0.011 A 
ATOM      3  C   UNL     1       9.990   0.290  22.637  0.00  0.00    +0.051 A 
ATOM      4  C   UNL     1       9.870   1.678  22.647  0.00  0.00    +0.121 A 
ATOM      5  C   UNL     1       9.282   2.334  23.719  0.00  0.00    +0.090 A 
ATOM      6  C   UNL     1       8.820   1.584  24.793  0.00  0.00    +0.121 A 
ATOM      7  C   UNL     1       8.924   0.193  24.801  0.00  0.00    +0.051 A 
BRANCH   4   8
ATOM      8  O   UNL     1      10.330   2.357  21.558  0.00  0.00    -0.507 OA
ATOM      9  H   UNL     1       9.673   3.033  21.318  0.00  0.00    +0.292 HD
ENDBRANCH   4   8
BRANCH   6  10
ATOM     10  O   UNL     1       8.241   2.258  25.829  0.00  0.00    -0.507 OA
ATOM     11  H   UNL     1       7.899   1.612  26.468  0.00  0.00    +0.292 HD
ENDBRANCH   6  10
ENDBRANCH   1   2
BRANCH   1  12
ATOM     12  O   UNL     1      10.650  -2.459  22.936  0.00  0.00    -0.386 OA
ATOM     13  H   UNL     1      10.462  -3.365  22.643  0.00  0.00    +0.210 HD
ENDBRANCH   1  12
BRANCH   1  14
ATOM     14  C   UNL     1       8.201  -2.523  23.023  0.00  0.00    +0.117 C 
BRANCH  14  15
ATOM     15  N   UNL     1       7.975  -3.956  23.257  0.00  0.00    -0.309 NA
ATOM     16  H   UNL     1       8.773  -4.474  22.881  0.00  0.00    +0.123 HD
BRANCH  15  18
ATOM     17  C   UNL     1       5.912  -3.415  21.937  0.00  0.00    +0.027 C 
ATOM     18  C   UNL     1       6.709  -4.483  22.708  0.00  0.00    +0.011 C 
ATOM     19  C   UNL     1       7.075  -5.609  21.722  0.00  0.00    +0.027 C 
ATOM     20  C   UNL     1       5.833  -5.087  23.821  0.00  0.00    +0.027 C 
ENDBRANCH  15  18
ENDBRANCH  14  15
ENDBRANCH   1  14
TORSDOF 7
ENDMDL
