MODEL 1
REMARK VINA RESULT:      -6.5      0.000      0.000
REMARK  Name = 
REMARK  5 active torsions:
REMARK  status: ('A' for Active; 'I' for Inactive)
REMARK    1  A    between atoms: C_1  and  C_2
REMARK    2  A    between atoms: C_2  and  C_3
REMARK    3  A    between atoms: C_4  and  C_5
REMARK    4  A    between atoms: C_11  and  C_12
REMARK    5  A    between atoms: C_12  and  N_13
REMARK                            x       y       z     vdW  Elec       q    Type
REMARK                         _______ _______ _______ _____ _____    ______ ____
ROOT
ATOM      1  C   UNL     1       9.337   0.886  23.505  0.00  0.00    -0.017 A 
ATOM      2  C   UNL     1       9.109  -0.398  24.102  0.00  0.00    +0.042 A 
ATOM      3  C   UNL     1       9.168  -1.744  23.538  0.00  0.00    +0.169 C 
ATOM      4  C   UNL     1       9.080  -2.930  24.521  0.00  0.00    +0.075 C 
ATOM      5  C   UNL     1       8.465  -2.585  25.910  0.00  0.00    +0.019 C 
ATOM      6  C   UNL     1       8.733  -1.199  26.500  0.00  0.00    +0.054 C 
ATOM      7  O   UNL     1       9.370  -1.905  22.336  0.00  0.00    -0.292 OA
ATOM      8  C   UNL     1       8.859  -0.182  25.435  0.00  0.00    +0.027 A 
ATOM      9  N   UNL     1       8.785   1.165  25.653  0.00  0.00    -0.361 N 
ATOM     10  H   UNL     1       8.588   1.609  26.540  0.00  0.00    +0.165 HD
ATOM     11  C   UNL     1       9.068   1.833  24.485  0.00  0.00    +0.017 A 
ATOM     12  C   UNL     1       9.072   3.319  24.443  0.00  0.00    +0.063 C 
ENDROOT
BRANCH   1  14
ATOM     13  C   UNL     1       8.687   1.410  21.127  0.00  0.00    +0.009 C 
ATOM     14  C   UNL     1       9.815   1.153  22.108  0.00  0.00    +0.034 C 
ENDBRANCH   1  14
BRANCH   4  15
ATOM     15  C   UNL     1       8.246  -4.111  23.945  0.00  0.00    +0.096 C 
BRANCH  15  16
ATOM     16  N   UNL     1       6.788  -4.078  24.106  0.00  0.00    -0.297 NA
ATOM     17  C   UNL     1       6.182  -5.426  24.031  0.00  0.00    +0.112 C 
ATOM     18  C   UNL     1       6.054  -5.980  22.600  0.00  0.00    +0.175 C 
ATOM     19  O   UNL     1       5.365  -5.068  21.735  0.00  0.00    -0.377 OA
ATOM     20  C   UNL     1       6.002  -3.783  21.735  0.00  0.00    +0.175 C 
ATOM     21  C   UNL     1       6.085  -3.201  23.154  0.00  0.00    +0.112 C 
ENDBRANCH  15  16
ENDBRANCH   4  15
TORSDOF 3
ENDMDL
MODEL 2
REMARK VINA RESULT:      -6.4      2.466      3.615
REMARK  Name = 
REMARK  5 active torsions:
REMARK  status: ('A' for Active; 'I' for Inactive)
REMARK    1  A    between atoms: C_1  and  C_2
REMARK    2  A    between atoms: C_2  and  C_3
REMARK    3  A    between atoms: C_4  and  C_5
REMARK    4  A    between atoms: C_11  and  C_12
REMARK    5  A    between atoms: C_12  and  N_13
REMARK                            x       y       z     vdW  Elec       q    Type
REMARK                         _______ _______ _______ _____ _____    ______ ____
ROOT
ATOM      1  C   UNL     1       7.030   1.753  23.189  0.00  0.00    -0.017 A 
ATOM      2  C   UNL     1       7.854   0.589  23.045  0.00  0.00    +0.042 A 
ATOM      3  C   UNL     1       7.810  -0.708  23.715  0.00  0.00    +0.169 C 
ATOM      4  C   UNL     1       8.720  -1.825  23.161  0.00  0.00    +0.075 C 
ATOM      5  C   UNL     1       9.909  -1.328  22.286  0.00  0.00    +0.019 C 
ATOM      6  C   UNL     1       9.698  -0.090  21.411  0.00  0.00    +0.054 C 
ATOM      7  O   UNL     1       7.010  -0.909  24.627  0.00  0.00    -0.292 OA
ATOM      8  C   UNL     1       8.754   0.855  22.042  0.00  0.00    +0.027 A 
ATOM      9  N   UNL     1       8.614   2.161  21.665  0.00  0.00    -0.361 N 
ATOM     10  H   UNL     1       9.165   2.634  20.961  0.00  0.00    +0.165 HD
ATOM     11  C   UNL     1       7.569   2.727  22.358  0.00  0.00    +0.017 A 
ATOM     12  C   UNL     1       7.187   4.145  22.129  0.00  0.00    +0.063 C 
ENDROOT
BRANCH   1  14
ATOM     13  C   UNL     1       6.075   2.456  25.413  0.00  0.00    +0.009 C 
ATOM     14  C   UNL     1       5.798   1.881  24.036  0.00  0.00    +0.034 C 
ENDBRANCH   1  14
BRANCH   4  15
ATOM     15  C   UNL     1       9.334  -2.700  24.293  0.00  0.00    +0.096 C 
BRANCH  15  16
ATOM     16  N   UNL     1       9.208  -4.158  24.191  0.00  0.00    -0.297 NA
ATOM     17  C   UNL     1       7.838  -4.581  23.825  0.00  0.00    +0.112 C 
ATOM     18  C   UNL     1       6.831  -4.533  24.989  0.00  0.00    +0.175 C 
ATOM     19  O   UNL     1       7.299  -5.265  26.129  0.00  0.00    -0.377 OA
ATOM     20  C   UNL     1       8.589  -4.798  26.543  0.00  0.00    +0.175 C 
ATOM     21  C   UNL     1       9.612  -4.895  25.402  0.00  0.00    +0.112 C 
ENDBRANCH  15  16
ENDBRANCH   4  15
TORSDOF 3
ENDMDL
MODEL 3
REMARK VINA RESULT:      -6.3      2.340      6.862
REMARK  Name = 
REMARK  5 active torsions:
REMARK  status: ('A' for Active; 'I' for Inactive)
REMARK    1  A    between atoms: C_1  and  C_2
REMARK    2  A    between atoms: C_2  and  C_3
REMARK    3  A    between atoms: C_4  and  C_5
REMARK    4  A    between atoms: C_11  and  C_12
REMARK    5  A    between atoms: C_12  and  N_13
REMARK                            x       y       z     vdW  Elec       q    Type
REMARK                         _______ _______ _______ _____ _____    ______ ____
ROOT
ATOM      1  C   UNL     1       5.268  -5.583  25.466  0.00  0.00    -0.017 A 
ATOM      2  C   UNL     1       5.991  -5.119  24.318  0.00  0.00    +0.042 A 
ATOM      3  C   UNL     1       6.927  -4.009  24.156  0.00  0.00    +0.169 C 
ATOM      4  C   UNL     1       7.698  -3.921  22.823  0.00  0.00    +0.075 C 
ATOM      5  C   UNL     1       7.060  -4.712  21.642  0.00  0.00    +0.019 C 
ATOM      6  C   UNL     1       6.338  -6.025  21.954  0.00  0.00    +0.054 C 
ATOM      7  O   UNL     1       7.143  -3.238  25.089  0.00  0.00    -0.292 OA
ATOM      8  C   UNL     1       5.705  -5.982  23.289  0.00  0.00    +0.027 A 
ATOM      9  N   UNL     1       4.746  -6.859  23.708  0.00  0.00    -0.361 N 
ATOM     10  H   UNL     1       4.330  -7.591  23.147  0.00  0.00    +0.165 HD
ATOM     11  C   UNL     1       4.462  -6.627  25.034  0.00  0.00    +0.017 A 
ATOM     12  C   UNL     1       3.457  -7.456  25.750  0.00  0.00    +0.063 C 
ENDROOT
BRANCH   1  14
ATOM     13  C   UNL     1       6.624  -5.584  27.592  0.00  0.00    +0.009 C 
ATOM     14  C   UNL     1       5.391  -5.070  26.872  0.00  0.00    +0.034 C 
ENDBRANCH   1  14
BRANCH   4  15
ATOM     15  C   UNL     1       7.867  -2.452  22.336  0.00  0.00    +0.096 C 
BRANCH  15  16
ATOM     16  N   UNL     1       9.225  -1.947  22.105  0.00  0.00    -0.297 NA
ATOM     17  C   UNL     1      10.075  -2.046  23.312  0.00  0.00    +0.112 C 
ATOM     18  C   UNL     1       9.804  -0.956  24.366  0.00  0.00    +0.175 C 
ATOM     19  O   UNL     1       9.877   0.360  23.802  0.00  0.00    -0.377 OA
ATOM     20  C   UNL     1       8.987   0.489  22.686  0.00  0.00    +0.175 C 
ATOM     21  C   UNL     1       9.288  -0.561  21.606  0.00  0.00    +0.112 C 
ENDBRANCH  15  16
ENDBRANCH   4  15
TORSDOF 3
ENDMDL
MODEL 4
REMARK VINA RESULT:      -5.9      2.184      3.721
REMARK  Name = 
REMARK  5 active torsions:
REMARK  status: ('A' for Active; 'I' for Inactive)
REMARK    1  A    between atoms: C_1  and  C_2
REMARK    2  A    between atoms: C_2  and  C_3
REMARK    3  A    between atoms: C_4  and  C_5
REMARK    4  A    between atoms: C_11  and  C_12
REMARK    5  A    between atoms: C_12  and  N_13
REMARK                            x       y       z     vdW  Elec       q    Type
REMARK                         _______ _______ _______ _____ _____    ______ ____
ROOT
ATOM      1  C   UNL     1       8.736   3.670  24.741  0.00  0.00    -0.017 A 
ATOM      2  C   UNL     1       8.984   2.329  24.301  0.00  0.00    +0.042 A 
ATOM      3  C   UNL     1       8.545   1.044  24.841  0.00  0.00    +0.169 C 
ATOM      4  C   UNL     1       8.816  -0.213  23.989  0.00  0.00    +0.075 C 
ATOM      5  C   UNL     1       9.926  -0.047  22.909  0.00  0.00    +0.019 C 
ATOM      6  C   UNL     1      10.077   1.314  22.226  0.00  0.00    +0.054 C 
ATOM      7  O   UNL     1       7.909   0.997  25.892  0.00  0.00    -0.292 OA
ATOM      8  C   UNL     1       9.721   2.415  23.145  0.00  0.00    +0.027 A 
ATOM      9  N   UNL     1      10.050   3.724  22.934  0.00  0.00    -0.361 N 
ATOM     10  H   UNL     1      10.609   4.075  22.167  0.00  0.00    +0.165 HD
ATOM     11  C   UNL     1       9.462   4.505  23.901  0.00  0.00    +0.017 A 
ATOM     12  C   UNL     1       9.646   5.980  23.899  0.00  0.00    +0.063 C 
ENDROOT
BRANCH   1  14
ATOM     13  C   UNL     1       6.384   4.254  25.436  0.00  0.00    +0.009 C 
ATOM     14  C   UNL     1       7.832   4.095  25.861  0.00  0.00    +0.034 C 
ENDBRANCH   1  14
BRANCH   4  15
ATOM     15  C   UNL     1       9.220  -1.439  24.859  0.00  0.00    +0.096 C 
BRANCH  15  16
ATOM     16  N   UNL     1       8.174  -2.391  25.249  0.00  0.00    -0.297 NA
ATOM     17  C   UNL     1       8.717  -3.553  25.987  0.00  0.00    +0.112 C 
ATOM     18  C   UNL     1       9.400  -4.605  25.093  0.00  0.00    +0.175 C 
ATOM     19  O   UNL     1       8.543  -5.037  24.028  0.00  0.00    -0.377 OA
ATOM     20  C   UNL     1       8.085  -3.921  23.254  0.00  0.00    +0.175 C 
ATOM     21  C   UNL     1       7.354  -2.894  24.132  0.00  0.00    +0.112 C 
ENDBRANCH  15  16
ENDBRANCH   4  15
TORSDOF 3
ENDMDL
MODEL 5
REMARK VINA RESULT:      -5.9      1.153      1.403
REMARK  Name = 
REMARK  5 active torsions:
REMARK  status: ('A' for Active; 'I' for Inactive)
REMARK    1  A    between atoms: C_1  and  C_2
REMARK    2  A    between atoms: C_2  and  C_3
REMARK    3  A    between atoms: C_4  and  C_5
REMARK    4  A    between atoms: C_11  and  C_12
REMARK    5  A    between atoms: C_12  and  N_13
REMARK                            x       y       z     vdW  Elec       q    Type
REMARK                         _______ _______ _______ _____ _____    ______ ____
ROOT
ATOM      1  C   UNL     1       9.334   1.352  24.334  0.00  0.00    -0.017 A 
ATOM      2  C   UNL     1       8.834   0.160  24.954  0.00  0.00    +0.042 A 
ATOM      3  C   UNL     1       9.107  -1.250  24.685  0.00  0.00    +0.169 C 
ATOM      4  C   UNL     1       8.561  -2.284  25.692  0.00  0.00    +0.075 C 
ATOM      5  C   UNL     1       7.398  -1.770  26.592  0.00  0.00    +0.019 C 
ATOM      6  C   UNL     1       7.407  -0.302  27.023  0.00  0.00    +0.054 C 
ATOM      7  O   UNL     1       9.821  -1.574  23.738  0.00  0.00    -0.292 OA
ATOM      8  C   UNL     1       8.018   0.555  25.986  0.00  0.00    +0.027 A 
ATOM      9  N   UNL     1       7.886   1.914  25.942  0.00  0.00    -0.361 N 
ATOM     10  H   UNL     1       7.324   2.472  26.571  0.00  0.00    +0.165 HD
ATOM     11  C   UNL     1       8.678   2.418  24.937  0.00  0.00    +0.017 A 
ATOM     12  C   UNL     1       8.735   3.881  24.678  0.00  0.00    +0.063 C 
ENDROOT
BRANCH   1  14
ATOM     13  C   UNL     1       9.830   1.453  21.865  0.00  0.00    +0.009 C 
ATOM     14  C   UNL     1      10.393   1.436  23.274  0.00  0.00    +0.034 C 
ENDBRANCH   1  14
BRANCH   4  15
ATOM     15  C   UNL     1       8.046  -3.574  24.990  0.00  0.00    +0.096 C 
BRANCH  15  16
ATOM     16  N   UNL     1       7.034  -3.436  23.936  0.00  0.00    -0.297 NA
ATOM     17  C   UNL     1       5.730  -4.017  24.329  0.00  0.00    +0.112 C 
ATOM     18  C   UNL     1       5.672  -5.553  24.242  0.00  0.00    +0.175 C 
ATOM     19  O   UNL     1       6.070  -6.029  22.949  0.00  0.00    -0.377 OA
ATOM     20  C   UNL     1       7.372  -5.541  22.602  0.00  0.00    +0.175 C 
ATOM     21  C   UNL     1       7.422  -4.006  22.634  0.00  0.00    +0.112 C 
ENDBRANCH  15  16
ENDBRANCH   4  15
TORSDOF 3
ENDMDL
MODEL 6
REMARK VINA RESULT:      -5.8      1.999      2.859
REMARK  Name = 
REMARK  5 active torsions:
REMARK  status: ('A' for Active; 'I' for Inactive)
REMARK    1  A    between atoms: C_1  and  C_2
REMARK    2  A    between atoms: C_2  and  C_3
REMARK    3  A    between atoms: C_4  and  C_5
REMARK    4  A    between atoms: C_11  and  C_12
REMARK    5  A    between atoms: C_12  and  N_13
REMARK                            x       y       z     vdW  Elec       q    Type
REMARK                         _______ _______ _______ _____ _____    ______ ____
ROOT
ATOM      1  C   UNL     1       7.940   2.921  22.942  0.00  0.00    -0.017 A 
ATOM      2  C   UNL     1       8.519   1.677  23.357  0.00  0.00    +0.042 A 
ATOM      3  C   UNL     1       8.079   0.299  23.156  0.00  0.00    +0.169 C 
ATOM      4  C   UNL     1       9.060  -0.824  23.551  0.00  0.00    +0.075 C 
ATOM      5  C   UNL     1      10.182  -0.395  24.543  0.00  0.00    +0.019 C 
ATOM      6  C   UNL     1      10.741   1.025  24.437  0.00  0.00    +0.054 C 
ATOM      7  O   UNL     1       7.001   0.064  22.612  0.00  0.00    -0.292 OA
ATOM      8  C   UNL     1       9.702   1.975  23.986  0.00  0.00    +0.027 A 
ATOM      9  N   UNL     1       9.808   3.332  24.099  0.00  0.00    -0.361 N 
ATOM     10  H   UNL     1      10.569   3.830  24.541  0.00  0.00    +0.165 HD
ATOM     11  C   UNL     1       8.738   3.927  23.472  0.00  0.00    +0.017 A 
ATOM     12  C   UNL     1       8.611   5.408  23.431  0.00  0.00    +0.063 C 
ENDROOT
BRANCH   1  14
ATOM     13  C   UNL     1       5.445   3.270  22.852  0.00  0.00    +0.009 C 
ATOM     14  C   UNL     1       6.733   3.103  22.068  0.00  0.00    +0.034 C 
ENDBRANCH   1  14
BRANCH   4  15
ATOM     15  C   UNL     1       8.335  -2.040  24.197  0.00  0.00    +0.096 C 
BRANCH  15  16
ATOM     16  N   UNL     1       8.511  -3.362  23.583  0.00  0.00    -0.297 NA
ATOM     17  C   UNL     1       7.402  -3.708  22.666  0.00  0.00    +0.112 C 
ATOM     18  C   UNL     1       6.114  -4.163  23.376  0.00  0.00    +0.175 C 
ATOM     19  O   UNL     1       6.362  -5.234  24.296  0.00  0.00    -0.377 OA
ATOM     20  C   UNL     1       7.373  -4.870  25.245  0.00  0.00    +0.175 C 
ATOM     21  C   UNL     1       8.679  -4.467  24.543  0.00  0.00    +0.112 C 
ENDBRANCH  15  16
ENDBRANCH   4  15
TORSDOF 3
ENDMDL
MODEL 7
REMARK VINA RESULT:      -5.8      1.886      2.054
REMARK  Name = 
REMARK  5 active torsions:
REMARK  status: ('A' for Active; 'I' for Inactive)
REMARK    1  A    between atoms: C_1  and  C_2
REMARK    2  A    between atoms: C_2  and  C_3
REMARK    3  A    between atoms: C_4  and  C_5
REMARK    4  A    between atoms: C_11  and  C_12
REMARK    5  A    between atoms: C_12  and  N_13
REMARK                            x       y       z     vdW  Elec       q    Type
REMARK                         _______ _______ _______ _____ _____    ______ ____
ROOT
ATOM      1  C   UNL     1       7.640   0.933  22.411  0.00  0.00    -0.017 A 
ATOM      2  C   UNL     1       7.286  -0.175  23.248  0.00  0.00    +0.042 A 
ATOM      3  C   UNL     1       7.850  -1.518  23.353  0.00  0.00    +0.169 C 
ATOM      4  C   UNL     1       7.367  -2.402  24.523  0.00  0.00    +0.075 C 
ATOM      5  C   UNL     1       6.013  -1.965  25.158  0.00  0.00    +0.019 C 
ATOM      6  C   UNL     1       5.690  -0.471  25.222  0.00  0.00    +0.054 C 
ATOM      7  O   UNL     1       8.739  -1.880  22.585  0.00  0.00    -0.292 OA
ATOM      8  C   UNL     1       6.273   0.252  24.072  0.00  0.00    +0.027 A 
ATOM      9  N   UNL     1       5.900   1.509  23.690  0.00  0.00    -0.361 N 
ATOM     10  H   UNL     1       5.161   2.057  24.109  0.00  0.00    +0.165 HD
ATOM     11  C   UNL     1       6.720   1.940  22.673  0.00  0.00    +0.017 A 
ATOM     12  C   UNL     1       6.541   3.290  22.077  0.00  0.00    +0.063 C 
ENDROOT
BRANCH   1  14
ATOM     13  C   UNL     1      10.048   1.611  22.096  0.00  0.00    +0.009 C 
ATOM     14  C   UNL     1       8.805   1.009  21.467  0.00  0.00    +0.034 C 
ENDBRANCH   1  14
BRANCH   4  15
ATOM     15  C   UNL     1       7.204  -3.892  24.106  0.00  0.00    +0.096 C 
BRANCH  15  16
ATOM     16  N   UNL     1       5.884  -4.349  23.656  0.00  0.00    -0.297 NA
ATOM     17  C   UNL     1       5.865  -5.796  23.345  0.00  0.00    +0.112 C 
ATOM     18  C   UNL     1       6.498  -6.158  21.990  0.00  0.00    +0.175 C 
ATOM     19  O   UNL     1       5.926  -5.402  20.915  0.00  0.00    -0.377 OA
ATOM     20  C   UNL     1       6.023  -3.995  21.170  0.00  0.00    +0.175 C 
ATOM     21  C   UNL     1       5.344  -3.619  22.495  0.00  0.00    +0.112 C 
ENDBRANCH  15  16
ENDBRANCH   4  15
TORSDOF 3
ENDMDL
MODEL 8
REMARK VINA RESULT:      -5.7      2.311      6.423
REMARK  Name = 
REMARK  5 active torsions:
REMARK  status: ('A' for Active; 'I' for Inactive)
REMARK    1  A    between atoms: C_1  and  C_2
REMARK    2  A    between atoms: C_2  and  C_3
REMARK    3  A    between atoms: C_4  and  C_5
REMARK    4  A    between atoms: C_11  and  C_12
REMARK    5  A    between atoms: C_12  and  N_13
REMARK                            x       y       z     vdW  Elec       q    Type
REMARK                         _______ _______ _______ _____ _____    ______ ____
ROOT
ATOM      1  C   UNL     1       8.239  -2.859  24.642  0.00  0.00    -0.017 A 
ATOM      2  C   UNL     1       8.840  -1.715  24.022  0.00  0.00    +0.042 A 
ATOM      3  C   UNL     1       9.450  -0.520  24.599  0.00  0.00    +0.169 C 
ATOM      4  C   UNL     1      10.203   0.426  23.640  0.00  0.00    +0.075 C 
ATOM      5  C   UNL     1       9.826   0.270  22.137  0.00  0.00    +0.019 C 
ATOM      6  C   UNL     1       9.473  -1.126  21.618  0.00  0.00    +0.054 C 
ATOM      7  O   UNL     1       9.431  -0.338  25.815  0.00  0.00    -0.292 OA
ATOM      8  C   UNL     1       8.819  -1.935  22.667  0.00  0.00    +0.027 A 
ATOM      9  N   UNL     1       8.118  -3.082  22.422  0.00  0.00    -0.361 N 
ATOM     10  H   UNL     1       7.926  -3.471  21.508  0.00  0.00    +0.165 HD
ATOM     11  C   UNL     1       7.751  -3.657  23.616  0.00  0.00    +0.017 A 
ATOM     12  C   UNL     1       6.986  -4.932  23.639  0.00  0.00    +0.063 C 
ENDROOT
BRANCH   1  14
ATOM     13  C   UNL     1       9.048  -4.345  26.512  0.00  0.00    +0.009 C 
ATOM     14  C   UNL     1       8.188  -3.160  26.112  0.00  0.00    +0.034 C 
ENDBRANCH   1  14
BRANCH   4  15
ATOM     15  C   UNL     1       9.986   1.925  24.000  0.00  0.00    +0.096 C 
BRANCH  15  16
ATOM     16  N   UNL     1       8.653   2.348  24.445  0.00  0.00    -0.297 NA
ATOM     17  C   UNL     1       7.644   2.259  23.366  0.00  0.00    +0.112 C 
ATOM     18  C   UNL     1       7.713   3.407  22.343  0.00  0.00    +0.175 C 
ATOM     19  O   UNL     1       7.662   4.691  22.978  0.00  0.00    -0.377 OA
ATOM     20  C   UNL     1       8.695   4.816  23.964  0.00  0.00    +0.175 C 
ATOM     21  C   UNL     1       8.598   3.704  25.019  0.00  0.00    +0.112 C 
ENDBRANCH  15  16
ENDBRANCH   4  15
TORSDOF 3
ENDMDL
MODEL 9
REMARK VINA RESULT:      -5.7      2.137      6.347
REMARK  Name = 
REMARK  5 active torsions:
REMARK  status: ('A' for Active; 'I' for Inactive)
REMARK    1  A    between atoms: C_1  and  C_2
REMARK    2  A    between atoms: C_2  and  C_3
REMARK    3  A    between atoms: C_4  and  C_5
REMARK    4  A    between atoms: C_11  and  C_12
REMARK    5  A    between atoms: C_12  and  N_13
REMARK                            x       y       z     vdW  Elec       q    Type
REMARK                         _______ _______ _______ _____ _____    ______ ____
ROOT
ATOM      1  C   UNL     1       6.669  -4.628  23.543  0.00  0.00    -0.017 A 
ATOM      2  C   UNL     1       6.843  -3.208  23.632  0.00  0.00    +0.042 A 
ATOM      3  C   UNL     1       7.678  -2.292  22.860  0.00  0.00    +0.169 C 
ATOM      4  C   UNL     1       7.460  -0.780  23.075  0.00  0.00    +0.075 C 
ATOM      5  C   UNL     1       6.742  -0.404  24.405  0.00  0.00    +0.019 C 
ATOM      6  C   UNL     1       5.673  -1.355  24.947  0.00  0.00    +0.054 C 
ATOM      7  O   UNL     1       8.456  -2.726  22.012  0.00  0.00    -0.292 OA
ATOM      8  C   UNL     1       5.984  -2.759  24.606  0.00  0.00    +0.027 A 
ATOM      9  N   UNL     1       5.402  -3.839  25.206  0.00  0.00    -0.361 N 
ATOM     10  H   UNL     1       4.743  -3.803  25.973  0.00  0.00    +0.165 HD
ATOM     11  C   UNL     1       5.812  -4.989  24.575  0.00  0.00    +0.017 A 
ATOM     12  C   UNL     1       5.314  -6.317  25.021  0.00  0.00    +0.063 C 
ENDROOT
BRANCH   1  14
ATOM     13  C   UNL     1       6.425  -5.642  21.248  0.00  0.00    +0.009 C 
ATOM     14  C   UNL     1       7.262  -5.542  22.510  0.00  0.00    +0.034 C 
ENDBRANCH   1  14
BRANCH   4  15
ATOM     15  C   UNL     1       8.797   0.017  23.050  0.00  0.00    +0.096 C 
BRANCH  15  16
ATOM     16  N   UNL     1       8.975   1.047  22.019  0.00  0.00    -0.297 NA
ATOM     17  C   UNL     1      10.193   1.858  22.238  0.00  0.00    +0.112 C 
ATOM     18  C   UNL     1      10.051   2.925  23.339  0.00  0.00    +0.175 C 
ATOM     19  O   UNL     1       8.914   3.769  23.119  0.00  0.00    -0.377 OA
ATOM     20  C   UNL     1       7.715   2.992  22.996  0.00  0.00    +0.175 C 
ATOM     21  C   UNL     1       7.831   1.962  21.863  0.00  0.00    +0.112 C 
ENDBRANCH  15  16
ENDBRANCH   4  15
TORSDOF 3
ENDMDL
