MODEL 1
REMARK VINA RESULT:      -7.3      0.000      0.000
REMARK  Name = 
REMARK  11 active torsions:
REMARK  status: ('A' for Active; 'I' for Inactive)
REMARK    1  A    between atoms: C_1  and  C_2
REMARK    2  A    between atoms: C_2  and  C_3
REMARK    3  A    between atoms: C_2  and  C_4
REMARK    4  A    between atoms: C_2  and  C_5
REMARK    5  A    between atoms: C_7  and  C_26
REMARK    6  A    between atoms: C_8  and  O_9
REMARK    7  A    between atoms: C_11  and  N_12
REMARK    8  A    between atoms: C_13  and  C_15
REMARK    9  A    between atoms: C_26  and  C_27
REMARK   10  A    between atoms: C_26  and  C_28
REMARK   11  A    between atoms: C_26  and  C_29
REMARK                            x       y       z     vdW  Elec       q    Type
REMARK                         _______ _______ _______ _____ _____    ______ ____
ROOT
ATOM      1  C   UNL     1       5.187  -4.989  25.681  0.00  0.00    -0.020 A 
ATOM      2  C   UNL     1       5.283  -4.259  24.482  0.00  0.00    +0.041 A 
ATOM      3  C   UNL     1       4.239  -4.391  23.547  0.00  0.00    +0.069 A 
ATOM      4  C   UNL     1       3.139  -5.241  23.728  0.00  0.00    +0.122 A 
ATOM      5  C   UNL     1       2.998  -6.010  24.879  0.00  0.00    -0.000 A 
ATOM      6  C   UNL     1       4.019  -5.816  25.833  0.00  0.00    +0.013 A 
ENDROOT
BRANCH   1   8
ATOM      7  C   UNL     1       5.657  -6.066  27.933  0.00  0.00    +0.015 C 
ATOM      8  C   UNL     1       6.129  -4.982  26.920  0.00  0.00    -0.011 C 
ATOM      9  C   UNL     1       7.630  -5.282  26.753  0.00  0.00    +0.015 C 
ATOM     10  C   UNL     1       6.083  -3.561  27.543  0.00  0.00    +0.015 C 
ENDBRANCH   1   8
BRANCH   2  11
ATOM     11  N   UNL     1       6.382  -3.410  24.180  0.00  0.00    -0.281 N 
ATOM     12  H   UNL     1       6.362  -2.470  24.551  0.00  0.00    +0.155 HD
ATOM     13  C   UNL     1       7.491  -3.710  23.409  0.00  0.00    +0.253 C 
ATOM     14  O   UNL     1       7.726  -4.781  22.857  0.00  0.00    -0.270 OA
BRANCH  13  15
ATOM     15  C   UNL     1       8.415  -2.565  23.159  0.00  0.00    +0.100 A 
ATOM     16  C   UNL     1       8.944  -1.636  24.191  0.00  0.00    +0.201 A 
ATOM     17  O   UNL     1       8.976  -1.945  25.380  0.00  0.00    -0.286 OA
ATOM     18  C   UNL     1       9.381  -0.294  23.740  0.00  0.00    +0.046 A 
ATOM     19  C   UNL     1       9.553  -0.077  22.360  0.00  0.00    +0.050 A 
ATOM     20  C   UNL     1       9.910   1.193  21.916  0.00  0.00    +0.026 A 
ATOM     21  C   UNL     1      10.048   2.242  22.828  0.00  0.00    +0.002 A 
ATOM     22  C   UNL     1       9.874   2.019  24.196  0.00  0.00    +0.001 A 
ATOM     23  N   UNL     1       9.404  -1.151  21.467  0.00  0.00    -0.360 N 
ATOM     24  H   UNL     1       9.334  -0.921  20.480  0.00  0.00    +0.165 HD
ATOM     25  C   UNL     1       9.552   0.744  24.660  0.00  0.00    +0.014 A 
ATOM     26  C   UNL     1       8.720  -2.268  21.883  0.00  0.00    +0.100 A 
ENDBRANCH  13  15
ENDBRANCH   2  11
BRANCH   5  27
ATOM     27  C   UNL     1       1.868  -7.034  25.132  0.00  0.00    -0.009 C 
ATOM     28  C   UNL     1       0.489  -6.378  24.881  0.00  0.00    +0.015 C 
ATOM     29  C   UNL     1       1.934  -7.609  26.564  0.00  0.00    +0.015 C 
ATOM     30  C   UNL     1       1.909  -8.266  24.184  0.00  0.00    +0.015 C 
ENDBRANCH   5  27
BRANCH   4  31
ATOM     31  O   UNL     1       2.268  -5.230  22.676  0.00  0.00    -0.506 OA
ATOM     32  H   UNL     1       2.739  -5.097  21.846  0.00  0.00    +0.292 HD
ENDBRANCH   4  31
TORSDOF 5
ENDMDL
MODEL 2
REMARK VINA RESULT:      -7.2      3.219      8.966
REMARK  Name = 
REMARK  11 active torsions:
REMARK  status: ('A' for Active; 'I' for Inactive)
REMARK    1  A    between atoms: C_1  and  C_2
REMARK    2  A    between atoms: C_2  and  C_3
REMARK    3  A    between atoms: C_2  and  C_4
REMARK    4  A    between atoms: C_2  and  C_5
REMARK    5  A    between atoms: C_7  and  C_26
REMARK    6  A    between atoms: C_8  and  O_9
REMARK    7  A    between atoms: C_11  and  N_12
REMARK    8  A    between atoms: C_13  and  C_15
REMARK    9  A    between atoms: C_26  and  C_27
REMARK   10  A    between atoms: C_26  and  C_28
REMARK   11  A    between atoms: C_26  and  C_29
REMARK                            x       y       z     vdW  Elec       q    Type
REMARK                         _______ _______ _______ _____ _____    ______ ____
ROOT
ATOM      1  C   UNL     1       8.447   2.259  23.389  0.00  0.00    -0.020 A 
ATOM      2  C   UNL     1       7.173   1.661  23.369  0.00  0.00    +0.041 A 
ATOM      3  C   UNL     1       6.054   2.503  23.225  0.00  0.00    +0.069 A 
ATOM      4  C   UNL     1       6.141   3.900  23.146  0.00  0.00    +0.122 A 
ATOM      5  C   UNL     1       7.368   4.555  23.188  0.00  0.00    -0.000 A 
ATOM      6  C   UNL     1       8.482   3.693  23.266  0.00  0.00    +0.013 A 
ENDROOT
BRANCH   1   8
ATOM      7  C   UNL     1      10.947   2.695  23.487  0.00  0.00    +0.015 C 
ATOM      8  C   UNL     1       9.851   1.590  23.451  0.00  0.00    -0.011 C 
ATOM      9  C   UNL     1      10.224   0.681  24.636  0.00  0.00    +0.015 C 
ATOM     10  C   UNL     1       9.998   0.681  22.201  0.00  0.00    +0.015 C 
ENDBRANCH   1   8
BRANCH   2  11
ATOM     11  N   UNL     1       6.975   0.259  23.494  0.00  0.00    -0.281 N 
ATOM     12  H   UNL     1       7.095  -0.305  22.663  0.00  0.00    +0.155 HD
ATOM     13  C   UNL     1       6.612  -0.442  24.630  0.00  0.00    +0.253 C 
ATOM     14  O   UNL     1       6.408   0.031  25.744  0.00  0.00    -0.270 OA
BRANCH  13  15
ATOM     15  C   UNL     1       6.347  -1.895  24.417  0.00  0.00    +0.100 A 
ATOM     16  C   UNL     1       7.255  -2.851  23.731  0.00  0.00    +0.201 A 
ATOM     17  O   UNL     1       8.457  -2.625  23.612  0.00  0.00    -0.286 OA
ATOM     18  C   UNL     1       6.646  -4.067  23.142  0.00  0.00    +0.046 A 
ATOM     19  C   UNL     1       5.329  -4.399  23.511  0.00  0.00    +0.050 A 
ATOM     20  C   UNL     1       4.723  -5.506  22.925  0.00  0.00    +0.026 A 
ATOM     21  C   UNL     1       5.402  -6.245  21.952  0.00  0.00    +0.002 A 
ATOM     22  C   UNL     1       6.709  -5.908  21.592  0.00  0.00    +0.001 A 
ATOM     23  N   UNL     1       4.671  -3.635  24.489  0.00  0.00    -0.360 N 
ATOM     24  H   UNL     1       3.669  -3.772  24.581  0.00  0.00    +0.165 HD
ATOM     25  C   UNL     1       7.343  -4.824  22.196  0.00  0.00    +0.014 A 
ATOM     26  C   UNL     1       5.143  -2.375  24.774  0.00  0.00    +0.100 A 
ENDBRANCH  13  15
ENDBRANCH   2  11
BRANCH   5  27
ATOM     27  C   UNL     1       7.558   6.089  23.190  0.00  0.00    -0.009 C 
ATOM     28  C   UNL     1       9.064   6.439  23.239  0.00  0.00    +0.015 C 
ATOM     29  C   UNL     1       6.816   6.750  24.373  0.00  0.00    +0.015 C 
ATOM     30  C   UNL     1       7.019   6.793  21.913  0.00  0.00    +0.015 C 
ENDBRANCH   5  27
BRANCH   4  31
ATOM     31  O   UNL     1       4.924   4.513  23.041  0.00  0.00    -0.506 OA
ATOM     32  H   UNL     1       4.483   4.540  23.897  0.00  0.00    +0.292 HD
ENDBRANCH   4  31
TORSDOF 5
ENDMDL
MODEL 3
REMARK VINA RESULT:      -7.2      2.965      9.042
REMARK  Name = 
REMARK  11 active torsions:
REMARK  status: ('A' for Active; 'I' for Inactive)
REMARK    1  A    between atoms: C_1  and  C_2
REMARK    2  A    between atoms: C_2  and  C_3
REMARK    3  A    between atoms: C_2  and  C_4
REMARK    4  A    between atoms: C_2  and  C_5
REMARK    5  A    between atoms: C_7  and  C_26
REMARK    6  A    between atoms: C_8  and  O_9
REMARK    7  A    between atoms: C_11  and  N_12
REMARK    8  A    between atoms: C_13  and  C_15
REMARK    9  A    between atoms: C_26  and  C_27
REMARK   10  A    between atoms: C_26  and  C_28
REMARK   11  A    between atoms: C_26  and  C_29
REMARK                            x       y       z     vdW  Elec       q    Type
REMARK                         _______ _______ _______ _____ _____    ______ ____
ROOT
ATOM      1  C   UNL     1       7.791   2.283  25.030  0.00  0.00    -0.020 A 
ATOM      2  C   UNL     1       8.668   1.433  24.332  0.00  0.00    +0.041 A 
ATOM      3  C   UNL     1       9.789   2.013  23.708  0.00  0.00    +0.069 A 
ATOM      4  C   UNL     1      10.050   3.391  23.709  0.00  0.00    +0.122 A 
ATOM      5  C   UNL     1       9.207   4.288  24.358  0.00  0.00    -0.000 A 
ATOM      6  C   UNL     1       8.126   3.683  25.032  0.00  0.00    +0.013 A 
ENDROOT
BRANCH   1   8
ATOM      7  C   UNL     1       5.612   3.176  25.981  0.00  0.00    +0.015 C 
ATOM      8  C   UNL     1       6.535   1.926  25.876  0.00  0.00    -0.011 C 
ATOM      9  C   UNL     1       5.576   0.817  25.408  0.00  0.00    +0.015 C 
ATOM     10  C   UNL     1       7.021   1.457  27.273  0.00  0.00    +0.015 C 
ENDBRANCH   1   8
BRANCH   2  11
ATOM     11  N   UNL     1       8.466   0.030  24.228  0.00  0.00    -0.281 N 
ATOM     12  H   UNL     1       7.995  -0.314  23.401  0.00  0.00    +0.155 HD
ATOM     13  C   UNL     1       8.823  -0.943  25.144  0.00  0.00    +0.253 C 
ATOM     14  O   UNL     1       9.396  -0.759  26.215  0.00  0.00    -0.270 OA
BRANCH  13  15
ATOM     15  C   UNL     1       8.355  -2.321  24.817  0.00  0.00    +0.100 A 
ATOM     16  C   UNL     1       8.228  -2.893  23.451  0.00  0.00    +0.201 A 
ATOM     17  O   UNL     1       8.847  -2.425  22.498  0.00  0.00    -0.286 OA
ATOM     18  C   UNL     1       7.280  -4.017  23.268  0.00  0.00    +0.046 A 
ATOM     19  C   UNL     1       6.787  -4.668  24.415  0.00  0.00    +0.050 A 
ATOM     20  C   UNL     1       5.854  -5.689  24.262  0.00  0.00    +0.026 A 
ATOM     21  C   UNL     1       5.384  -6.026  22.990  0.00  0.00    +0.002 A 
ATOM     22  C   UNL     1       5.878  -5.375  21.858  0.00  0.00    +0.001 A 
ATOM     23  N   UNL     1       7.277  -4.305  25.680  0.00  0.00    -0.360 N 
ATOM     24  H   UNL     1       6.761  -4.644  26.486  0.00  0.00    +0.165 HD
ATOM     25  C   UNL     1       6.840  -4.374  21.991  0.00  0.00    +0.014 A 
ATOM     26  C   UNL     1       7.903  -3.089  25.824  0.00  0.00    +0.100 A 
ENDBRANCH  13  15
ENDBRANCH   2  11
BRANCH   5  27
ATOM     27  C   UNL     1       9.366   5.826  24.345  0.00  0.00    -0.009 C 
ATOM     28  C   UNL     1       8.657   6.445  25.573  0.00  0.00    +0.015 C 
ATOM     29  C   UNL     1       8.814   6.442  23.040  0.00  0.00    +0.015 C 
ATOM     30  C   UNL     1      10.841   6.308  24.442  0.00  0.00    +0.015 C 
ENDBRANCH   5  27
BRANCH   4  31
ATOM     31  O   UNL     1      11.177   3.729  23.015  0.00  0.00    -0.506 OA
ATOM     32  H   UNL     1      11.282   3.162  22.242  0.00  0.00    +0.292 HD
ENDBRANCH   4  31
TORSDOF 5
ENDMDL
MODEL 4
REMARK VINA RESULT:      -7.1      2.961      8.880
REMARK  Name = 
REMARK  11 active torsions:
REMARK  status: ('A' for Active; 'I' for Inactive)
REMARK    1  A    between atoms: C_1  and  C_2
REMARK    2  A    between atoms: C_2  and  C_3
REMARK    3  A    between atoms: C_2  and  C_4
REMARK    4  A    between atoms: C_2  and  C_5
REMARK    5  A    between atoms: C_7  and  C_26
REMARK    6  A    between atoms: C_8  and  O_9
REMARK    7  A    between atoms: C_11  and  N_12
REMARK    8  A    between atoms: C_13  and  C_15
REMARK    9  A    between atoms: C_26  and  C_27
REMARK   10  A    between atoms: C_26  and  C_28
REMARK   11  A    between atoms: C_26  and  C_29
REMARK                            x       y       z     vdW  Elec       q    Type
REMARK                         _______ _______ _______ _____ _____    ______ ____
ROOT
ATOM      1  C   UNL     1       8.904   2.195  24.494  0.00  0.00    -0.020 A 
ATOM      2  C   UNL     1       7.830   1.413  24.958  0.00  0.00    +0.041 A 
ATOM      3  C   UNL     1       6.784   2.069  25.635  0.00  0.00    +0.069 A 
ATOM      4  C   UNL     1       6.780   3.444  25.908  0.00  0.00    +0.122 A 
ATOM      5  C   UNL     1       7.825   4.268  25.501  0.00  0.00    -0.000 A 
ATOM      6  C   UNL     1       8.832   3.606  24.767  0.00  0.00    +0.013 A 
ENDROOT
BRANCH   1   8
ATOM      7  C   UNL     1      11.012   0.778  24.481  0.00  0.00    +0.015 C 
ATOM      8  C   UNL     1      10.142   1.770  23.653  0.00  0.00    -0.011 C 
ATOM      9  C   UNL     1       9.953   1.041  22.311  0.00  0.00    +0.015 C 
ATOM     10  C   UNL     1      10.933   3.055  23.290  0.00  0.00    +0.015 C 
ENDBRANCH   1   8
BRANCH   2  11
ATOM     11  N   UNL     1       7.763   0.005  24.777  0.00  0.00    -0.281 N 
ATOM     12  H   UNL     1       7.403  -0.336  23.897  0.00  0.00    +0.155 HD
ATOM     13  C   UNL     1       8.120  -0.978  25.683  0.00  0.00    +0.253 C 
ATOM     14  O   UNL     1       8.574  -0.800  26.810  0.00  0.00    -0.270 OA
BRANCH  13  15
ATOM     15  C   UNL     1       7.808  -2.373  25.256  0.00  0.00    +0.100 A 
ATOM     16  C   UNL     1       8.089  -2.954  23.917  0.00  0.00    +0.201 A 
ATOM     17  O   UNL     1       8.934  -2.467  23.169  0.00  0.00    -0.286 OA
ATOM     18  C   UNL     1       7.268  -4.111  23.490  0.00  0.00    +0.046 A 
ATOM     19  C   UNL     1       6.495  -4.775  24.462  0.00  0.00    +0.050 A 
ATOM     20  C   UNL     1       5.677  -5.830  24.067  0.00  0.00    +0.026 A 
ATOM     21  C   UNL     1       5.594  -6.187  22.719  0.00  0.00    +0.002 A 
ATOM     22  C   UNL     1       6.363  -5.522  21.762  0.00  0.00    +0.001 A 
ATOM     23  N   UNL     1       6.598  -4.391  25.809  0.00  0.00    -0.360 N 
ATOM     24  H   UNL     1       5.888  -4.746  26.442  0.00  0.00    +0.165 HD
ATOM     25  C   UNL     1       7.216  -4.488  22.146  0.00  0.00    +0.014 A 
ATOM     26  C   UNL     1       7.118  -3.154  26.106  0.00  0.00    +0.100 A 
ENDBRANCH  13  15
ENDBRANCH   2  11
BRANCH   5  27
ATOM     27  C   UNL     1       7.949   5.774  25.826  0.00  0.00    -0.009 C 
ATOM     28  C   UNL     1       6.882   6.578  25.045  0.00  0.00    +0.015 C 
ATOM     29  C   UNL     1       9.363   6.309  25.507  0.00  0.00    +0.015 C 
ATOM     30  C   UNL     1       7.701   6.118  27.322  0.00  0.00    +0.015 C 
ENDBRANCH   5  27
BRANCH   4  31
ATOM     31  O   UNL     1       5.679   3.855  26.604  0.00  0.00    -0.506 OA
ATOM     32  H   UNL     1       4.901   3.354  26.334  0.00  0.00    +0.292 HD
ENDBRANCH   4  31
TORSDOF 5
ENDMDL
MODEL 5
REMARK VINA RESULT:      -7.0      2.074      8.386
REMARK  Name = 
REMARK  11 active torsions:
REMARK  status: ('A' for Active; 'I' for Inactive)
REMARK    1  A    between atoms: C_1  and  C_2
REMARK    2  A    between atoms: C_2  and  C_3
REMARK    3  A    between atoms: C_2  and  C_4
REMARK    4  A    between atoms: C_2  and  C_5
REMARK    5  A    between atoms: C_7  and  C_26
REMARK    6  A    between atoms: C_8  and  O_9
REMARK    7  A    between atoms: C_11  and  N_12
REMARK    8  A    between atoms: C_13  and  C_15
REMARK    9  A    between atoms: C_26  and  C_27
REMARK   10  A    between atoms: C_26  and  C_28
REMARK   11  A    between atoms: C_26  and  C_29
REMARK                            x       y       z     vdW  Elec       q    Type
REMARK                         _______ _______ _______ _____ _____    ______ ____
ROOT
ATOM      1  C   UNL     1       6.842  -1.571  24.636  0.00  0.00    -0.020 A 
ATOM      2  C   UNL     1       7.018  -2.681  23.788  0.00  0.00    +0.041 A 
ATOM      3  C   UNL     1       8.071  -2.634  22.855  0.00  0.00    +0.069 A 
ATOM      4  C   UNL     1       8.918  -1.528  22.697  0.00  0.00    +0.122 A 
ATOM      5  C   UNL     1       8.780  -0.390  23.484  0.00  0.00    -0.000 A 
ATOM      6  C   UNL     1       7.763  -0.479  24.458  0.00  0.00    +0.013 A 
ENDROOT
BRANCH   1   8
ATOM      7  C   UNL     1       5.575   0.150  26.008  0.00  0.00    +0.015 C 
ATOM      8  C   UNL     1       5.834  -1.373  25.804  0.00  0.00    -0.011 C 
ATOM      9  C   UNL     1       4.416  -1.965  25.713  0.00  0.00    +0.015 C 
ATOM     10  C   UNL     1       6.446  -2.021  27.075  0.00  0.00    +0.015 C 
ENDBRANCH   1   8
BRANCH   2  11
ATOM     11  N   UNL     1       6.182  -3.829  23.834  0.00  0.00    -0.281 N 
ATOM     12  H   UNL     1       5.388  -3.854  23.208  0.00  0.00    +0.155 HD
ATOM     13  C   UNL     1       6.311  -4.934  24.657  0.00  0.00    +0.253 C 
ATOM     14  O   UNL     1       7.191  -5.119  25.493  0.00  0.00    -0.270 OA
BRANCH  13  15
ATOM     15  C   UNL     1       5.197  -5.922  24.568  0.00  0.00    +0.100 A 
ATOM     16  C   UNL     1       4.261  -6.073  23.424  0.00  0.00    +0.201 A 
ATOM     17  O   UNL     1       4.546  -5.663  22.300  0.00  0.00    -0.286 OA
ATOM     18  C   UNL     1       2.941  -6.687  23.699  0.00  0.00    +0.046 A 
ATOM     19  C   UNL     1       2.757  -7.352  24.926  0.00  0.00    +0.050 A 
ATOM     20  C   UNL     1       1.507  -7.886  25.223  0.00  0.00    +0.026 A 
ATOM     21  C   UNL     1       0.443  -7.719  24.333  0.00  0.00    +0.002 A 
ATOM     22  C   UNL     1       0.634  -7.057  23.119  0.00  0.00    +0.001 A 
ATOM     23  N   UNL     1       3.846  -7.501  25.802  0.00  0.00    -0.360 N 
ATOM     24  H   UNL     1       3.634  -7.799  26.749  0.00  0.00    +0.165 HD
ATOM     25  C   UNL     1       1.889  -6.548  22.790  0.00  0.00    +0.014 A 
ATOM     26  C   UNL     1       4.935  -6.676  25.650  0.00  0.00    +0.100 A 
ENDBRANCH  13  15
ENDBRANCH   2  11
BRANCH   5  27
ATOM     27  C   UNL     1       9.609   0.906  23.329  0.00  0.00    -0.009 C 
ATOM     28  C   UNL     1      11.028   0.703  23.911  0.00  0.00    +0.015 C 
ATOM     29  C   UNL     1       8.917   2.107  24.011  0.00  0.00    +0.015 C 
ATOM     30  C   UNL     1       9.833   1.337  21.852  0.00  0.00    +0.015 C 
ENDBRANCH   5  27
BRANCH   4  31
ATOM     31  O   UNL     1       9.847  -1.695  21.709  0.00  0.00    -0.506 OA
ATOM     32  H   UNL     1       9.752  -2.561  21.297  0.00  0.00    +0.292 HD
ENDBRANCH   4  31
TORSDOF 5
ENDMDL
MODEL 6
REMARK VINA RESULT:      -6.9      2.946      4.761
REMARK  Name = 
REMARK  11 active torsions:
REMARK  status: ('A' for Active; 'I' for Inactive)
REMARK    1  A    between atoms: C_1  and  C_2
REMARK    2  A    between atoms: C_2  and  C_3
REMARK    3  A    between atoms: C_2  and  C_4
REMARK    4  A    between atoms: C_2  and  C_5
REMARK    5  A    between atoms: C_7  and  C_26
REMARK    6  A    between atoms: C_8  and  O_9
REMARK    7  A    between atoms: C_11  and  N_12
REMARK    8  A    between atoms: C_13  and  C_15
REMARK    9  A    between atoms: C_26  and  C_27
REMARK   10  A    between atoms: C_26  and  C_28
REMARK   11  A    between atoms: C_26  and  C_29
REMARK                            x       y       z     vdW  Elec       q    Type
REMARK                         _______ _______ _______ _____ _____    ______ ____
ROOT
ATOM      1  C   UNL     1       7.396  -1.867  24.480  0.00  0.00    -0.020 A 
ATOM      2  C   UNL     1       7.209  -1.121  23.301  0.00  0.00    +0.041 A 
ATOM      3  C   UNL     1       6.515  -1.733  22.240  0.00  0.00    +0.069 A 
ATOM      4  C   UNL     1       6.045  -3.053  22.280  0.00  0.00    +0.122 A 
ATOM      5  C   UNL     1       6.221  -3.852  23.405  0.00  0.00    -0.000 A 
ATOM      6  C   UNL     1       6.859  -3.203  24.483  0.00  0.00    +0.013 A 
ENDROOT
BRANCH   1   8
ATOM      7  C   UNL     1       8.536  -2.699  26.591  0.00  0.00    +0.015 C 
ATOM      8  C   UNL     1       8.039  -1.435  25.830  0.00  0.00    -0.011 C 
ATOM      9  C   UNL     1       9.268  -0.509  25.840  0.00  0.00    +0.015 C 
ATOM     10  C   UNL     1       6.964  -0.666  26.643  0.00  0.00    +0.015 C 
ENDBRANCH   1   8
BRANCH   2  11
ATOM     11  N   UNL     1       7.692   0.206  23.141  0.00  0.00    -0.281 N 
ATOM     12  H   UNL     1       8.591   0.325  22.695  0.00  0.00    +0.155 HD
ATOM     13  C   UNL     1       7.080   1.380  23.546  0.00  0.00    +0.253 C 
ATOM     14  O   UNL     1       5.994   1.477  24.109  0.00  0.00    -0.270 OA
BRANCH  13  15
ATOM     15  C   UNL     1       7.898   2.614  23.360  0.00  0.00    +0.100 A 
ATOM     16  C   UNL     1       9.314   2.658  22.911  0.00  0.00    +0.201 A 
ATOM     17  O   UNL     1       9.823   1.723  22.295  0.00  0.00    -0.286 OA
ATOM     18  C   UNL     1      10.111   3.849  23.285  0.00  0.00    +0.046 A 
ATOM     19  C   UNL     1       9.430   4.982  23.769  0.00  0.00    +0.050 A 
ATOM     20  C   UNL     1      10.169   6.089  24.177  0.00  0.00    +0.026 A 
ATOM     21  C   UNL     1      11.565   6.052  24.146  0.00  0.00    +0.002 A 
ATOM     22  C   UNL     1      12.232   4.923  23.665  0.00  0.00    +0.001 A 
ATOM     23  N   UNL     1       8.026   4.989  23.791  0.00  0.00    -0.360 N 
ATOM     24  H   UNL     1       7.579   5.726  24.327  0.00  0.00    +0.165 HD
ATOM     25  C   UNL     1      11.507   3.819  23.219  0.00  0.00    +0.014 A 
ATOM     26  C   UNL     1       7.357   3.789  23.727  0.00  0.00    +0.100 A 
ENDBRANCH  13  15
ENDBRANCH   2  11
BRANCH   5  27
ATOM     27  C   UNL     1       5.812  -5.339  23.513  0.00  0.00    -0.009 C 
ATOM     28  C   UNL     1       6.017  -5.844  24.961  0.00  0.00    +0.015 C 
ATOM     29  C   UNL     1       6.605  -6.219  22.521  0.00  0.00    +0.015 C 
ATOM     30  C   UNL     1       4.312  -5.604  23.199  0.00  0.00    +0.015 C 
ENDBRANCH   5  27
BRANCH   4  31
ATOM     31  O   UNL     1       5.430  -3.444  21.124  0.00  0.00    -0.506 OA
ATOM     32  H   UNL     1       4.838  -4.186  21.290  0.00  0.00    +0.292 HD
ENDBRANCH   4  31
TORSDOF 5
ENDMDL
MODEL 7
REMARK VINA RESULT:      -6.9      3.284      5.644
REMARK  Name = 
REMARK  11 active torsions:
REMARK  status: ('A' for Active; 'I' for Inactive)
REMARK    1  A    between atoms: C_1  and  C_2
REMARK    2  A    between atoms: C_2  and  C_3
REMARK    3  A    between atoms: C_2  and  C_4
REMARK    4  A    between atoms: C_2  and  C_5
REMARK    5  A    between atoms: C_7  and  C_26
REMARK    6  A    between atoms: C_8  and  O_9
REMARK    7  A    between atoms: C_11  and  N_12
REMARK    8  A    between atoms: C_13  and  C_15
REMARK    9  A    between atoms: C_26  and  C_27
REMARK   10  A    between atoms: C_26  and  C_28
REMARK   11  A    between atoms: C_26  and  C_29
REMARK                            x       y       z     vdW  Elec       q    Type
REMARK                         _______ _______ _______ _____ _____    ______ ____
ROOT
ATOM      1  C   UNL     1       7.934  -1.534  23.869  0.00  0.00    -0.020 A 
ATOM      2  C   UNL     1       6.949  -0.639  24.326  0.00  0.00    +0.041 A 
ATOM      3  C   UNL     1       5.685  -1.164  24.652  0.00  0.00    +0.069 A 
ATOM      4  C   UNL     1       5.345  -2.516  24.504  0.00  0.00    +0.122 A 
ATOM      5  C   UNL     1       6.265  -3.448  24.031  0.00  0.00    -0.000 A 
ATOM      6  C   UNL     1       7.546  -2.916  23.772  0.00  0.00    +0.013 A 
ENDROOT
BRANCH   1   8
ATOM      7  C   UNL     1       9.522  -0.715  22.063  0.00  0.00    +0.015 C 
ATOM      8  C   UNL     1       9.426  -1.264  23.518  0.00  0.00    -0.011 C 
ATOM      9  C   UNL     1      10.242  -0.246  24.335  0.00  0.00    +0.015 C 
ATOM     10  C   UNL     1      10.200  -2.600  23.675  0.00  0.00    +0.015 C 
ENDBRANCH   1   8
BRANCH   2  11
ATOM     11  N   UNL     1       7.176   0.758  24.462  0.00  0.00    -0.281 N 
ATOM     12  H   UNL     1       7.262   1.302  23.615  0.00  0.00    +0.155 HD
ATOM     13  C   UNL     1       7.317   1.477  25.636  0.00  0.00    +0.253 C 
ATOM     14  O   UNL     1       7.255   1.028  26.777  0.00  0.00    -0.270 OA
BRANCH  13  15
ATOM     15  C   UNL     1       7.684   2.912  25.456  0.00  0.00    +0.100 A 
ATOM     16  C   UNL     1       8.581   3.453  24.403  0.00  0.00    +0.201 A 
ATOM     17  O   UNL     1       8.801   2.833  23.364  0.00  0.00    -0.286 OA
ATOM     18  C   UNL     1       9.251   4.747  24.676  0.00  0.00    +0.046 A 
ATOM     19  C   UNL     1       8.785   5.525  25.752  0.00  0.00    +0.050 A 
ATOM     20  C   UNL     1       9.438   6.716  26.056  0.00  0.00    +0.026 A 
ATOM     21  C   UNL     1      10.566   7.103  25.327  0.00  0.00    +0.002 A 
ATOM     22  C   UNL     1      11.021   6.325  24.261  0.00  0.00    +0.001 A 
ATOM     23  N   UNL     1       7.651   5.107  26.468  0.00  0.00    -0.360 N 
ATOM     24  H   UNL     1       7.468   5.575  27.351  0.00  0.00    +0.165 HD
ATOM     25  C   UNL     1      10.357   5.147  23.921  0.00  0.00    +0.014 A 
ATOM     26  C   UNL     1       7.261   3.791  26.382  0.00  0.00    +0.100 A 
ENDBRANCH  13  15
ENDBRANCH   2  11
BRANCH   5  27
ATOM     27  C   UNL     1       5.961  -4.938  23.757  0.00  0.00    -0.009 C 
ATOM     28  C   UNL     1       5.750  -5.693  25.091  0.00  0.00    +0.015 C 
ATOM     29  C   UNL     1       7.087  -5.605  22.936  0.00  0.00    +0.015 C 
ATOM     30  C   UNL     1       4.656  -5.176  22.945  0.00  0.00    +0.015 C 
ENDBRANCH   5  27
BRANCH   4  31
ATOM     31  O   UNL     1       4.054  -2.792  24.853  0.00  0.00    -0.506 OA
ATOM     32  H   UNL     1       3.900  -2.576  25.779  0.00  0.00    +0.292 HD
ENDBRANCH   4  31
TORSDOF 5
ENDMDL
MODEL 8
REMARK VINA RESULT:      -6.8      2.079      3.052
REMARK  Name = 
REMARK  11 active torsions:
REMARK  status: ('A' for Active; 'I' for Inactive)
REMARK    1  A    between atoms: C_1  and  C_2
REMARK    2  A    between atoms: C_2  and  C_3
REMARK    3  A    between atoms: C_2  and  C_4
REMARK    4  A    between atoms: C_2  and  C_5
REMARK    5  A    between atoms: C_7  and  C_26
REMARK    6  A    between atoms: C_8  and  O_9
REMARK    7  A    between atoms: C_11  and  N_12
REMARK    8  A    between atoms: C_13  and  C_15
REMARK    9  A    between atoms: C_26  and  C_27
REMARK   10  A    between atoms: C_26  and  C_28
REMARK   11  A    between atoms: C_26  and  C_29
REMARK                            x       y       z     vdW  Elec       q    Type
REMARK                         _______ _______ _______ _____ _____    ______ ____
ROOT
ATOM      1  C   UNL     1       5.090  -4.748  25.503  0.00  0.00    -0.020 A 
ATOM      2  C   UNL     1       5.880  -3.885  26.284  0.00  0.00    +0.041 A 
ATOM      3  C   UNL     1       5.658  -3.868  27.674  0.00  0.00    +0.069 A 
ATOM      4  C   UNL     1       4.666  -4.628  28.310  0.00  0.00    +0.122 A 
ATOM      5  C   UNL     1       3.833  -5.480  27.591  0.00  0.00    -0.000 A 
ATOM      6  C   UNL     1       4.113  -5.534  26.209  0.00  0.00    +0.013 A 
ENDROOT
BRANCH   1   8
ATOM      7  C   UNL     1       4.831  -3.741  23.186  0.00  0.00    +0.015 C 
ATOM      8  C   UNL     1       5.162  -5.041  23.976  0.00  0.00    -0.011 C 
ATOM      9  C   UNL     1       6.480  -5.516  23.340  0.00  0.00    +0.015 C 
ATOM     10  C   UNL     1       4.147  -6.173  23.662  0.00  0.00    +0.015 C 
ENDBRANCH   1   8
BRANCH   2  11
ATOM     11  N   UNL     1       6.878  -3.036  25.731  0.00  0.00    -0.281 N 
ATOM     12  H   UNL     1       6.583  -2.132  25.387  0.00  0.00    +0.155 HD
ATOM     13  C   UNL     1       8.227  -3.306  25.584  0.00  0.00    +0.253 C 
ATOM     14  O   UNL     1       8.804  -4.335  25.924  0.00  0.00    -0.270 OA
BRANCH  13  15
ATOM     15  C   UNL     1       9.001  -2.270  24.841  0.00  0.00    +0.100 A 
ATOM     16  C   UNL     1       9.238  -0.874  25.293  0.00  0.00    +0.201 A 
ATOM     17  O   UNL     1       9.143  -0.556  26.477  0.00  0.00    -0.286 OA
ATOM     18  C   UNL     1       9.536   0.138  24.253  0.00  0.00    +0.046 A 
ATOM     19  C   UNL     1       9.870  -0.311  22.962  0.00  0.00    +0.050 A 
ATOM     20  C   UNL     1      10.099   0.627  21.960  0.00  0.00    +0.026 A 
ATOM     21  C   UNL     1       9.952   1.991  22.228  0.00  0.00    +0.002 A 
ATOM     22  C   UNL     1       9.619   2.428  23.512  0.00  0.00    +0.001 A 
ATOM     23  N   UNL     1      10.007  -1.688  22.722  0.00  0.00    -0.360 N 
ATOM     24  H   UNL     1      10.046  -1.983  21.751  0.00  0.00    +0.165 HD
ATOM     25  C   UNL     1       9.422   1.502  24.536  0.00  0.00    +0.014 A 
ATOM     26  C   UNL     1       9.439  -2.574  23.607  0.00  0.00    +0.100 A 
ENDBRANCH  13  15
ENDBRANCH   2  11
BRANCH   5  27
ATOM     27  C   UNL     1       2.662  -6.292  28.189  0.00  0.00    -0.009 C 
ATOM     28  C   UNL     1       1.566  -5.337  28.719  0.00  0.00    +0.015 C 
ATOM     29  C   UNL     1       3.142  -7.233  29.316  0.00  0.00    +0.015 C 
ATOM     30  C   UNL     1       1.939  -7.207  27.160  0.00  0.00    +0.015 C 
ENDBRANCH   5  27
BRANCH   4  31
ATOM     31  O   UNL     1       4.613  -4.428  29.660  0.00  0.00    -0.506 OA
ATOM     32  H   UNL     1       3.798  -4.791  30.025  0.00  0.00    +0.292 HD
ENDBRANCH   4  31
TORSDOF 5
ENDMDL
MODEL 9
REMARK VINA RESULT:      -6.8      2.785      8.857
REMARK  Name = 
REMARK  11 active torsions:
REMARK  status: ('A' for Active; 'I' for Inactive)
REMARK    1  A    between atoms: C_1  and  C_2
REMARK    2  A    between atoms: C_2  and  C_3
REMARK    3  A    between atoms: C_2  and  C_4
REMARK    4  A    between atoms: C_2  and  C_5
REMARK    5  A    between atoms: C_7  and  C_26
REMARK    6  A    between atoms: C_8  and  O_9
REMARK    7  A    between atoms: C_11  and  N_12
REMARK    8  A    between atoms: C_13  and  C_15
REMARK    9  A    between atoms: C_26  and  C_27
REMARK   10  A    between atoms: C_26  and  C_28
REMARK   11  A    between atoms: C_26  and  C_29
REMARK                            x       y       z     vdW  Elec       q    Type
REMARK                         _______ _______ _______ _____ _____    ______ ____
ROOT
ATOM      1  C   UNL     1       8.776   1.727  24.422  0.00  0.00    -0.020 A 
ATOM      2  C   UNL     1       7.688   1.040  24.993  0.00  0.00    +0.041 A 
ATOM      3  C   UNL     1       6.697   1.802  25.639  0.00  0.00    +0.069 A 
ATOM      4  C   UNL     1       6.760   3.195  25.783  0.00  0.00    +0.122 A 
ATOM      5  C   UNL     1       7.822   3.930  25.266  0.00  0.00    -0.000 A 
ATOM      6  C   UNL     1       8.773   3.159  24.564  0.00  0.00    +0.013 A 
ENDROOT
BRANCH   1   8
ATOM      7  C   UNL     1      11.071   0.645  24.544  0.00  0.00    +0.015 C 
ATOM      8  C   UNL     1       9.964   1.172  23.583  0.00  0.00    -0.011 C 
ATOM      9  C   UNL     1       9.745  -0.005  22.615  0.00  0.00    +0.015 C 
ATOM     10  C   UNL     1      10.490   2.323  22.685  0.00  0.00    +0.015 C 
ENDBRANCH   1   8
BRANCH   2  11
ATOM     11  N   UNL     1       7.557  -0.375  24.947  0.00  0.00    -0.281 N 
ATOM     12  H   UNL     1       6.989  -0.767  24.208  0.00  0.00    +0.155 HD
ATOM     13  C   UNL     1       8.106  -1.300  25.817  0.00  0.00    +0.253 C 
ATOM     14  O   UNL     1       8.821  -1.054  26.785  0.00  0.00    -0.270 OA
BRANCH  13  15
ATOM     15  C   UNL     1       7.677  -2.711  25.591  0.00  0.00    +0.100 A 
ATOM     16  C   UNL     1       7.341  -3.315  24.275  0.00  0.00    +0.201 A 
ATOM     17  O   UNL     1       7.742  -2.826  23.221  0.00  0.00    -0.286 OA
ATOM     18  C   UNL     1       6.451  -4.500  24.276  0.00  0.00    +0.046 A 
ATOM     19  C   UNL     1       6.221  -5.159  25.498  0.00  0.00    +0.050 A 
ATOM     20  C   UNL     1       5.345  -6.240  25.526  0.00  0.00    +0.026 A 
ATOM     21  C   UNL     1       4.673  -6.630  24.365  0.00  0.00    +0.002 A 
ATOM     22  C   UNL     1       4.907  -5.969  23.157  0.00  0.00    +0.001 A 
ATOM     23  N   UNL     1       6.908  -4.743  26.650  0.00  0.00    -0.360 N 
ATOM     24  H   UNL     1       6.572  -5.099  27.539  0.00  0.00    +0.165 HD
ATOM     25  C   UNL     1       5.809  -4.908  23.104  0.00  0.00    +0.014 A 
ATOM     26  C   UNL     1       7.469  -3.487  26.668  0.00  0.00    +0.100 A 
ENDBRANCH  13  15
ENDBRANCH   2  11
BRANCH   5  27
ATOM     27  C   UNL     1       8.020   5.453  25.444  0.00  0.00    -0.009 C 
ATOM     28  C   UNL     1       9.385   5.885  24.858  0.00  0.00    +0.015 C 
ATOM     29  C   UNL     1       7.919   5.868  26.928  0.00  0.00    +0.015 C 
ATOM     30  C   UNL     1       6.966   6.317  24.696  0.00  0.00    +0.015 C 
ENDBRANCH   5  27
BRANCH   4  31
ATOM     31  O   UNL     1       5.703   3.717  26.473  0.00  0.00    -0.506 OA
ATOM     32  H   UNL     1       5.661   3.344  27.361  0.00  0.00    +0.292 HD
ENDBRANCH   4  31
TORSDOF 5
ENDMDL
