MODEL 1
REMARK VINA RESULT:      -7.2      0.000      0.000
REMARK  Name = 
REMARK  6 active torsions:
REMARK  status: ('A' for Active; 'I' for Inactive)
REMARK    1  A    between atoms: N_1  and  S_2
REMARK    2  A    between atoms: S_2  and  C_5
REMARK    3  A    between atoms: C_9  and  N_10
REMARK    4  A    between atoms: C_13  and  O_14
REMARK    5  A    between atoms: O_14  and  C_15
REMARK    6  A    between atoms: C_15  and  C_16
REMARK                            x       y       z     vdW  Elec       q    Type
REMARK                         _______ _______ _______ _____ _____    ______ ____
ROOT
ATOM      1  N   UNL     1       6.040  -1.663  22.931  0.00  0.00    -0.283 N 
ATOM      2  H   UNL     1       5.348  -1.275  22.307  0.00  0.00    +0.155 HD
ATOM      3  C   UNL     1       7.019  -0.700  23.235  0.00  0.00    +0.225 A 
ATOM      4  N   UNL     1       8.012  -1.061  24.066  0.00  0.00    -0.195 NA
ATOM      5  C   UNL     1       9.011  -0.188  24.122  0.00  0.00    +0.167 A 
ATOM      6  C   UNL     1       9.081   1.039  23.508  0.00  0.00    +0.169 A 
ATOM      7  N   UNL     1      10.297   1.635  23.775  0.00  0.00    -0.229 NA
ATOM      8  C   UNL     1      10.952   0.762  24.514  0.00  0.00    +0.199 A 
ATOM      9  C   UNL     1       7.958   1.391  22.759  0.00  0.00    +0.248 A 
ATOM     10  N   UNL     1      10.206  -0.360  24.753  0.00  0.00    -0.329 N 
ATOM     11  H   UNL     1      10.487  -1.190  25.256  0.00  0.00    +0.168 HD
ATOM     12  N   UNL     1       6.928   0.503  22.616  0.00  0.00    -0.177 NA
ENDROOT
BRANCH   1  15
ATOM     13  C   UNL     1       5.574  -5.272  23.834  0.00  0.00    +0.107 A 
ATOM     14  C   UNL     1       5.508  -3.878  23.877  0.00  0.00    +0.051 A 
ATOM     15  C   UNL     1       6.157  -3.070  22.935  0.00  0.00    +0.035 A 
ATOM     16  C   UNL     1       6.865  -3.729  21.921  0.00  0.00    +0.023 A 
ATOM     17  C   UNL     1       6.939  -5.134  21.873  0.00  0.00    +0.004 A 
ATOM     18  C   UNL     1       6.287  -5.915  22.831  0.00  0.00    +0.028 A 
BRANCH  13  19
ATOM     19  S   UNL     1       4.686  -6.166  25.074  0.00  0.00    +0.056 S 
ATOM     20  O   UNL     1       5.599  -6.612  26.101  0.00  0.00    -0.153 OA
ATOM     21  O   UNL     1       3.459  -5.467  25.382  0.00  0.00    -0.153 OA
BRANCH  19  22
ATOM     22  N   UNL     1       4.239  -7.547  24.232  0.00  0.00    -0.204 NA
ATOM     23  H   UNL     1       4.424  -8.383  24.786  0.00  0.00    +0.144 HD
ATOM     24  H   UNL     1       3.273  -7.461  23.917  0.00  0.00    +0.144 HD
ENDBRANCH  19  22
ENDBRANCH  13  19
ENDBRANCH   1  15
BRANCH   9  25
ATOM     25  O   UNL     1       7.998   2.551  22.025  0.00  0.00    -0.475 OA
BRANCH  25  26
ATOM     26  C   UNL     1       6.851   3.386  22.150  0.00  0.00    +0.234 C 
BRANCH  26  27
ATOM     27  C   UNL     1       7.373   4.823  22.375  0.00  0.00    +0.027 C 
ATOM     28  C   UNL     1       8.460   4.890  23.455  0.00  0.00    +0.007 C 
ATOM     29  C   UNL     1       7.904   4.705  24.865  0.00  0.00    +0.000 C 
ATOM     30  C   UNL     1       6.777   5.691  25.159  0.00  0.00    +0.000 C 
ATOM     31  C   UNL     1       5.677   5.633  24.105  0.00  0.00    +0.000 C 
ATOM     32  C   UNL     1       6.240   5.818  22.697  0.00  0.00    +0.007 C 
ENDBRANCH  26  27
ENDBRANCH  25  26
ENDBRANCH   9  25
TORSDOF 6
ENDMDL
MODEL 2
REMARK VINA RESULT:      -7.1      3.269      8.226
REMARK  Name = 
REMARK  6 active torsions:
REMARK  status: ('A' for Active; 'I' for Inactive)
REMARK    1  A    between atoms: N_1  and  S_2
REMARK    2  A    between atoms: S_2  and  C_5
REMARK    3  A    between atoms: C_9  and  N_10
REMARK    4  A    between atoms: C_13  and  O_14
REMARK    5  A    between atoms: O_14  and  C_15
REMARK    6  A    between atoms: C_15  and  C_16
REMARK                            x       y       z     vdW  Elec       q    Type
REMARK                         _______ _______ _______ _____ _____    ______ ____
ROOT
ATOM      1  N   UNL     1       8.333  -1.897  21.945  0.00  0.00    -0.283 N 
ATOM      2  H   UNL     1       7.850  -2.124  21.088  0.00  0.00    +0.155 HD
ATOM      3  C   UNL     1       8.219  -2.954  22.865  0.00  0.00    +0.225 A 
ATOM      4  N   UNL     1       8.819  -2.808  24.059  0.00  0.00    -0.195 NA
ATOM      5  C   UNL     1       8.479  -3.734  24.949  0.00  0.00    +0.167 A 
ATOM      6  C   UNL     1       7.677  -4.831  24.746  0.00  0.00    +0.169 A 
ATOM      7  N   UNL     1       7.527  -5.536  25.923  0.00  0.00    -0.229 NA
ATOM      8  C   UNL     1       8.208  -4.851  26.820  0.00  0.00    +0.199 A 
ATOM      9  C   UNL     1       7.190  -4.974  23.447  0.00  0.00    +0.248 A 
ATOM     10  N   UNL     1       8.806  -3.749  26.272  0.00  0.00    -0.329 N 
ATOM     11  H   UNL     1       9.349  -3.043  26.747  0.00  0.00    +0.168 HD
ATOM     12  N   UNL     1       7.457  -4.017  22.507  0.00  0.00    -0.177 NA
ENDROOT
BRANCH   1  15
ATOM     13  C   UNL     1       7.854   1.593  23.227  0.00  0.00    +0.107 A 
ATOM     14  C   UNL     1       7.615   0.253  22.918  0.00  0.00    +0.051 A 
ATOM     15  C   UNL     1       8.535  -0.523  22.202  0.00  0.00    +0.035 A 
ATOM     16  C   UNL     1       9.730   0.104  21.824  0.00  0.00    +0.023 A 
ATOM     17  C   UNL     1       9.975   1.457  22.129  0.00  0.00    +0.004 A 
ATOM     18  C   UNL     1       9.036   2.208  22.840  0.00  0.00    +0.028 A 
BRANCH  13  19
ATOM     19  S   UNL     1       6.615   2.445  24.158  0.00  0.00    +0.056 S 
ATOM     20  O   UNL     1       7.006   2.508  25.547  0.00  0.00    -0.153 OA
ATOM     21  O   UNL     1       6.183   3.613  23.424  0.00  0.00    -0.153 OA
BRANCH  19  22
ATOM     22  N   UNL     1       5.341   1.353  24.093  0.00  0.00    -0.204 NA
ATOM     23  H   UNL     1       4.481   1.820  23.807  0.00  0.00    +0.144 HD
ATOM     24  H   UNL     1       5.599   0.558  23.508  0.00  0.00    +0.144 HD
ENDBRANCH  19  22
ENDBRANCH  13  19
ENDBRANCH   1  15
BRANCH   9  25
ATOM     25  O   UNL     1       6.292  -5.982  23.192  0.00  0.00    -0.475 OA
BRANCH  25  26
ATOM     26  C   UNL     1       5.026  -5.555  22.698  0.00  0.00    +0.234 C 
BRANCH  26  27
ATOM     27  C   UNL     1       4.151  -5.243  23.934  0.00  0.00    +0.027 C 
ATOM     28  C   UNL     1       4.143  -6.391  24.951  0.00  0.00    +0.007 C 
ATOM     29  C   UNL     1       3.324  -7.591  24.479  0.00  0.00    +0.000 C 
ATOM     30  C   UNL     1       1.903  -7.186  24.097  0.00  0.00    +0.000 C 
ATOM     31  C   UNL     1       1.886  -6.054  23.075  0.00  0.00    +0.000 C 
ATOM     32  C   UNL     1       2.708  -4.859  23.552  0.00  0.00    +0.007 C 
ENDBRANCH  26  27
ENDBRANCH  25  26
ENDBRANCH   9  25
TORSDOF 6
ENDMDL
MODEL 3
REMARK VINA RESULT:      -7.1      3.608      5.209
REMARK  Name = 
REMARK  6 active torsions:
REMARK  status: ('A' for Active; 'I' for Inactive)
REMARK    1  A    between atoms: N_1  and  S_2
REMARK    2  A    between atoms: S_2  and  C_5
REMARK    3  A    between atoms: C_9  and  N_10
REMARK    4  A    between atoms: C_13  and  O_14
REMARK    5  A    between atoms: O_14  and  C_15
REMARK    6  A    between atoms: C_15  and  C_16
REMARK                            x       y       z     vdW  Elec       q    Type
REMARK                         _______ _______ _______ _____ _____    ______ ____
ROOT
ATOM      1  N   UNL     1       4.436  -3.529  26.392  0.00  0.00    -0.283 N 
ATOM      2  H   UNL     1       4.017  -2.681  26.040  0.00  0.00    +0.155 HD
ATOM      3  C   UNL     1       5.809  -3.557  26.093  0.00  0.00    +0.225 A 
ATOM      4  N   UNL     1       6.516  -4.623  26.504  0.00  0.00    -0.195 NA
ATOM      5  C   UNL     1       7.739  -4.689  25.991  0.00  0.00    +0.167 A 
ATOM      6  C   UNL     1       8.357  -3.762  25.187  0.00  0.00    +0.169 A 
ATOM      7  N   UNL     1       9.613  -4.207  24.826  0.00  0.00    -0.229 NA
ATOM      8  C   UNL     1       9.729  -5.394  25.385  0.00  0.00    +0.199 A 
ATOM      9  C   UNL     1       7.598  -2.626  24.903  0.00  0.00    +0.248 A 
ATOM     10  N   UNL     1       8.615  -5.727  26.106  0.00  0.00    -0.329 N 
ATOM     11  H   UNL     1       8.435  -6.591  26.597  0.00  0.00    +0.168 HD
ATOM     12  N   UNL     1       6.310  -2.536  25.353  0.00  0.00    -0.177 NA
ENDROOT
BRANCH   1  15
ATOM     13  C   UNL     1       2.398  -6.625  25.830  0.00  0.00    +0.107 A 
ATOM     14  C   UNL     1       3.210  -5.515  25.593  0.00  0.00    +0.051 A 
ATOM     15  C   UNL     1       3.559  -4.616  26.608  0.00  0.00    +0.035 A 
ATOM     16  C   UNL     1       3.072  -4.893  27.892  0.00  0.00    +0.023 A 
ATOM     17  C   UNL     1       2.249  -6.010  28.137  0.00  0.00    +0.004 A 
ATOM     18  C   UNL     1       1.912  -6.887  27.104  0.00  0.00    +0.028 A 
BRANCH  13  19
ATOM     19  S   UNL     1       2.058  -7.690  24.460  0.00  0.00    +0.056 S 
ATOM     20  O   UNL     1       2.549  -9.019  24.741  0.00  0.00    -0.153 OA
ATOM     21  O   UNL     1       0.714  -7.448  23.987  0.00  0.00    -0.153 OA
BRANCH  19  22
ATOM     22  N   UNL     1       3.086  -7.064  23.290  0.00  0.00    -0.204 NA
ATOM     23  H   UNL     1       4.046  -7.032  23.633  0.00  0.00    +0.144 HD
ATOM     24  H   UNL     1       2.973  -7.583  22.419  0.00  0.00    +0.144 HD
ENDBRANCH  19  22
ENDBRANCH  13  19
ENDBRANCH   1  15
BRANCH   9  25
ATOM     25  O   UNL     1       8.102  -1.708  24.015  0.00  0.00    -0.475 OA
BRANCH  25  26
ATOM     26  C   UNL     1       8.733  -0.576  24.608  0.00  0.00    +0.234 C 
BRANCH  26  27
ATOM     27  C   UNL     1      10.134  -0.463  23.965  0.00  0.00    +0.027 C 
ATOM     28  C   UNL     1      10.841   0.849  24.325  0.00  0.00    +0.007 C 
ATOM     29  C   UNL     1      10.243   2.058  23.609  0.00  0.00    +0.000 C 
ATOM     30  C   UNL     1      10.204   1.853  22.097  0.00  0.00    +0.000 C 
ATOM     31  C   UNL     1       9.493   0.560  21.713  0.00  0.00    +0.000 C 
ATOM     32  C   UNL     1      10.095  -0.644  22.434  0.00  0.00    +0.007 C 
ENDBRANCH  26  27
ENDBRANCH  25  26
ENDBRANCH   9  25
TORSDOF 6
ENDMDL
MODEL 4
REMARK VINA RESULT:      -7.1      3.641      8.604
REMARK  Name = 
REMARK  6 active torsions:
REMARK  status: ('A' for Active; 'I' for Inactive)
REMARK    1  A    between atoms: N_1  and  S_2
REMARK    2  A    between atoms: S_2  and  C_5
REMARK    3  A    between atoms: C_9  and  N_10
REMARK    4  A    between atoms: C_13  and  O_14
REMARK    5  A    between atoms: O_14  and  C_15
REMARK    6  A    between atoms: C_15  and  C_16
REMARK                            x       y       z     vdW  Elec       q    Type
REMARK                         _______ _______ _______ _____ _____    ______ ____
ROOT
ATOM      1  N   UNL     1      10.530   1.625  22.822  0.00  0.00    -0.283 N 
ATOM      2  H   UNL     1      10.673   1.368  21.856  0.00  0.00    +0.155 HD
ATOM      3  C   UNL     1      10.194   0.492  23.584  0.00  0.00    +0.225 A 
ATOM      4  N   UNL     1       9.979   0.667  24.899  0.00  0.00    -0.195 NA
ATOM      5  C   UNL     1       9.447  -0.390  25.503  0.00  0.00    +0.167 A 
ATOM      6  C   UNL     1       9.191  -1.622  24.953  0.00  0.00    +0.169 A 
ATOM      7  N   UNL     1       8.597  -2.447  25.888  0.00  0.00    -0.229 NA
ATOM      8  C   UNL     1       8.476  -1.704  26.971  0.00  0.00    +0.199 A 
ATOM      9  C   UNL     1       9.553  -1.759  23.613  0.00  0.00    +0.248 A 
ATOM     10  N   UNL     1       8.983  -0.447  26.783  0.00  0.00    -0.329 N 
ATOM     11  H   UNL     1       8.979   0.322  27.437  0.00  0.00    +0.168 HD
ATOM     12  N   UNL     1      10.047  -0.685  22.926  0.00  0.00    -0.177 NA
ENDROOT
BRANCH   1  15
ATOM     13  C   UNL     1       8.579   4.776  23.384  0.00  0.00    +0.107 A 
ATOM     14  C   UNL     1       8.892   3.452  23.074  0.00  0.00    +0.051 A 
ATOM     15  C   UNL     1      10.210   2.978  23.067  0.00  0.00    +0.035 A 
ATOM     16  C   UNL     1      11.211   3.896  23.413  0.00  0.00    +0.023 A 
ATOM     17  C   UNL     1      10.902   5.234  23.724  0.00  0.00    +0.004 A 
ATOM     18  C   UNL     1       9.579   5.680  23.715  0.00  0.00    +0.028 A 
BRANCH  13  19
ATOM     19  S   UNL     1       6.869   5.229  23.376  0.00  0.00    +0.056 S 
ATOM     20  O   UNL     1       6.050   4.043  23.462  0.00  0.00    -0.153 OA
ATOM     21  O   UNL     1       6.672   6.368  24.244  0.00  0.00    -0.153 OA
BRANCH  19  22
ATOM     22  N   UNL     1       6.684   5.798  21.808  0.00  0.00    -0.204 NA
ATOM     23  H   UNL     1       6.025   6.575  21.782  0.00  0.00    +0.144 HD
ATOM     24  H   UNL     1       7.598   6.013  21.409  0.00  0.00    +0.144 HD
ENDBRANCH  19  22
ENDBRANCH  13  19
ENDBRANCH   1  15
BRANCH   9  25
ATOM     25  O   UNL     1       9.227  -2.924  22.963  0.00  0.00    -0.475 OA
BRANCH  25  26
ATOM     26  C   UNL     1       7.830  -3.175  22.835  0.00  0.00    +0.234 C 
BRANCH  26  27
ATOM     27  C   UNL     1       7.576  -4.576  23.437  0.00  0.00    +0.027 C 
ATOM     28  C   UNL     1       7.557  -5.678  22.371  0.00  0.00    +0.007 C 
ATOM     29  C   UNL     1       6.294  -5.647  21.513  0.00  0.00    +0.000 C 
ATOM     30  C   UNL     1       5.031  -5.689  22.369  0.00  0.00    +0.000 C 
ATOM     31  C   UNL     1       5.022  -4.592  23.429  0.00  0.00    +0.000 C 
ATOM     32  C   UNL     1       6.288  -4.629  24.282  0.00  0.00    +0.007 C 
ENDBRANCH  26  27
ENDBRANCH  25  26
ENDBRANCH   9  25
TORSDOF 6
ENDMDL
MODEL 5
REMARK VINA RESULT:      -7.0      3.460      7.872
REMARK  Name = 
REMARK  6 active torsions:
REMARK  status: ('A' for Active; 'I' for Inactive)
REMARK    1  A    between atoms: N_1  and  S_2
REMARK    2  A    between atoms: S_2  and  C_5
REMARK    3  A    between atoms: C_9  and  N_10
REMARK    4  A    between atoms: C_13  and  O_14
REMARK    5  A    between atoms: O_14  and  C_15
REMARK    6  A    between atoms: C_15  and  C_16
REMARK                            x       y       z     vdW  Elec       q    Type
REMARK                         _______ _______ _______ _____ _____    ______ ____
ROOT
ATOM      1  N   UNL     1       7.840   2.034  22.014  0.00  0.00    -0.283 N 
ATOM      2  H   UNL     1       7.889   1.686  21.067  0.00  0.00    +0.155 HD
ATOM      3  C   UNL     1       8.250   1.041  22.921  0.00  0.00    +0.225 A 
ATOM      4  N   UNL     1       8.249   1.352  24.228  0.00  0.00    -0.195 NA
ATOM      5  C   UNL     1       8.423   0.309  25.031  0.00  0.00    +0.167 A 
ATOM      6  C   UNL     1       8.684  -0.990  24.665  0.00  0.00    +0.169 A 
ATOM      7  N   UNL     1       8.761  -1.794  25.784  0.00  0.00    -0.229 NA
ATOM      8  C   UNL     1       8.522  -0.989  26.800  0.00  0.00    +0.199 A 
ATOM      9  C   UNL     1       8.787  -1.207  23.291  0.00  0.00    +0.248 A 
ATOM     10  N   UNL     1       8.314   0.299  26.389  0.00  0.00    -0.329 N 
ATOM     11  H   UNL     1       8.075   1.097  26.961  0.00  0.00    +0.168 HD
ATOM     12  N   UNL     1       8.555  -0.180  22.417  0.00  0.00    -0.177 NA
ENDROOT
BRANCH   1  15
ATOM     13  C   UNL     1       4.760   4.030  22.780  0.00  0.00    +0.107 A 
ATOM     14  C   UNL     1       5.602   2.954  22.495  0.00  0.00    +0.051 A 
ATOM     15  C   UNL     1       6.968   3.123  22.235  0.00  0.00    +0.035 A 
ATOM     16  C   UNL     1       7.464   4.432  22.295  0.00  0.00    +0.023 A 
ATOM     17  C   UNL     1       6.619   5.523  22.578  0.00  0.00    +0.004 A 
ATOM     18  C   UNL     1       5.259   5.325  22.827  0.00  0.00    +0.028 A 
BRANCH  13  19
ATOM     19  S   UNL     1       3.062   3.667  23.112  0.00  0.00    +0.056 S 
ATOM     20  O   UNL     1       2.972   2.671  24.155  0.00  0.00    -0.153 OA
ATOM     21  O   UNL     1       2.308   4.899  23.154  0.00  0.00    -0.153 OA
BRANCH  19  22
ATOM     22  N   UNL     1       2.606   2.886  21.698  0.00  0.00    -0.204 NA
ATOM     23  H   UNL     1       3.344   2.259  21.378  0.00  0.00    +0.144 HD
ATOM     24  H   UNL     1       1.702   2.433  21.831  0.00  0.00    +0.144 HD
ENDBRANCH  19  22
ENDBRANCH  13  19
ENDBRANCH   1  15
BRANCH   9  25
ATOM     25  O   UNL     1       8.935  -2.497  22.842  0.00  0.00    -0.475 OA
BRANCH  25  26
ATOM     26  C   UNL     1       7.737  -3.119  22.385  0.00  0.00    +0.234 C 
BRANCH  26  27
ATOM     27  C   UNL     1       7.491  -4.335  23.308  0.00  0.00    +0.027 C 
ATOM     28  C   UNL     1       7.450  -5.659  22.536  0.00  0.00    +0.007 C 
ATOM     29  C   UNL     1       6.171  -5.825  21.717  0.00  0.00    +0.000 C 
ATOM     30  C   UNL     1       4.924  -5.654  22.581  0.00  0.00    +0.000 C 
ATOM     31  C   UNL     1       4.937  -4.336  23.349  0.00  0.00    +0.000 C 
ATOM     32  C   UNL     1       6.219  -4.176  24.164  0.00  0.00    +0.007 C 
ENDBRANCH  26  27
ENDBRANCH  25  26
ENDBRANCH   9  25
TORSDOF 6
ENDMDL
MODEL 6
REMARK VINA RESULT:      -6.9      2.321      2.712
REMARK  Name = 
REMARK  6 active torsions:
REMARK  status: ('A' for Active; 'I' for Inactive)
REMARK    1  A    between atoms: N_1  and  S_2
REMARK    2  A    between atoms: S_2  and  C_5
REMARK    3  A    between atoms: C_9  and  N_10
REMARK    4  A    between atoms: C_13  and  O_14
REMARK    5  A    between atoms: O_14  and  C_15
REMARK    6  A    between atoms: C_15  and  C_16
REMARK                            x       y       z     vdW  Elec       q    Type
REMARK                         _______ _______ _______ _____ _____    ______ ____
ROOT
ATOM      1  N   UNL     1       5.479  -1.693  24.902  0.00  0.00    -0.283 N 
ATOM      2  H   UNL     1       4.692  -1.063  24.839  0.00  0.00    +0.155 HD
ATOM      3  C   UNL     1       6.596  -1.145  24.247  0.00  0.00    +0.225 A 
ATOM      4  N   UNL     1       7.733  -1.862  24.248  0.00  0.00    -0.195 NA
ATOM      5  C   UNL     1       8.665  -1.396  23.424  0.00  0.00    +0.167 A 
ATOM      6  C   UNL     1       8.612  -0.247  22.671  0.00  0.00    +0.169 A 
ATOM      7  N   UNL     1       9.758  -0.124  21.912  0.00  0.00    -0.229 NA
ATOM      8  C   UNL     1      10.469  -1.199  22.188  0.00  0.00    +0.199 A 
ATOM      9  C   UNL     1       7.446   0.503  22.818  0.00  0.00    +0.248 A 
ATOM     10  N   UNL     1       9.844  -1.998  23.106  0.00  0.00    -0.329 N 
ATOM     11  H   UNL     1      10.156  -2.892  23.456  0.00  0.00    +0.168 HD
ATOM     12  N   UNL     1       6.428   0.038  23.604  0.00  0.00    -0.177 NA
ENDROOT
BRANCH   1  15
ATOM     13  C   UNL     1       5.327  -5.083  26.493  0.00  0.00    +0.107 A 
ATOM     14  C   UNL     1       5.687  -3.760  26.230  0.00  0.00    +0.051 A 
ATOM     15  C   UNL     1       5.174  -3.051  25.137  0.00  0.00    +0.035 A 
ATOM     16  C   UNL     1       4.255  -3.726  24.322  0.00  0.00    +0.023 A 
ATOM     17  C   UNL     1       3.891  -5.062  24.580  0.00  0.00    +0.004 A 
ATOM     18  C   UNL     1       4.424  -5.747  25.674  0.00  0.00    +0.028 A 
BRANCH  13  19
ATOM     19  S   UNL     1       6.035  -5.848  27.923  0.00  0.00    +0.056 S 
ATOM     20  O   UNL     1       5.926  -4.958  29.055  0.00  0.00    -0.153 OA
ATOM     21  O   UNL     1       5.616  -7.229  27.983  0.00  0.00    -0.153 OA
BRANCH  19  22
ATOM     22  N   UNL     1       7.663  -5.869  27.516  0.00  0.00    -0.204 NA
ATOM     23  H   UNL     1       8.074  -6.779  27.724  0.00  0.00    +0.144 HD
ATOM     24  H   UNL     1       7.780  -5.570  26.548  0.00  0.00    +0.144 HD
ENDBRANCH  19  22
ENDBRANCH  13  19
ENDBRANCH   1  15
BRANCH   9  25
ATOM     25  O   UNL     1       7.271   1.604  22.015  0.00  0.00    -0.475 OA
BRANCH  25  26
ATOM     26  C   UNL     1       8.139   2.699  22.292  0.00  0.00    +0.234 C 
BRANCH  26  27
ATOM     27  C   UNL     1       7.396   3.608  23.298  0.00  0.00    +0.027 C 
ATOM     28  C   UNL     1       6.577   4.704  22.605  0.00  0.00    +0.007 C 
ATOM     29  C   UNL     1       7.451   5.808  22.014  0.00  0.00    +0.000 C 
ATOM     30  C   UNL     1       8.390   6.404  23.061  0.00  0.00    +0.000 C 
ATOM     31  C   UNL     1       9.225   5.332  23.754  0.00  0.00    +0.000 C 
ATOM     32  C   UNL     1       8.345   4.231  24.341  0.00  0.00    +0.007 C 
ENDBRANCH  26  27
ENDBRANCH  25  26
ENDBRANCH   9  25
TORSDOF 6
ENDMDL
MODEL 7
REMARK VINA RESULT:      -6.8      3.194      5.404
REMARK  Name = 
REMARK  6 active torsions:
REMARK  status: ('A' for Active; 'I' for Inactive)
REMARK    1  A    between atoms: N_1  and  S_2
REMARK    2  A    between atoms: S_2  and  C_5
REMARK    3  A    between atoms: C_9  and  N_10
REMARK    4  A    between atoms: C_13  and  O_14
REMARK    5  A    between atoms: O_14  and  C_15
REMARK    6  A    between atoms: C_15  and  C_16
REMARK                            x       y       z     vdW  Elec       q    Type
REMARK                         _______ _______ _______ _____ _____    ______ ____
ROOT
ATOM      1  N   UNL     1       7.306  -5.683  26.845  0.00  0.00    -0.283 N 
ATOM      2  H   UNL     1       8.102  -5.513  27.443  0.00  0.00    +0.155 HD
ATOM      3  C   UNL     1       7.498  -5.076  25.591  0.00  0.00    +0.225 A 
ATOM      4  N   UNL     1       6.526  -5.219  24.674  0.00  0.00    -0.195 NA
ATOM      5  C   UNL     1       6.669  -4.436  23.611  0.00  0.00    +0.167 A 
ATOM      6  C   UNL     1       7.720  -3.596  23.330  0.00  0.00    +0.169 A 
ATOM      7  N   UNL     1       7.486  -2.920  22.149  0.00  0.00    -0.229 NA
ATOM      8  C   UNL     1       6.299  -3.331  21.749  0.00  0.00    +0.199 A 
ATOM      9  C   UNL     1       8.746  -3.596  24.275  0.00  0.00    +0.248 A 
ATOM     10  N   UNL     1       5.767  -4.256  22.606  0.00  0.00    -0.329 N 
ATOM     11  H   UNL     1       4.860  -4.696  22.550  0.00  0.00    +0.168 HD
ATOM     12  N   UNL     1       8.621  -4.335  25.419  0.00  0.00    -0.177 NA
ENDROOT
BRANCH   1  15
ATOM     13  C   UNL     1       3.750  -6.705  27.446  0.00  0.00    +0.107 A 
ATOM     14  C   UNL     1       4.927  -6.330  26.795  0.00  0.00    +0.051 A 
ATOM     15  C   UNL     1       6.093  -5.997  27.495  0.00  0.00    +0.035 A 
ATOM     16  C   UNL     1       6.035  -6.079  28.893  0.00  0.00    +0.023 A 
ATOM     17  C   UNL     1       4.849  -6.453  29.556  0.00  0.00    +0.004 A 
ATOM     18  C   UNL     1       3.699  -6.773  28.832  0.00  0.00    +0.028 A 
BRANCH  13  19
ATOM     19  S   UNL     1       2.361  -7.122  26.435  0.00  0.00    +0.056 S 
ATOM     20  O   UNL     1       1.393  -7.858  27.215  0.00  0.00    -0.153 OA
ATOM     21  O   UNL     1       1.995  -5.980  25.628  0.00  0.00    -0.153 OA
BRANCH  19  22
ATOM     22  N   UNL     1       3.039  -8.241  25.383  0.00  0.00    -0.204 NA
ATOM     23  H   UNL     1       3.740  -7.797  24.789  0.00  0.00    +0.144 HD
ATOM     24  H   UNL     1       3.386  -9.042  25.909  0.00  0.00    +0.144 HD
ENDBRANCH  19  22
ENDBRANCH  13  19
ENDBRANCH   1  15
BRANCH   9  25
ATOM     25  O   UNL     1       9.776  -2.701  24.122  0.00  0.00    -0.475 OA
BRANCH  25  26
ATOM     26  C   UNL     1       9.426  -1.334  24.321  0.00  0.00    +0.234 C 
BRANCH  26  27
ATOM     27  C   UNL     1      10.446  -0.495  23.516  0.00  0.00    +0.027 C 
ATOM     28  C   UNL     1      10.856   0.788  24.248  0.00  0.00    +0.007 C 
ATOM     29  C   UNL     1       9.753   1.844  24.250  0.00  0.00    +0.000 C 
ATOM     30  C   UNL     1       9.265   2.151  22.837  0.00  0.00    +0.000 C 
ATOM     31  C   UNL     1       8.838   0.889  22.094  0.00  0.00    +0.000 C 
ATOM     32  C   UNL     1       9.945  -0.163  22.097  0.00  0.00    +0.007 C 
ENDBRANCH  26  27
ENDBRANCH  25  26
ENDBRANCH   9  25
TORSDOF 6
ENDMDL
MODEL 8
REMARK VINA RESULT:      -6.8      2.142      3.046
REMARK  Name = 
REMARK  6 active torsions:
REMARK  status: ('A' for Active; 'I' for Inactive)
REMARK    1  A    between atoms: N_1  and  S_2
REMARK    2  A    between atoms: S_2  and  C_5
REMARK    3  A    between atoms: C_9  and  N_10
REMARK    4  A    between atoms: C_13  and  O_14
REMARK    5  A    between atoms: O_14  and  C_15
REMARK    6  A    between atoms: C_15  and  C_16
REMARK                            x       y       z     vdW  Elec       q    Type
REMARK                         _______ _______ _______ _____ _____    ______ ____
ROOT
ATOM      1  N   UNL     1       7.978  -2.663  26.098  0.00  0.00    -0.283 N 
ATOM      2  H   UNL     1       7.879  -2.203  26.991  0.00  0.00    +0.155 HD
ATOM      3  C   UNL     1       8.585  -1.799  25.168  0.00  0.00    +0.225 A 
ATOM      4  N   UNL     1       8.795  -2.268  23.927  0.00  0.00    -0.195 NA
ATOM      5  C   UNL     1       9.154  -1.336  23.051  0.00  0.00    +0.167 A 
ATOM      6  C   UNL     1       9.406  -0.009  23.304  0.00  0.00    +0.169 A 
ATOM      7  N   UNL     1       9.713   0.649  22.130  0.00  0.00    -0.229 NA
ATOM      8  C   UNL     1       9.616  -0.269  21.189  0.00  0.00    +0.199 A 
ATOM      9  C   UNL     1       9.280   0.373  24.640  0.00  0.00    +0.248 A 
ATOM     10  N   UNL     1       9.282  -1.491  21.704  0.00  0.00    -0.329 N 
ATOM     11  H   UNL     1       9.109  -2.346  21.196  0.00  0.00    +0.168 HD
ATOM     12  N   UNL     1       8.853  -0.533  25.572  0.00  0.00    -0.177 NA
ENDROOT
BRANCH   1  15
ATOM     13  C   UNL     1       5.632  -5.029  24.381  0.00  0.00    +0.107 A 
ATOM     14  C   UNL     1       6.436  -3.917  24.638  0.00  0.00    +0.051 A 
ATOM     15  C   UNL     1       7.108  -3.748  25.854  0.00  0.00    +0.035 A 
ATOM     16  C   UNL     1       6.957  -4.766  26.806  0.00  0.00    +0.023 A 
ATOM     17  C   UNL     1       6.143  -5.888  26.554  0.00  0.00    +0.004 A 
ATOM     18  C   UNL     1       5.479  -6.027  25.333  0.00  0.00    +0.028 A 
BRANCH  13  19
ATOM     19  S   UNL     1       4.861  -5.123  22.791  0.00  0.00    +0.056 S 
ATOM     20  O   UNL     1       3.509  -5.611  22.933  0.00  0.00    -0.153 OA
ATOM     21  O   UNL     1       5.177  -3.933  22.035  0.00  0.00    -0.153 OA
BRANCH  19  22
ATOM     22  N   UNL     1       5.724  -6.375  22.078  0.00  0.00    -0.204 NA
ATOM     23  H   UNL     1       5.167  -7.228  22.055  0.00  0.00    +0.144 HD
ATOM     24  H   UNL     1       6.070  -6.078  21.166  0.00  0.00    +0.144 HD
ENDBRANCH  19  22
ENDBRANCH  13  19
ENDBRANCH   1  15
BRANCH   9  25
ATOM     25  O   UNL     1       9.406   1.704  24.955  0.00  0.00    -0.475 OA
BRANCH  25  26
ATOM     26  C   UNL     1       8.189   2.366  25.284  0.00  0.00    +0.234 C 
BRANCH  26  27
ATOM     27  C   UNL     1       8.350   3.836  24.834  0.00  0.00    +0.027 C 
ATOM     28  C   UNL     1       7.100   4.677  25.120  0.00  0.00    +0.007 C 
ATOM     29  C   UNL     1       5.942   4.353  24.179  0.00  0.00    +0.000 C 
ATOM     30  C   UNL     1       6.358   4.469  22.715  0.00  0.00    +0.000 C 
ATOM     31  C   UNL     1       7.592   3.629  22.404  0.00  0.00    +0.000 C 
ATOM     32  C   UNL     1       8.745   3.958  23.349  0.00  0.00    +0.007 C 
ENDBRANCH  26  27
ENDBRANCH  25  26
ENDBRANCH   9  25
TORSDOF 6
ENDMDL
MODEL 9
REMARK VINA RESULT:      -6.6      3.378      8.636
REMARK  Name = 
REMARK  6 active torsions:
REMARK  status: ('A' for Active; 'I' for Inactive)
REMARK    1  A    between atoms: N_1  and  S_2
REMARK    2  A    between atoms: S_2  and  C_5
REMARK    3  A    between atoms: C_9  and  N_10
REMARK    4  A    between atoms: C_13  and  O_14
REMARK    5  A    between atoms: O_14  and  C_15
REMARK    6  A    between atoms: C_15  and  C_16
REMARK                            x       y       z     vdW  Elec       q    Type
REMARK                         _______ _______ _______ _____ _____    ______ ____
ROOT
ATOM      1  N   UNL     1       5.754   1.591  23.562  0.00  0.00    -0.283 N 
ATOM      2  H   UNL     1       5.001   1.321  24.177  0.00  0.00    +0.155 HD
ATOM      3  C   UNL     1       6.638   0.514  23.369  0.00  0.00    +0.225 A 
ATOM      4  N   UNL     1       7.695   0.711  22.564  0.00  0.00    -0.195 NA
ATOM      5  C   UNL     1       8.598  -0.262  22.613  0.00  0.00    +0.167 A 
ATOM      6  C   UNL     1       8.515  -1.442  23.310  0.00  0.00    +0.169 A 
ATOM      7  N   UNL     1       9.670  -2.178  23.141  0.00  0.00    -0.229 NA
ATOM      8  C   UNL     1      10.442  -1.431  22.377  0.00  0.00    +0.199 A 
ATOM      9  C   UNL     1       7.332  -1.623  24.027  0.00  0.00    +0.248 A 
ATOM     10  N   UNL     1       9.829  -0.259  22.029  0.00  0.00    -0.329 N 
ATOM     11  H   UNL     1      10.216   0.499  21.485  0.00  0.00    +0.168 HD
ATOM     12  N   UNL     1       6.395  -0.627  24.062  0.00  0.00    -0.177 NA
ENDROOT
BRANCH   1  15
ATOM     13  C   UNL     1       7.526   4.892  23.684  0.00  0.00    +0.107 A 
ATOM     14  C   UNL     1       7.248   3.534  23.843  0.00  0.00    +0.051 A 
ATOM     15  C   UNL     1       6.020   2.975  23.469  0.00  0.00    +0.035 A 
ATOM     16  C   UNL     1       5.078   3.843  22.899  0.00  0.00    +0.023 A 
ATOM     17  C   UNL     1       5.351   5.216  22.740  0.00  0.00    +0.004 A 
ATOM     18  C   UNL     1       6.584   5.747  23.129  0.00  0.00    +0.028 A 
BRANCH  13  19
ATOM     19  S   UNL     1       9.128   5.456  24.178  0.00  0.00    +0.056 S 
ATOM     20  O   UNL     1      10.098   4.406  23.974  0.00  0.00    -0.153 OA
ATOM     21  O   UNL     1       9.332   6.802  23.693  0.00  0.00    -0.153 OA
BRANCH  19  22
ATOM     22  N   UNL     1       8.937   5.582  25.841  0.00  0.00    -0.204 NA
ATOM     23  H   UNL     1       9.275   4.740  26.307  0.00  0.00    +0.144 HD
ATOM     24  H   UNL     1       9.369   6.444  26.173  0.00  0.00    +0.144 HD
ENDBRANCH  19  22
ENDBRANCH  13  19
ENDBRANCH   1  15
BRANCH   9  25
ATOM     25  O   UNL     1       7.220  -2.726  24.838  0.00  0.00    -0.475 OA
BRANCH  25  26
ATOM     26  C   UNL     1       6.036  -3.496  24.653  0.00  0.00    +0.234 C 
BRANCH  26  27
ATOM     27  C   UNL     1       6.482  -4.972  24.536  0.00  0.00    +0.027 C 
ATOM     28  C   UNL     1       7.640  -5.158  23.548  0.00  0.00    +0.007 C 
ATOM     29  C   UNL     1       7.201  -5.012  22.092  0.00  0.00    +0.000 C 
ATOM     30  C   UNL     1       6.040  -5.945  21.759  0.00  0.00    +0.000 C 
ATOM     31  C   UNL     1       4.870  -5.767  22.721  0.00  0.00    +0.000 C 
ATOM     32  C   UNL     1       5.316  -5.913  24.175  0.00  0.00    +0.007 C 
ENDBRANCH  26  27
ENDBRANCH  25  26
ENDBRANCH   9  25
TORSDOF 6
ENDMDL
