MODEL 1
REMARK VINA RESULT:      -6.1      0.000      0.000
REMARK  Name = 
REMARK  12 active torsions:
REMARK  status: ('A' for Active; 'I' for Inactive)
REMARK    1  A    between atoms: C_1  and  C_2
REMARK    2  A    between atoms: N_4  and  C_5
REMARK    3  A    between atoms: C_7  and  O_9
REMARK    4  A    between atoms: C_11  and  O_12
REMARK    5  A    between atoms: C_11  and  C_24
REMARK    6  A    between atoms: C_14  and  C_16
REMARK    7  A    between atoms: C_16  and  O_18
REMARK    8  A    between atoms: C_16  and  C_19
REMARK    9  A    between atoms: C_19  and  O_21
REMARK   10  A    between atoms: C_19  and  C_22
REMARK   11  A    between atoms: C_22  and  O_23
REMARK   12  A    between atoms: C_24  and  O_25
REMARK                            x       y       z     vdW  Elec       q    Type
REMARK                         _______ _______ _______ _____ _____    ______ ____
ROOT
ATOM      1  C   UNL     1       7.340  -2.818  22.909  0.00  0.00    +0.133 C 
ATOM      2  C   UNL     1       8.788  -2.592  23.397  0.00  0.00    +0.176 C 
ATOM      3  O   UNL     1       9.047  -3.385  24.585  0.00  0.00    -0.332 OA
ATOM      4  C   UNL     1       8.131  -3.246  25.667  0.00  0.00    +0.270 C 
ATOM      5  C   UNL     1       6.655  -3.363  25.262  0.00  0.00    +0.110 C 
ATOM      6  C   UNL     1       6.351  -2.493  24.047  0.00  0.00    +0.143 C 
ENDROOT
BRANCH   1   9
ATOM      7  C   UNL     1       6.295  -5.947  21.001  0.00  0.00    +0.109 C 
ATOM      8  C   UNL     1       6.286  -4.500  21.405  0.00  0.00    +0.210 C 
ATOM      9  N   UNL     1       7.169  -4.196  22.418  0.00  0.00    -0.308 N 
ATOM     10  H   UNL     1       7.773  -4.927  22.781  0.00  0.00    +0.149 HD
ATOM     11  O   UNL     1       5.551  -3.670  20.881  0.00  0.00    -0.276 OA
ENDBRANCH   1   9
BRANCH   4  12
ATOM     12  O   UNL     1       8.364  -2.018  26.378  0.00  0.00    -0.356 OA
ATOM     13  H   UNL     1       9.301  -1.779  26.201  0.00  0.00    +0.213 HD
ENDBRANCH   4  12
BRANCH   4  14
ATOM     14  C   UNL     1       8.426  -4.382  26.694  0.00  0.00    +0.365 C 
ATOM     15  O   UNL     1       7.599  -4.900  27.431  0.00  0.00    -0.245 OA
BRANCH  14  16
ATOM     16  O   UNL     1       9.738  -4.743  26.685  0.00  0.00    -0.477 OA
ATOM     17  H   UNL     1      10.187  -4.178  26.009  0.00  0.00    +0.295 HD
ENDBRANCH  14  16
ENDBRANCH   4  14
BRANCH   6  18
ATOM     18  O   UNL     1       6.449  -1.124  24.457  0.00  0.00    -0.390 OA
ATOM     19  H   UNL     1       6.235  -0.581  23.663  0.00  0.00    +0.210 HD
ENDBRANCH   6  18
BRANCH   2  20
ATOM     20  C   UNL     1       9.283  -1.135  23.625  0.00  0.00    +0.176 C 
BRANCH  20  21
ATOM     21  O   UNL     1      10.278  -1.172  24.666  0.00  0.00    -0.387 OA
ATOM     22  H   UNL     1      10.173  -2.040  25.104  0.00  0.00    +0.210 HD
ENDBRANCH  20  21
BRANCH  20  23
ATOM     23  C   UNL     1       9.877  -0.430  22.398  0.00  0.00    +0.171 C 
BRANCH  23  24
ATOM     24  O   UNL     1      10.120  -1.358  21.330  0.00  0.00    -0.387 OA
ATOM     25  H   UNL     1      11.098  -1.407  21.259  0.00  0.00    +0.210 HD
ENDBRANCH  23  24
BRANCH  23  26
ATOM     26  C   UNL     1       8.920   0.639  21.851  0.00  0.00    +0.189 C 
BRANCH  26  27
ATOM     27  O   UNL     1       9.698   1.755  21.403  0.00  0.00    -0.392 OA
ATOM     28  H   UNL     1      10.613   1.598  21.697  0.00  0.00    +0.210 HD
ENDBRANCH  26  27
ENDBRANCH  23  26
ENDBRANCH  20  23
ENDBRANCH   2  20
TORSDOF 11
ENDMDL
MODEL 2
REMARK VINA RESULT:      -5.7      2.507      5.709
REMARK  Name = 
REMARK  12 active torsions:
REMARK  status: ('A' for Active; 'I' for Inactive)
REMARK    1  A    between atoms: C_1  and  C_2
REMARK    2  A    between atoms: N_4  and  C_5
REMARK    3  A    between atoms: C_7  and  O_9
REMARK    4  A    between atoms: C_11  and  O_12
REMARK    5  A    between atoms: C_11  and  C_24
REMARK    6  A    between atoms: C_14  and  C_16
REMARK    7  A    between atoms: C_16  and  O_18
REMARK    8  A    between atoms: C_16  and  C_19
REMARK    9  A    between atoms: C_19  and  O_21
REMARK   10  A    between atoms: C_19  and  C_22
REMARK   11  A    between atoms: C_22  and  O_23
REMARK   12  A    between atoms: C_24  and  O_25
REMARK                            x       y       z     vdW  Elec       q    Type
REMARK                         _______ _______ _______ _____ _____    ______ ____
ROOT
ATOM      1  C   UNL     1       7.421  -1.017  25.111  0.00  0.00    +0.133 C 
ATOM      2  C   UNL     1       8.842  -1.544  24.810  0.00  0.00    +0.176 C 
ATOM      3  O   UNL     1       9.655  -0.489  24.232  0.00  0.00    -0.332 OA
ATOM      4  C   UNL     1       9.125   0.187  23.096  0.00  0.00    +0.270 C 
ATOM      5  C   UNL     1       7.678   0.667  23.267  0.00  0.00    +0.110 C 
ATOM      6  C   UNL     1       6.795  -0.445  23.823  0.00  0.00    +0.143 C 
ENDROOT
BRANCH   1   9
ATOM      7  C   UNL     1       6.849   0.985  28.302  0.00  0.00    +0.109 C 
ATOM      8  C   UNL     1       6.623  -0.094  27.281  0.00  0.00    +0.210 C 
ATOM      9  N   UNL     1       7.458  -0.015  26.189  0.00  0.00    -0.308 N 
ATOM     10  H   UNL     1       8.169   0.710  26.164  0.00  0.00    +0.149 HD
ATOM     11  O   UNL     1       5.765  -0.960  27.412  0.00  0.00    -0.276 OA
ENDBRANCH   1   9
BRANCH   4  12
ATOM     12  O   UNL     1       9.253  -0.625  21.916  0.00  0.00    -0.356 OA
ATOM     13  H   UNL     1       8.335  -0.859  21.650  0.00  0.00    +0.213 HD
ENDBRANCH   4  12
BRANCH   4  14
ATOM     14  C   UNL     1      10.008   1.444  22.832  0.00  0.00    +0.365 C 
ATOM     15  O   UNL     1      10.735   1.982  23.655  0.00  0.00    -0.245 OA
BRANCH  14  16
ATOM     16  O   UNL     1       9.876   1.896  21.555  0.00  0.00    -0.477 OA
ATOM     17  H   UNL     1       9.044   2.429  21.523  0.00  0.00    +0.295 HD
ENDBRANCH  14  16
ENDBRANCH   4  14
BRANCH   6  18
ATOM     18  O   UNL     1       6.668  -1.448  22.807  0.00  0.00    -0.390 OA
ATOM     19  H   UNL     1       5.931  -2.038  23.091  0.00  0.00    +0.210 HD
ENDBRANCH   6  18
BRANCH   2  20
ATOM     20  C   UNL     1       8.997  -2.843  23.969  0.00  0.00    +0.176 C 
BRANCH  20  21
ATOM     21  O   UNL     1      10.398  -3.005  23.674  0.00  0.00    -0.387 OA
ATOM     22  H   UNL     1      10.725  -3.682  24.299  0.00  0.00    +0.210 HD
ENDBRANCH  20  21
BRANCH  20  23
ATOM     23  C   UNL     1       8.478  -4.131  24.623  0.00  0.00    +0.171 C 
BRANCH  23  24
ATOM     24  O   UNL     1       8.466  -5.221  23.689  0.00  0.00    -0.387 OA
ATOM     25  H   UNL     1       9.173  -5.005  23.044  0.00  0.00    +0.210 HD
ENDBRANCH  23  24
BRANCH  23  26
ATOM     26  C   UNL     1       9.371  -4.558  25.797  0.00  0.00    +0.189 C 
BRANCH  26  27
ATOM     27  O   UNL     1      10.305  -5.535  25.322  0.00  0.00    -0.392 OA
ATOM     28  H   UNL     1      11.195  -5.188  25.506  0.00  0.00    +0.210 HD
ENDBRANCH  26  27
ENDBRANCH  23  26
ENDBRANCH  20  23
ENDBRANCH   2  20
TORSDOF 11
ENDMDL
MODEL 3
REMARK VINA RESULT:      -5.6      3.366      6.252
REMARK  Name = 
REMARK  12 active torsions:
REMARK  status: ('A' for Active; 'I' for Inactive)
REMARK    1  A    between atoms: C_1  and  C_2
REMARK    2  A    between atoms: N_4  and  C_5
REMARK    3  A    between atoms: C_7  and  O_9
REMARK    4  A    between atoms: C_11  and  O_12
REMARK    5  A    between atoms: C_11  and  C_24
REMARK    6  A    between atoms: C_14  and  C_16
REMARK    7  A    between atoms: C_16  and  O_18
REMARK    8  A    between atoms: C_16  and  C_19
REMARK    9  A    between atoms: C_19  and  O_21
REMARK   10  A    between atoms: C_19  and  C_22
REMARK   11  A    between atoms: C_22  and  O_23
REMARK   12  A    between atoms: C_24  and  O_25
REMARK                            x       y       z     vdW  Elec       q    Type
REMARK                         _______ _______ _______ _____ _____    ______ ____
ROOT
ATOM      1  C   UNL     1       7.503   1.194  23.315  0.00  0.00    +0.133 C 
ATOM      2  C   UNL     1       8.804   1.162  24.148  0.00  0.00    +0.176 C 
ATOM      3  O   UNL     1       9.211   2.513  24.492  0.00  0.00    -0.332 OA
ATOM      4  C   UNL     1       9.328   3.446  23.423  0.00  0.00    +0.270 C 
ATOM      5  C   UNL     1       8.116   3.481  22.483  0.00  0.00    +0.110 C 
ATOM      6  C   UNL     1       7.707   2.073  22.065  0.00  0.00    +0.143 C 
ENDROOT
BRANCH   1   9
ATOM      7  C   UNL     1       4.639   1.516  25.808  0.00  0.00    +0.109 C 
ATOM      8  C   UNL     1       5.722   0.837  25.018  0.00  0.00    +0.210 C 
ATOM      9  N   UNL     1       6.376   1.668  24.135  0.00  0.00    -0.308 N 
ATOM     10  H   UNL     1       6.124   2.651  24.105  0.00  0.00    +0.149 HD
ATOM     11  O   UNL     1       5.991  -0.352  25.149  0.00  0.00    -0.276 OA
ENDBRANCH   1   9
BRANCH   4  12
ATOM     12  O   UNL     1      10.538   3.219  22.680  0.00  0.00    -0.356 OA
ATOM     13  H   UNL     1      11.258   3.635  23.205  0.00  0.00    +0.213 HD
ENDBRANCH   4  12
BRANCH   4  14
ATOM     14  C   UNL     1       9.482   4.868  24.042  0.00  0.00    +0.365 C 
ATOM     15  O   UNL     1       9.092   5.201  25.153  0.00  0.00    -0.245 OA
BRANCH  14  16
ATOM     16  O   UNL     1      10.108   5.726  23.191  0.00  0.00    -0.477 OA
ATOM     17  H   UNL     1       9.420   6.351  22.855  0.00  0.00    +0.295 HD
ENDBRANCH  14  16
ENDBRANCH   4  14
BRANCH   6  18
ATOM     18  O   UNL     1       8.738   1.554  21.217  0.00  0.00    -0.390 OA
ATOM     19  H   UNL     1       9.440   2.245  21.179  0.00  0.00    +0.210 HD
ENDBRANCH   6  18
BRANCH   2  20
ATOM     20  C   UNL     1      10.027   0.374  23.597  0.00  0.00    +0.176 C 
BRANCH  20  21
ATOM     21  O   UNL     1      11.188   0.805  24.332  0.00  0.00    -0.387 OA
ATOM     22  H   UNL     1      11.195   1.782  24.271  0.00  0.00    +0.210 HD
ENDBRANCH  20  21
BRANCH  20  23
ATOM     23  C   UNL     1       9.929  -1.156  23.681  0.00  0.00    +0.171 C 
BRANCH  23  24
ATOM     24  O   UNL     1       8.969  -1.564  24.667  0.00  0.00    -0.387 OA
ATOM     25  H   UNL     1       9.310  -2.419  25.009  0.00  0.00    +0.210 HD
ENDBRANCH  23  24
BRANCH  23  26
ATOM     26  C   UNL     1       9.479  -1.760  22.342  0.00  0.00    +0.189 C 
BRANCH  26  27
ATOM     27  O   UNL     1       9.986  -0.939  21.284  0.00  0.00    -0.392 OA
ATOM     28  H   UNL     1      10.527  -1.514  20.715  0.00  0.00    +0.210 HD
ENDBRANCH  26  27
ENDBRANCH  23  26
ENDBRANCH  20  23
ENDBRANCH   2  20
TORSDOF 11
ENDMDL
MODEL 4
REMARK VINA RESULT:      -5.6      2.197      4.695
REMARK  Name = 
REMARK  12 active torsions:
REMARK  status: ('A' for Active; 'I' for Inactive)
REMARK    1  A    between atoms: C_1  and  C_2
REMARK    2  A    between atoms: N_4  and  C_5
REMARK    3  A    between atoms: C_7  and  O_9
REMARK    4  A    between atoms: C_11  and  O_12
REMARK    5  A    between atoms: C_11  and  C_24
REMARK    6  A    between atoms: C_14  and  C_16
REMARK    7  A    between atoms: C_16  and  O_18
REMARK    8  A    between atoms: C_16  and  C_19
REMARK    9  A    between atoms: C_19  and  O_21
REMARK   10  A    between atoms: C_19  and  C_22
REMARK   11  A    between atoms: C_22  and  O_23
REMARK   12  A    between atoms: C_24  and  O_25
REMARK                            x       y       z     vdW  Elec       q    Type
REMARK                         _______ _______ _______ _____ _____    ______ ____
ROOT
ATOM      1  C   UNL     1       7.655  -3.966  25.802  0.00  0.00    +0.133 C 
ATOM      2  C   UNL     1       7.276  -2.612  25.162  0.00  0.00    +0.176 C 
ATOM      3  O   UNL     1       6.603  -2.829  23.894  0.00  0.00    -0.332 OA
ATOM      4  C   UNL     1       7.264  -3.659  22.944  0.00  0.00    +0.270 C 
ATOM      5  C   UNL     1       7.763  -4.993  23.514  0.00  0.00    +0.110 C 
ATOM      6  C   UNL     1       8.521  -4.781  24.821  0.00  0.00    +0.143 C 
ENDROOT
BRANCH   1   9
ATOM      7  C   UNL     1       5.116  -6.203  27.553  0.00  0.00    +0.109 C 
ATOM      8  C   UNL     1       6.456  -5.591  27.258  0.00  0.00    +0.210 C 
ATOM      9  N   UNL     1       6.446  -4.705  26.203  0.00  0.00    -0.308 N 
ATOM     10  H   UNL     1       5.566  -4.499  25.740  0.00  0.00    +0.149 HD
ATOM     11  O   UNL     1       7.464  -5.865  27.898  0.00  0.00    -0.276 OA
ENDBRANCH   1   9
BRANCH   4  12
ATOM     12  O   UNL     1       8.340  -2.947  22.308  0.00  0.00    -0.356 OA
ATOM     13  H   UNL     1       8.713  -2.353  22.996  0.00  0.00    +0.213 HD
ENDBRANCH   4  12
BRANCH   4  14
ATOM     14  C   UNL     1       6.251  -3.986  21.806  0.00  0.00    +0.365 C 
ATOM     15  O   UNL     1       5.327  -3.266  21.454  0.00  0.00    -0.245 OA
BRANCH  14  16
ATOM     16  O   UNL     1       6.508  -5.193  21.232  0.00  0.00    -0.477 OA
ATOM     17  H   UNL     1       5.990  -5.867  21.736  0.00  0.00    +0.295 HD
ENDBRANCH  14  16
ENDBRANCH   4  14
BRANCH   6  18
ATOM     18  O   UNL     1       9.744  -4.104  24.508  0.00  0.00    -0.390 OA
ATOM     19  H   UNL     1      10.471  -4.740  24.705  0.00  0.00    +0.210 HD
ENDBRANCH   6  18
BRANCH   2  20
ATOM     20  C   UNL     1       8.379  -1.530  24.989  0.00  0.00    +0.176 C 
BRANCH  20  21
ATOM     21  O   UNL     1       7.838  -0.488  24.154  0.00  0.00    -0.387 OA
ATOM     22  H   UNL     1       8.608  -0.066  23.721  0.00  0.00    +0.210 HD
ENDBRANCH  20  21
BRANCH  20  23
ATOM     23  C   UNL     1       8.908  -0.899  26.285  0.00  0.00    +0.171 C 
BRANCH  23  24
ATOM     24  O   UNL     1       9.864   0.136  26.008  0.00  0.00    -0.387 OA
ATOM     25  H   UNL     1       9.322   0.942  25.859  0.00  0.00    +0.210 HD
ENDBRANCH  23  24
BRANCH  23  26
ATOM     26  C   UNL     1       7.774  -0.255  27.095  0.00  0.00    +0.189 C 
BRANCH  26  27
ATOM     27  O   UNL     1       7.716   1.136  26.763  0.00  0.00    -0.392 OA
ATOM     28  H   UNL     1       6.782   1.403  26.823  0.00  0.00    +0.210 HD
ENDBRANCH  26  27
ENDBRANCH  23  26
ENDBRANCH  20  23
ENDBRANCH   2  20
TORSDOF 11
ENDMDL
MODEL 5
REMARK VINA RESULT:      -5.5      2.880      4.252
REMARK  Name = 
REMARK  12 active torsions:
REMARK  status: ('A' for Active; 'I' for Inactive)
REMARK    1  A    between atoms: C_1  and  C_2
REMARK    2  A    between atoms: N_4  and  C_5
REMARK    3  A    between atoms: C_7  and  O_9
REMARK    4  A    between atoms: C_11  and  O_12
REMARK    5  A    between atoms: C_11  and  C_24
REMARK    6  A    between atoms: C_14  and  C_16
REMARK    7  A    between atoms: C_16  and  O_18
REMARK    8  A    between atoms: C_16  and  C_19
REMARK    9  A    between atoms: C_19  and  O_21
REMARK   10  A    between atoms: C_19  and  C_22
REMARK   11  A    between atoms: C_22  and  O_23
REMARK   12  A    between atoms: C_24  and  O_25
REMARK                            x       y       z     vdW  Elec       q    Type
REMARK                         _______ _______ _______ _____ _____    ______ ____
ROOT
ATOM      1  C   UNL     1       5.139  -4.350  25.141  0.00  0.00    +0.133 C 
ATOM      2  C   UNL     1       6.248  -5.406  25.347  0.00  0.00    +0.176 C 
ATOM      3  O   UNL     1       5.908  -6.279  26.456  0.00  0.00    -0.332 OA
ATOM      4  C   UNL     1       5.580  -5.655  27.694  0.00  0.00    +0.270 C 
ATOM      5  C   UNL     1       4.550  -4.523  27.575  0.00  0.00    +0.110 C 
ATOM      6  C   UNL     1       4.920  -3.564  26.449  0.00  0.00    +0.143 C 
ENDROOT
BRANCH   1   9
ATOM      7  C   UNL     1       2.389  -5.992  23.076  0.00  0.00    +0.109 C 
ATOM      8  C   UNL     1       3.690  -5.290  23.348  0.00  0.00    +0.210 C 
ATOM      9  N   UNL     1       3.896  -4.989  24.676  0.00  0.00    -0.308 N 
ATOM     10  H   UNL     1       3.208  -5.284  25.361  0.00  0.00    +0.149 HD
ATOM     11  O   UNL     1       4.487  -5.008  22.461  0.00  0.00    -0.276 OA
ENDBRANCH   1   9
BRANCH   4  12
ATOM     12  O   UNL     1       6.766  -5.190  28.360  0.00  0.00    -0.356 OA
ATOM     13  H   UNL     1       7.458  -5.128  27.664  0.00  0.00    +0.213 HD
ENDBRANCH   4  12
BRANCH   4  14
ATOM     14  C   UNL     1       4.974  -6.741  28.633  0.00  0.00    +0.365 C 
ATOM     15  O   UNL     1       4.026  -6.574  29.387  0.00  0.00    -0.245 OA
BRANCH  14  16
ATOM     16  O   UNL     1       5.634  -7.927  28.526  0.00  0.00    -0.477 OA
ATOM     17  H   UNL     1       5.315  -8.359  27.697  0.00  0.00    +0.295 HD
ENDBRANCH  14  16
ENDBRANCH   4  14
BRANCH   6  18
ATOM     18  O   UNL     1       6.103  -2.861  26.847  0.00  0.00    -0.390 OA
ATOM     19  H   UNL     1       5.799  -2.060  27.334  0.00  0.00    +0.210 HD
ENDBRANCH   6  18
BRANCH   2  20
ATOM     20  C   UNL     1       7.720  -4.928  25.492  0.00  0.00    +0.176 C 
BRANCH  20  21
ATOM     21  O   UNL     1       8.438  -5.945  26.218  0.00  0.00    -0.387 OA
ATOM     22  H   UNL     1       9.387  -5.747  26.086  0.00  0.00    +0.210 HD
ENDBRANCH  20  21
BRANCH  20  23
ATOM     23  C   UNL     1       8.463  -4.639  24.180  0.00  0.00    +0.171 C 
BRANCH  23  24
ATOM     24  O   UNL     1       7.666  -4.996  23.041  0.00  0.00    -0.387 OA
ATOM     25  H   UNL     1       7.855  -4.299  22.376  0.00  0.00    +0.210 HD
ENDBRANCH  23  24
BRANCH  23  26
ATOM     26  C   UNL     1       8.794  -3.146  24.044  0.00  0.00    +0.189 C 
BRANCH  26  27
ATOM     27  O   UNL     1      10.209  -3.011  23.871  0.00  0.00    -0.392 OA
ATOM     28  H   UNL     1      10.623  -3.764  24.328  0.00  0.00    +0.210 HD
ENDBRANCH  26  27
ENDBRANCH  23  26
ENDBRANCH  20  23
ENDBRANCH   2  20
TORSDOF 11
ENDMDL
MODEL 6
REMARK VINA RESULT:      -5.5      1.954      5.169
REMARK  Name = 
REMARK  12 active torsions:
REMARK  status: ('A' for Active; 'I' for Inactive)
REMARK    1  A    between atoms: C_1  and  C_2
REMARK    2  A    between atoms: N_4  and  C_5
REMARK    3  A    between atoms: C_7  and  O_9
REMARK    4  A    between atoms: C_11  and  O_12
REMARK    5  A    between atoms: C_11  and  C_24
REMARK    6  A    between atoms: C_14  and  C_16
REMARK    7  A    between atoms: C_16  and  O_18
REMARK    8  A    between atoms: C_16  and  C_19
REMARK    9  A    between atoms: C_19  and  O_21
REMARK   10  A    between atoms: C_19  and  C_22
REMARK   11  A    between atoms: C_22  and  O_23
REMARK   12  A    between atoms: C_24  and  O_25
REMARK                            x       y       z     vdW  Elec       q    Type
REMARK                         _______ _______ _______ _____ _____    ______ ____
ROOT
ATOM      1  C   UNL     1       7.642  -5.148  24.667  0.00  0.00    +0.133 C 
ATOM      2  C   UNL     1       6.734  -4.053  25.269  0.00  0.00    +0.176 C 
ATOM      3  O   UNL     1       7.189  -2.739  24.852  0.00  0.00    -0.332 OA
ATOM      4  C   UNL     1       8.560  -2.427  25.078  0.00  0.00    +0.270 C 
ATOM      5  C   UNL     1       9.539  -3.505  24.594  0.00  0.00    +0.110 C 
ATOM      6  C   UNL     1       9.108  -4.888  25.070  0.00  0.00    +0.143 C 
ENDROOT
BRANCH   1   9
ATOM      7  C   UNL     1       6.372  -5.701  21.117  0.00  0.00    +0.109 C 
ATOM      8  C   UNL     1       6.385  -5.793  22.617  0.00  0.00    +0.210 C 
ATOM      9  N   UNL     1       7.483  -5.204  23.204  0.00  0.00    -0.308 N 
ATOM     10  H   UNL     1       8.162  -4.730  22.616  0.00  0.00    +0.149 HD
ATOM     11  O   UNL     1       5.499  -6.350  23.254  0.00  0.00    -0.276 OA
ENDBRANCH   1   9
BRANCH   4  12
ATOM     12  O   UNL     1       8.790  -2.119  26.463  0.00  0.00    -0.356 OA
ATOM     13  H   UNL     1       7.900  -2.054  26.875  0.00  0.00    +0.213 HD
ENDBRANCH   4  12
BRANCH   4  14
ATOM     14  C   UNL     1       8.887  -1.115  24.301  0.00  0.00    +0.365 C 
ATOM     15  O   UNL     1       8.291  -0.713  23.312  0.00  0.00    -0.245 OA
BRANCH  14  16
ATOM     16  O   UNL     1       9.937  -0.449  24.854  0.00  0.00    -0.477 OA
ATOM     17  H   UNL     1      10.562  -0.236  24.118  0.00  0.00    +0.295 HD
ENDBRANCH  14  16
ENDBRANCH   4  14
BRANCH   6  18
ATOM     18  O   UNL     1       9.280  -4.932  26.492  0.00  0.00    -0.390 OA
ATOM     19  H   UNL     1       8.619  -4.307  26.870  0.00  0.00    +0.210 HD
ENDBRANCH   6  18
BRANCH   2  20
ATOM     20  C   UNL     1       6.478  -4.053  26.803  0.00  0.00    +0.176 C 
BRANCH  20  21
ATOM     21  O   UNL     1       6.074  -2.721  27.176  0.00  0.00    -0.387 OA
ATOM     22  H   UNL     1       5.248  -2.827  27.691  0.00  0.00    +0.210 HD
ENDBRANCH  20  21
BRANCH  20  23
ATOM     23  C   UNL     1       5.423  -5.048  27.306  0.00  0.00    +0.171 C 
BRANCH  23  24
ATOM     24  O   UNL     1       4.893  -5.835  26.228  0.00  0.00    -0.387 OA
ATOM     25  H   UNL     1       5.670  -6.304  25.856  0.00  0.00    +0.210 HD
ENDBRANCH  23  24
BRANCH  23  26
ATOM     26  C   UNL     1       6.024  -6.031  28.322  0.00  0.00    +0.189 C 
BRANCH  26  27
ATOM     27  O   UNL     1       7.424  -6.160  28.051  0.00  0.00    -0.392 OA
ATOM     28  H   UNL     1       7.719  -5.311  27.676  0.00  0.00    +0.210 HD
ENDBRANCH  26  27
ENDBRANCH  23  26
ENDBRANCH  20  23
ENDBRANCH   2  20
TORSDOF 11
ENDMDL
MODEL 7
REMARK VINA RESULT:      -5.4      2.010      4.758
REMARK  Name = 
REMARK  12 active torsions:
REMARK  status: ('A' for Active; 'I' for Inactive)
REMARK    1  A    between atoms: C_1  and  C_2
REMARK    2  A    between atoms: N_4  and  C_5
REMARK    3  A    between atoms: C_7  and  O_9
REMARK    4  A    between atoms: C_11  and  O_12
REMARK    5  A    between atoms: C_11  and  C_24
REMARK    6  A    between atoms: C_14  and  C_16
REMARK    7  A    between atoms: C_16  and  O_18
REMARK    8  A    between atoms: C_16  and  C_19
REMARK    9  A    between atoms: C_19  and  O_21
REMARK   10  A    between atoms: C_19  and  C_22
REMARK   11  A    between atoms: C_22  and  O_23
REMARK   12  A    between atoms: C_24  and  O_25
REMARK                            x       y       z     vdW  Elec       q    Type
REMARK                         _______ _______ _______ _____ _____    ______ ____
ROOT
ATOM      1  C   UNL     1       8.378  -1.630  22.894  0.00  0.00    +0.133 C 
ATOM      2  C   UNL     1       7.278  -2.369  23.690  0.00  0.00    +0.176 C 
ATOM      3  O   UNL     1       7.138  -1.785  25.011  0.00  0.00    -0.332 OA
ATOM      4  C   UNL     1       8.322  -1.665  25.795  0.00  0.00    +0.270 C 
ATOM      5  C   UNL     1       9.504  -1.025  25.055  0.00  0.00    +0.110 C 
ATOM      6  C   UNL     1       9.702  -1.664  23.684  0.00  0.00    +0.143 C 
ENDROOT
BRANCH   1   9
ATOM      7  C   UNL     1       8.106   1.929  21.562  0.00  0.00    +0.109 C 
ATOM      8  C   UNL     1       8.724   0.582  21.805  0.00  0.00    +0.210 C 
ATOM      9  N   UNL     1       7.960  -0.251  22.592  0.00  0.00    -0.308 N 
ATOM     10  H   UNL     1       7.049   0.069  22.909  0.00  0.00    +0.149 HD
ATOM     11  O   UNL     1       9.815   0.261  21.347  0.00  0.00    -0.276 OA
ENDBRANCH   1   9
BRANCH   4  12
ATOM     12  O   UNL     1       8.699  -2.940  26.344  0.00  0.00    -0.356 OA
ATOM     13  H   UNL     1       7.893  -3.293  26.781  0.00  0.00    +0.213 HD
ENDBRANCH   4  12
BRANCH   4  14
ATOM     14  C   UNL     1       7.995  -0.764  27.023  0.00  0.00    +0.365 C 
ATOM     15  O   UNL     1       6.875  -0.399  27.354  0.00  0.00    -0.245 OA
BRANCH  14  16
ATOM     16  O   UNL     1       9.118  -0.411  27.705  0.00  0.00    -0.477 OA
ATOM     17  H   UNL     1       8.823   0.078  28.512  0.00  0.00    +0.295 HD
ENDBRANCH  14  16
ENDBRANCH   4  14
BRANCH   6  18
ATOM     18  O   UNL     1      10.159  -3.005  23.891  0.00  0.00    -0.390 OA
ATOM     19  H   UNL     1      11.127  -3.000  23.703  0.00  0.00    +0.210 HD
ENDBRANCH   6  18
BRANCH   2  20
ATOM     20  C   UNL     1       7.352  -3.918  23.808  0.00  0.00    +0.176 C 
BRANCH  20  21
ATOM     21  O   UNL     1       6.314  -4.333  24.718  0.00  0.00    -0.387 OA
ATOM     22  H   UNL     1       5.556  -4.591  24.157  0.00  0.00    +0.210 HD
ENDBRANCH  20  21
BRANCH  20  23
ATOM     23  C   UNL     1       7.200  -4.698  22.495  0.00  0.00    +0.171 C 
BRANCH  23  24
ATOM     24  O   UNL     1       7.968  -5.911  22.519  0.00  0.00    -0.387 OA
ATOM     25  H   UNL     1       8.762  -5.713  21.976  0.00  0.00    +0.210 HD
ENDBRANCH  23  24
BRANCH  23  26
ATOM     26  C   UNL     1       5.738  -5.101  22.253  0.00  0.00    +0.189 C 
BRANCH  26  27
ATOM     27  O   UNL     1       5.720  -6.417  21.689  0.00  0.00    -0.392 OA
ATOM     28  H   UNL     1       5.357  -6.334  20.789  0.00  0.00    +0.210 HD
ENDBRANCH  26  27
ENDBRANCH  23  26
ENDBRANCH  20  23
ENDBRANCH   2  20
TORSDOF 11
ENDMDL
MODEL 8
REMARK VINA RESULT:      -5.4      3.693      6.890
REMARK  Name = 
REMARK  12 active torsions:
REMARK  status: ('A' for Active; 'I' for Inactive)
REMARK    1  A    between atoms: C_1  and  C_2
REMARK    2  A    between atoms: N_4  and  C_5
REMARK    3  A    between atoms: C_7  and  O_9
REMARK    4  A    between atoms: C_11  and  O_12
REMARK    5  A    between atoms: C_11  and  C_24
REMARK    6  A    between atoms: C_14  and  C_16
REMARK    7  A    between atoms: C_16  and  O_18
REMARK    8  A    between atoms: C_16  and  C_19
REMARK    9  A    between atoms: C_19  and  O_21
REMARK   10  A    between atoms: C_19  and  C_22
REMARK   11  A    between atoms: C_22  and  O_23
REMARK   12  A    between atoms: C_24  and  O_25
REMARK                            x       y       z     vdW  Elec       q    Type
REMARK                         _______ _______ _______ _____ _____    ______ ____
ROOT
ATOM      1  C   UNL     1       5.719  -4.578  25.725  0.00  0.00    +0.133 C 
ATOM      2  C   UNL     1       5.462  -5.941  25.045  0.00  0.00    +0.176 C 
ATOM      3  O   UNL     1       5.811  -5.871  23.637  0.00  0.00    -0.332 OA
ATOM      4  C   UNL     1       5.225  -4.819  22.877  0.00  0.00    +0.270 C 
ATOM      5  C   UNL     1       5.348  -3.432  23.522  0.00  0.00    +0.110 C 
ATOM      6  C   UNL     1       4.934  -3.473  24.989  0.00  0.00    +0.143 C 
ENDROOT
BRANCH   1   9
ATOM      7  C   UNL     1       9.444  -4.509  26.523  0.00  0.00    +0.109 C 
ATOM      8  C   UNL     1       7.999  -4.892  26.674  0.00  0.00    +0.210 C 
ATOM      9  N   UNL     1       7.161  -4.284  25.766  0.00  0.00    -0.308 N 
ATOM     10  H   UNL     1       7.561  -3.675  25.058  0.00  0.00    +0.149 HD
ATOM     11  O   UNL     1       7.607  -5.672  27.535  0.00  0.00    -0.276 OA
ENDBRANCH   1   9
BRANCH   4  12
ATOM     12  O   UNL     1       3.851  -5.115  22.572  0.00  0.00    -0.356 OA
ATOM     13  H   UNL     1       3.469  -4.282  22.217  0.00  0.00    +0.213 HD
ENDBRANCH   4  12
BRANCH   4  14
ATOM     14  C   UNL     1       5.952  -4.760  21.499  0.00  0.00    +0.365 C 
ATOM     15  O   UNL     1       5.741  -3.932  20.624  0.00  0.00    -0.245 OA
BRANCH  14  16
ATOM     16  O   UNL     1       6.868  -5.758  21.368  0.00  0.00    -0.477 OA
ATOM     17  H   UNL     1       7.364  -5.584  20.531  0.00  0.00    +0.295 HD
ENDBRANCH  14  16
ENDBRANCH   4  14
BRANCH   6  18
ATOM     18  O   UNL     1       3.522  -3.709  25.036  0.00  0.00    -0.390 OA
ATOM     19  H   UNL     1       3.358  -4.518  24.497  0.00  0.00    +0.210 HD
ENDBRANCH   6  18
BRANCH   2  20
ATOM     20  C   UNL     1       4.066  -6.607  25.205  0.00  0.00    +0.176 C 
BRANCH  20  21
ATOM     21  O   UNL     1       3.985  -7.680  24.247  0.00  0.00    -0.387 OA
ATOM     22  H   UNL     1       4.847  -7.692  23.785  0.00  0.00    +0.210 HD
ENDBRANCH  20  21
BRANCH  20  23
ATOM     23  C   UNL     1       3.745  -7.163  26.599  0.00  0.00    +0.171 C 
BRANCH  23  24
ATOM     24  O   UNL     1       4.936  -7.314  27.387  0.00  0.00    -0.387 OA
ATOM     25  H   UNL     1       5.443  -6.487  27.234  0.00  0.00    +0.210 HD
ENDBRANCH  23  24
BRANCH  23  26
ATOM     26  C   UNL     1       2.813  -6.220  27.374  0.00  0.00    +0.189 C 
BRANCH  26  27
ATOM     27  O   UNL     1       3.592  -5.518  28.349  0.00  0.00    -0.392 OA
ATOM     28  H   UNL     1       4.484  -5.909  28.335  0.00  0.00    +0.210 HD
ENDBRANCH  26  27
ENDBRANCH  23  26
ENDBRANCH  20  23
ENDBRANCH   2  20
TORSDOF 11
ENDMDL
MODEL 9
REMARK VINA RESULT:      -5.3      2.456      4.306
REMARK  Name = 
REMARK  12 active torsions:
REMARK  status: ('A' for Active; 'I' for Inactive)
REMARK    1  A    between atoms: C_1  and  C_2
REMARK    2  A    between atoms: N_4  and  C_5
REMARK    3  A    between atoms: C_7  and  O_9
REMARK    4  A    between atoms: C_11  and  O_12
REMARK    5  A    between atoms: C_11  and  C_24
REMARK    6  A    between atoms: C_14  and  C_16
REMARK    7  A    between atoms: C_16  and  O_18
REMARK    8  A    between atoms: C_16  and  C_19
REMARK    9  A    between atoms: C_19  and  O_21
REMARK   10  A    between atoms: C_19  and  C_22
REMARK   11  A    between atoms: C_22  and  O_23
REMARK   12  A    between atoms: C_24  and  O_25
REMARK                            x       y       z     vdW  Elec       q    Type
REMARK                         _______ _______ _______ _____ _____    ______ ____
ROOT
ATOM      1  C   UNL     1       8.256   0.339  24.491  0.00  0.00    +0.133 C 
ATOM      2  C   UNL     1       8.440  -0.141  23.034  0.00  0.00    +0.176 C 
ATOM      3  O   UNL     1       8.188  -1.567  22.941  0.00  0.00    -0.332 OA
ATOM      4  C   UNL     1       8.906  -2.411  23.837  0.00  0.00    +0.270 C 
ATOM      5  C   UNL     1       8.859  -1.958  25.302  0.00  0.00    +0.110 C 
ATOM      6  C   UNL     1       9.175  -0.472  25.426  0.00  0.00    +0.143 C 
ENDROOT
BRANCH   1   9
ATOM      7  C   UNL     1       4.814   0.890  26.033  0.00  0.00    +0.109 C 
ATOM      8  C   UNL     1       6.280   1.118  25.791  0.00  0.00    +0.210 C 
ATOM      9  N   UNL     1       6.843   0.237  24.895  0.00  0.00    -0.308 N 
ATOM     10  H   UNL     1       6.250  -0.454  24.444  0.00  0.00    +0.149 HD
ATOM     11  O   UNL     1       6.912   2.008  26.349  0.00  0.00    -0.276 OA
ENDBRANCH   1   9
BRANCH   4  12
ATOM     12  O   UNL     1      10.267  -2.573  23.402  0.00  0.00    -0.356 OA
ATOM     13  H   UNL     1      10.511  -1.729  22.961  0.00  0.00    +0.213 HD
ENDBRANCH   4  12
BRANCH   4  14
ATOM     14  C   UNL     1       8.275  -3.834  23.765  0.00  0.00    +0.365 C 
ATOM     15  O   UNL     1       8.813  -4.865  24.143  0.00  0.00    -0.245 OA
BRANCH  14  16
ATOM     16  O   UNL     1       7.029  -3.807  23.219  0.00  0.00    -0.477 OA
ATOM     17  H   UNL     1       6.866  -2.880  22.918  0.00  0.00    +0.295 HD
ENDBRANCH  14  16
ENDBRANCH   4  14
BRANCH   6  18
ATOM     18  O   UNL     1      10.557  -0.292  25.094  0.00  0.00    -0.390 OA
ATOM     19  H   UNL     1      10.684   0.675  24.952  0.00  0.00    +0.210 HD
ENDBRANCH   6  18
BRANCH   2  20
ATOM     20  C   UNL     1       9.763   0.205  22.294  0.00  0.00    +0.176 C 
BRANCH  20  21
ATOM     21  O   UNL     1       9.837  -0.633  21.124  0.00  0.00    -0.387 OA
ATOM     22  H   UNL     1      10.340  -0.119  20.460  0.00  0.00    +0.210 HD
ENDBRANCH  20  21
BRANCH  20  23
ATOM     23  C   UNL     1       9.927   1.670  21.864  0.00  0.00    +0.171 C 
BRANCH  23  24
ATOM     24  O   UNL     1       8.670   2.241  21.468  0.00  0.00    -0.387 OA
ATOM     25  H   UNL     1       8.795   3.209  21.565  0.00  0.00    +0.210 HD
ENDBRANCH  23  24
BRANCH  23  26
ATOM     26  C   UNL     1      10.467   2.531  23.015  0.00  0.00    +0.189 C 
BRANCH  26  27
ATOM     27  O   UNL     1       9.743   3.767  23.031  0.00  0.00    -0.392 OA
ATOM     28  H   UNL     1      10.084   4.304  22.294  0.00  0.00    +0.210 HD
ENDBRANCH  26  27
ENDBRANCH  23  26
ENDBRANCH  20  23
ENDBRANCH   2  20
TORSDOF 11
ENDMDL
