MODEL 1
REMARK VINA RESULT:      -7.7      0.000      0.000
REMARK  Name = 
REMARK  4 active torsions:
REMARK  status: ('A' for Active; 'I' for Inactive)
REMARK    1  A    between atoms: O_1  and  C_2
REMARK    2  A    between atoms: C_2  and  C_4
REMARK    3  A    between atoms: C_7  and  C_10
REMARK    4  A    between atoms: C_13  and  C_15
REMARK                            x       y       z     vdW  Elec       q    Type
REMARK                         _______ _______ _______ _____ _____    ______ ____
ROOT
ATOM      1  C   UNL     1       9.073  -3.263  24.390  0.00  0.00    +0.136 A 
ATOM      2  O   UNL     1       7.807  -3.656  24.080  0.00  0.00    -0.455 OA
ATOM      3  C   UNL     1       7.620  -4.954  24.496  0.00  0.00    +0.130 A 
ATOM      4  C   UNL     1       8.822  -5.393  25.033  0.00  0.00    +0.050 A 
ATOM      5  C   UNL     1       9.734  -4.314  24.989  0.00  0.00    +0.050 A 
ENDROOT
BRANCH   3   6
ATOM      6  C   UNL     1       6.393  -5.665  24.395  0.00  0.00    +0.066 C 
ATOM      7  C   UNL     1       5.649  -5.986  25.461  0.00  0.00    +0.081 C 
ATOM      8  C   UNL     1       4.475  -6.903  25.339  0.00  0.00    +0.257 C 
ATOM      9  O   UNL     1       3.983  -7.280  24.287  0.00  0.00    -0.269 OA
ATOM     10  N   UNL     1       4.088  -7.311  26.580  0.00  0.00    -0.261 N 
ATOM     11  H   UNL     1       3.386  -8.021  26.709  0.00  0.00    +0.157 HD
ATOM     12  C   UNL     1       4.823  -6.864  27.615  0.00  0.00    +0.158 C 
ATOM     13  N   UNL     1       4.699  -7.298  28.813  0.00  0.00    -0.279 NA
ATOM     14  H   UNL     1       5.399  -6.811  29.384  0.00  0.00    +0.189 HD
ATOM     15  S   UNL     1       5.967  -5.674  27.133  0.00  0.00    -0.049 S 
ENDBRANCH   3   6
BRANCH   1  19
ATOM     16  C   UNL     1      10.044   0.743  23.220  0.00  0.00    +0.059 A 
ATOM     17  C   UNL     1       9.715   0.466  24.551  0.00  0.00    +0.015 A 
ATOM     18  C   UNL     1       9.424  -0.846  24.947  0.00  0.00    +0.012 A 
ATOM     19  C   UNL     1       9.447  -1.900  24.021  0.00  0.00    +0.017 A 
ATOM     20  C   UNL     1       9.801  -1.609  22.694  0.00  0.00    +0.012 A 
ATOM     21  C   UNL     1      10.084  -0.300  22.289  0.00  0.00    +0.015 A 
BRANCH  16  22
ATOM     22  C   UNL     1      10.268   2.157  22.823  0.00  0.00    +0.337 C 
ATOM     23  O   UNL     1      10.558   3.030  23.623  0.00  0.00    -0.245 OA
BRANCH  22  24
ATOM     24  O   UNL     1      10.147   2.385  21.499  0.00  0.00    -0.477 OA
ATOM     25  H   UNL     1      10.644   1.774  20.925  0.00  0.00    +0.295 HD
ENDBRANCH  22  24
ENDBRANCH  16  22
ENDBRANCH   1  19
TORSDOF 4
ENDMDL
MODEL 2
REMARK VINA RESULT:      -7.6      5.700      9.416
REMARK  Name = 
REMARK  4 active torsions:
REMARK  status: ('A' for Active; 'I' for Inactive)
REMARK    1  A    between atoms: O_1  and  C_2
REMARK    2  A    between atoms: C_2  and  C_4
REMARK    3  A    between atoms: C_7  and  C_10
REMARK    4  A    between atoms: C_13  and  C_15
REMARK                            x       y       z     vdW  Elec       q    Type
REMARK                         _______ _______ _______ _____ _____    ______ ____
ROOT
ATOM      1  C   UNL     1       9.624  -0.077  23.591  0.00  0.00    +0.136 A 
ATOM      2  O   UNL     1       9.793   1.084  24.282  0.00  0.00    -0.455 OA
ATOM      3  C   UNL     1      10.030   2.109  23.396  0.00  0.00    +0.130 A 
ATOM      4  C   UNL     1      10.058   1.557  22.123  0.00  0.00    +0.050 A 
ATOM      5  C   UNL     1       9.776   0.177  22.245  0.00  0.00    +0.050 A 
ENDROOT
BRANCH   3   6
ATOM      6  C   UNL     1      10.184   3.474  23.764  0.00  0.00    +0.066 C 
ATOM      7  C   UNL     1       9.281   4.415  23.465  0.00  0.00    +0.081 C 
ATOM      8  C   UNL     1       9.568   5.865  23.688  0.00  0.00    +0.257 C 
ATOM      9  O   UNL     1      10.523   6.305  24.309  0.00  0.00    -0.269 OA
ATOM     10  N   UNL     1       8.642   6.617  23.029  0.00  0.00    -0.261 N 
ATOM     11  H   UNL     1       8.725   7.617  22.960  0.00  0.00    +0.157 HD
ATOM     12  C   UNL     1       7.723   5.944  22.313  0.00  0.00    +0.158 C 
ATOM     13  N   UNL     1       6.907   6.504  21.501  0.00  0.00    -0.279 NA
ATOM     14  H   UNL     1       6.348   5.758  21.071  0.00  0.00    +0.189 HD
ATOM     15  S   UNL     1       7.799   4.248  22.587  0.00  0.00    -0.049 S 
ENDBRANCH   3   6
BRANCH   1  19
ATOM     16  C   UNL     1       8.694  -3.583  25.872  0.00  0.00    +0.059 A 
ATOM     17  C   UNL     1       9.421  -3.698  24.682  0.00  0.00    +0.015 A 
ATOM     18  C   UNL     1       9.754  -2.554  23.946  0.00  0.00    +0.012 A 
ATOM     19  C   UNL     1       9.358  -1.279  24.378  0.00  0.00    +0.017 A 
ATOM     20  C   UNL     1       8.649  -1.178  25.585  0.00  0.00    +0.012 A 
ATOM     21  C   UNL     1       8.306  -2.317  26.322  0.00  0.00    +0.015 A 
BRANCH  16  22
ATOM     22  C   UNL     1       8.293  -4.825  26.582  0.00  0.00    +0.337 C 
ATOM     23  O   UNL     1       7.495  -4.830  27.504  0.00  0.00    -0.245 OA
BRANCH  22  24
ATOM     24  O   UNL     1       8.870  -5.946  26.103  0.00  0.00    -0.477 OA
ATOM     25  H   UNL     1       8.465  -6.309  25.295  0.00  0.00    +0.295 HD
ENDBRANCH  22  24
ENDBRANCH  16  22
ENDBRANCH   1  19
TORSDOF 4
ENDMDL
MODEL 3
REMARK VINA RESULT:      -7.4      5.862      9.503
REMARK  Name = 
REMARK  4 active torsions:
REMARK  status: ('A' for Active; 'I' for Inactive)
REMARK    1  A    between atoms: O_1  and  C_2
REMARK    2  A    between atoms: C_2  and  C_4
REMARK    3  A    between atoms: C_7  and  C_10
REMARK    4  A    between atoms: C_13  and  C_15
REMARK                            x       y       z     vdW  Elec       q    Type
REMARK                         _______ _______ _______ _____ _____    ______ ____
ROOT
ATOM      1  C   UNL     1       9.414  -0.132  23.486  0.00  0.00    +0.136 A 
ATOM      2  O   UNL     1       9.015   1.047  24.038  0.00  0.00    -0.455 OA
ATOM      3  C   UNL     1       9.272   2.071  23.157  0.00  0.00    +0.130 A 
ATOM      4  C   UNL     1       9.895   1.516  22.048  0.00  0.00    +0.050 A 
ATOM      5  C   UNL     1       9.961   0.117  22.246  0.00  0.00    +0.050 A 
ENDROOT
BRANCH   3   6
ATOM      6  C   UNL     1       8.922   3.431  23.376  0.00  0.00    +0.066 C 
ATOM      7  C   UNL     1       9.830   4.410  23.470  0.00  0.00    +0.081 C 
ATOM      8  C   UNL     1       9.444   5.789  23.900  0.00  0.00    +0.257 C 
ATOM      9  O   UNL     1       8.297   6.193  24.017  0.00  0.00    -0.269 OA
ATOM     10  N   UNL     1      10.565   6.498  24.212  0.00  0.00    -0.261 N 
ATOM     11  H   UNL     1      10.514   7.412  24.630  0.00  0.00    +0.157 HD
ATOM     12  C   UNL     1      11.735   5.842  24.115  0.00  0.00    +0.158 C 
ATOM     13  N   UNL     1      12.848   6.309  24.542  0.00  0.00    -0.279 NA
ATOM     14  H   UNL     1      13.563   5.592  24.370  0.00  0.00    +0.189 HD
ATOM     15  S   UNL     1      11.555   4.294  23.385  0.00  0.00    -0.049 S 
ENDBRANCH   3   6
BRANCH   1  19
ATOM     16  C   UNL     1       8.668  -3.641  25.829  0.00  0.00    +0.059 A 
ATOM     17  C   UNL     1       9.251  -3.759  24.563  0.00  0.00    +0.015 A 
ATOM     18  C   UNL     1       9.525  -2.615  23.803  0.00  0.00    +0.012 A 
ATOM     19  C   UNL     1       9.212  -1.336  24.289  0.00  0.00    +0.017 A 
ATOM     20  C   UNL     1       8.648  -1.233  25.570  0.00  0.00    +0.012 A 
ATOM     21  C   UNL     1       8.364  -2.372  26.331  0.00  0.00    +0.015 A 
BRANCH  16  22
ATOM     22  C   UNL     1       8.322  -4.881  26.570  0.00  0.00    +0.337 C 
ATOM     23  O   UNL     1       7.521  -4.900  27.489  0.00  0.00    -0.245 OA
BRANCH  22  24
ATOM     24  O   UNL     1       8.951  -5.987  26.122  0.00  0.00    -0.477 OA
ATOM     25  H   UNL     1       9.827  -5.834  25.723  0.00  0.00    +0.295 HD
ENDBRANCH  22  24
ENDBRANCH  16  22
ENDBRANCH   1  19
TORSDOF 4
ENDMDL
MODEL 4
REMARK VINA RESULT:      -7.3      5.025      8.870
REMARK  Name = 
REMARK  4 active torsions:
REMARK  status: ('A' for Active; 'I' for Inactive)
REMARK    1  A    between atoms: O_1  and  C_2
REMARK    2  A    between atoms: C_2  and  C_4
REMARK    3  A    between atoms: C_7  and  C_10
REMARK    4  A    between atoms: C_13  and  C_15
REMARK                            x       y       z     vdW  Elec       q    Type
REMARK                         _______ _______ _______ _____ _____    ______ ____
ROOT
ATOM      1  C   UNL     1       9.129  -1.481  23.329  0.00  0.00    +0.136 A 
ATOM      2  O   UNL     1       9.411  -0.309  23.962  0.00  0.00    -0.455 OA
ATOM      3  C   UNL     1       9.831   0.618  23.035  0.00  0.00    +0.130 A 
ATOM      4  C   UNL     1       9.857  -0.015  21.800  0.00  0.00    +0.050 A 
ATOM      5  C   UNL     1       9.388  -1.337  21.983  0.00  0.00    +0.050 A 
ENDROOT
BRANCH   3   6
ATOM      6  C   UNL     1      10.144   1.972  23.333  0.00  0.00    +0.066 C 
ATOM      7  C   UNL     1       9.238   2.956  23.281  0.00  0.00    +0.081 C 
ATOM      8  C   UNL     1       9.643   4.390  23.403  0.00  0.00    +0.257 C 
ATOM      9  O   UNL     1      10.751   4.782  23.736  0.00  0.00    -0.269 OA
ATOM     10  N   UNL     1       8.609   5.188  23.013  0.00  0.00    -0.261 N 
ATOM     11  H   UNL     1       8.718   6.183  22.914  0.00  0.00    +0.157 HD
ATOM     12  C   UNL     1       7.500   4.562  22.580  0.00  0.00    +0.158 C 
ATOM     13  N   UNL     1       6.521   5.163  22.016  0.00  0.00    -0.279 NA
ATOM     14  H   UNL     1       5.831   4.446  21.762  0.00  0.00    +0.189 HD
ATOM     15  S   UNL     1       7.567   2.863  22.842  0.00  0.00    -0.049 S 
ENDBRANCH   3   6
BRANCH   1  19
ATOM     16  C   UNL     1       7.639  -4.632  25.821  0.00  0.00    +0.059 A 
ATOM     17  C   UNL     1       7.711  -4.814  24.436  0.00  0.00    +0.015 A 
ATOM     18  C   UNL     1       8.224  -3.799  23.618  0.00  0.00    +0.012 A 
ATOM     19  C   UNL     1       8.663  -2.585  24.166  0.00  0.00    +0.017 A 
ATOM     20  C   UNL     1       8.605  -2.426  25.559  0.00  0.00    +0.012 A 
ATOM     21  C   UNL     1       8.087  -3.432  26.382  0.00  0.00    +0.015 A 
BRANCH  16  22
ATOM     22  C   UNL     1       7.017  -5.699  26.647  0.00  0.00    +0.337 C 
ATOM     23  O   UNL     1       5.991  -6.272  26.322  0.00  0.00    -0.245 OA
BRANCH  22  24
ATOM     24  O   UNL     1       7.698  -5.995  27.772  0.00  0.00    -0.477 OA
ATOM     25  H   UNL     1       8.170  -6.848  27.760  0.00  0.00    +0.295 HD
ENDBRANCH  22  24
ENDBRANCH  16  22
ENDBRANCH   1  19
TORSDOF 4
ENDMDL
MODEL 5
REMARK VINA RESULT:      -7.1      3.152      3.970
REMARK  Name = 
REMARK  4 active torsions:
REMARK  status: ('A' for Active; 'I' for Inactive)
REMARK    1  A    between atoms: O_1  and  C_2
REMARK    2  A    between atoms: C_2  and  C_4
REMARK    3  A    between atoms: C_7  and  C_10
REMARK    4  A    between atoms: C_13  and  C_15
REMARK                            x       y       z     vdW  Elec       q    Type
REMARK                         _______ _______ _______ _____ _____    ______ ____
ROOT
ATOM      1  C   UNL     1       9.013  -0.069  24.912  0.00  0.00    +0.136 A 
ATOM      2  O   UNL     1       9.031  -1.038  23.955  0.00  0.00    -0.455 OA
ATOM      3  C   UNL     1       8.668  -2.239  24.519  0.00  0.00    +0.130 A 
ATOM      4  C   UNL     1       8.469  -2.017  25.874  0.00  0.00    +0.050 A 
ATOM      5  C   UNL     1       8.662  -0.637  26.118  0.00  0.00    +0.050 A 
ENDROOT
BRANCH   3   6
ATOM      6  C   UNL     1       8.514  -3.455  23.797  0.00  0.00    +0.066 C 
ATOM      7  C   UNL     1       7.347  -3.847  23.273  0.00  0.00    +0.081 C 
ATOM      8  C   UNL     1       7.174  -5.216  22.699  0.00  0.00    +0.257 C 
ATOM      9  O   UNL     1       8.079  -6.008  22.486  0.00  0.00    -0.269 OA
ATOM     10  N   UNL     1       5.847  -5.470  22.523  0.00  0.00    -0.261 N 
ATOM     11  H   UNL     1       5.514  -6.381  22.253  0.00  0.00    +0.157 HD
ATOM     12  C   UNL     1       4.995  -4.506  22.915  0.00  0.00    +0.158 C 
ATOM     13  N   UNL     1       3.726  -4.664  22.983  0.00  0.00    -0.279 NA
ATOM     14  H   UNL     1       3.330  -3.787  23.340  0.00  0.00    +0.189 HD
ATOM     15  S   UNL     1       5.810  -3.054  23.347  0.00  0.00    -0.049 S 
ENDBRANCH   3   6
BRANCH   1  19
ATOM     16  C   UNL     1      10.083   3.932  23.812  0.00  0.00    +0.059 A 
ATOM     17  C   UNL     1      10.916   2.865  23.458  0.00  0.00    +0.015 A 
ATOM     18  C   UNL     1      10.558   1.552  23.788  0.00  0.00    +0.012 A 
ATOM     19  C   UNL     1       9.371   1.282  24.486  0.00  0.00    +0.017 A 
ATOM     20  C   UNL     1       8.536   2.361  24.815  0.00  0.00    +0.012 A 
ATOM     21  C   UNL     1       8.890   3.676  24.496  0.00  0.00    +0.015 A 
BRANCH  16  22
ATOM     22  C   UNL     1      10.535   5.315  23.514  0.00  0.00    +0.337 C 
ATOM     23  O   UNL     1      11.677   5.694  23.709  0.00  0.00    -0.245 OA
BRANCH  22  24
ATOM     24  O   UNL     1       9.579   6.106  22.985  0.00  0.00    -0.477 OA
ATOM     25  H   UNL     1       8.901   6.416  23.613  0.00  0.00    +0.295 HD
ENDBRANCH  22  24
ENDBRANCH  16  22
ENDBRANCH   1  19
TORSDOF 4
ENDMDL
MODEL 6
REMARK VINA RESULT:      -7.1      1.847      2.167
REMARK  Name = 
REMARK  4 active torsions:
REMARK  status: ('A' for Active; 'I' for Inactive)
REMARK    1  A    between atoms: O_1  and  C_2
REMARK    2  A    between atoms: C_2  and  C_4
REMARK    3  A    between atoms: C_7  and  C_10
REMARK    4  A    between atoms: C_13  and  C_15
REMARK                            x       y       z     vdW  Elec       q    Type
REMARK                         _______ _______ _______ _____ _____    ______ ____
ROOT
ATOM      1  C   UNL     1       7.059  -3.570  22.621  0.00  0.00    +0.136 A 
ATOM      2  O   UNL     1       5.926  -3.628  23.374  0.00  0.00    -0.455 OA
ATOM      3  C   UNL     1       5.430  -4.911  23.349  0.00  0.00    +0.130 A 
ATOM      4  C   UNL     1       6.251  -5.656  22.515  0.00  0.00    +0.050 A 
ATOM      5  C   UNL     1       7.297  -4.813  22.074  0.00  0.00    +0.050 A 
ENDROOT
BRANCH   3   6
ATOM      6  C   UNL     1       4.293  -5.351  24.081  0.00  0.00    +0.066 C 
ATOM      7  C   UNL     1       4.357  -5.732  25.363  0.00  0.00    +0.081 C 
ATOM      8  C   UNL     1       3.190  -6.377  26.040  0.00  0.00    +0.257 C 
ATOM      9  O   UNL     1       2.060  -6.443  25.581  0.00  0.00    -0.269 OA
ATOM     10  N   UNL     1       3.600  -6.941  27.210  0.00  0.00    -0.261 N 
ATOM     11  H   UNL     1       2.988  -7.521  27.760  0.00  0.00    +0.157 HD
ATOM     12  C   UNL     1       4.911  -6.848  27.494  0.00  0.00    +0.158 C 
ATOM     13  N   UNL     1       5.476  -7.478  28.455  0.00  0.00    -0.279 NA
ATOM     14  H   UNL     1       6.476  -7.250  28.420  0.00  0.00    +0.189 HD
ATOM     15  S   UNL     1       5.742  -5.817  26.396  0.00  0.00    -0.049 S 
ENDBRANCH   3   6
BRANCH   1  19
ATOM     16  C   UNL     1       9.013   0.242  22.529  0.00  0.00    +0.059 A 
ATOM     17  C   UNL     1       9.705  -0.905  22.128  0.00  0.00    +0.015 A 
ATOM     18  C   UNL     1       9.064  -2.151  22.128  0.00  0.00    +0.012 A 
ATOM     19  C   UNL     1       7.727  -2.274  22.537  0.00  0.00    +0.017 A 
ATOM     20  C   UNL     1       7.040  -1.110  22.915  0.00  0.00    +0.012 A 
ATOM     21  C   UNL     1       7.676   0.137  22.926  0.00  0.00    +0.015 A 
BRANCH  16  22
ATOM     22  C   UNL     1       9.749   1.531  22.591  0.00  0.00    +0.337 C 
ATOM     23  O   UNL     1      10.345   1.904  23.587  0.00  0.00    -0.245 OA
BRANCH  22  24
ATOM     24  O   UNL     1       9.723   2.238  21.443  0.00  0.00    -0.477 OA
ATOM     25  H   UNL     1       9.785   1.708  20.627  0.00  0.00    +0.295 HD
ENDBRANCH  22  24
ENDBRANCH  16  22
ENDBRANCH   1  19
TORSDOF 4
ENDMDL
MODEL 7
REMARK VINA RESULT:      -7.1      5.129      8.537
REMARK  Name = 
REMARK  4 active torsions:
REMARK  status: ('A' for Active; 'I' for Inactive)
REMARK    1  A    between atoms: O_1  and  C_2
REMARK    2  A    between atoms: C_2  and  C_4
REMARK    3  A    between atoms: C_7  and  C_10
REMARK    4  A    between atoms: C_13  and  C_15
REMARK                            x       y       z     vdW  Elec       q    Type
REMARK                         _______ _______ _______ _____ _____    ______ ____
ROOT
ATOM      1  C   UNL     1       8.331  -1.611  24.658  0.00  0.00    +0.136 A 
ATOM      2  O   UNL     1       8.756  -0.507  23.984  0.00  0.00    -0.455 OA
ATOM      3  C   UNL     1       9.269   0.402  24.880  0.00  0.00    +0.130 A 
ATOM      4  C   UNL     1       9.110  -0.134  26.150  0.00  0.00    +0.050 A 
ATOM      5  C   UNL     1       8.540  -1.420  26.007  0.00  0.00    +0.050 A 
ENDROOT
BRANCH   3   6
ATOM      6  C   UNL     1       9.865   1.641  24.520  0.00  0.00    +0.066 C 
ATOM      7  C   UNL     1       9.158   2.687  24.075  0.00  0.00    +0.081 C 
ATOM      8  C   UNL     1       9.832   3.899  23.517  0.00  0.00    +0.257 C 
ATOM      9  O   UNL     1      11.030   4.130  23.582  0.00  0.00    -0.269 OA
ATOM     10  N   UNL     1       8.916   4.666  22.862  0.00  0.00    -0.261 N 
ATOM     11  H   UNL     1       9.189   5.469  22.319  0.00  0.00    +0.157 HD
ATOM     12  C   UNL     1       7.659   4.189  22.814  0.00  0.00    +0.158 C 
ATOM     13  N   UNL     1       6.735   4.697  22.089  0.00  0.00    -0.279 NA
ATOM     14  H   UNL     1       5.896   4.120  22.220  0.00  0.00    +0.189 HD
ATOM     15  S   UNL     1       7.452   2.801  23.809  0.00  0.00    -0.049 S 
ENDBRANCH   3   6
BRANCH   1  19
ATOM     16  C   UNL     1       6.708  -4.710  22.184  0.00  0.00    +0.059 A 
ATOM     17  C   UNL     1       7.686  -5.019  23.135  0.00  0.00    +0.015 A 
ATOM     18  C   UNL     1       8.200  -4.016  23.967  0.00  0.00    +0.012 A 
ATOM     19  C   UNL     1       7.756  -2.690  23.857  0.00  0.00    +0.017 A 
ATOM     20  C   UNL     1       6.759  -2.401  22.913  0.00  0.00    +0.012 A 
ATOM     21  C   UNL     1       6.246  -3.395  22.073  0.00  0.00    +0.015 A 
BRANCH  16  22
ATOM     22  C   UNL     1       6.245  -5.784  21.268  0.00  0.00    +0.337 C 
ATOM     23  O   UNL     1       5.966  -5.580  20.098  0.00  0.00    -0.245 OA
BRANCH  22  24
ATOM     24  O   UNL     1       6.184  -7.006  21.835  0.00  0.00    -0.477 OA
ATOM     25  H   UNL     1       6.807  -7.663  21.475  0.00  0.00    +0.295 HD
ENDBRANCH  22  24
ENDBRANCH  16  22
ENDBRANCH   1  19
TORSDOF 4
ENDMDL
MODEL 8
REMARK VINA RESULT:      -7.0      2.828      4.726
REMARK  Name = 
REMARK  4 active torsions:
REMARK  status: ('A' for Active; 'I' for Inactive)
REMARK    1  A    between atoms: O_1  and  C_2
REMARK    2  A    between atoms: C_2  and  C_4
REMARK    3  A    between atoms: C_7  and  C_10
REMARK    4  A    between atoms: C_13  and  C_15
REMARK                            x       y       z     vdW  Elec       q    Type
REMARK                         _______ _______ _______ _____ _____    ______ ____
ROOT
ATOM      1  C   UNL     1       9.633   0.854  22.664  0.00  0.00    +0.136 A 
ATOM      2  O   UNL     1       9.806  -0.123  23.597  0.00  0.00    -0.455 OA
ATOM      3  C   UNL     1       9.714  -1.353  22.988  0.00  0.00    +0.130 A 
ATOM      4  C   UNL     1       9.426  -1.131  21.649  0.00  0.00    +0.050 A 
ATOM      5  C   UNL     1       9.400   0.267  21.439  0.00  0.00    +0.050 A 
ENDROOT
BRANCH   3   6
ATOM      6  C   UNL     1       9.912  -2.596  23.648  0.00  0.00    +0.066 C 
ATOM      7  C   UNL     1       8.901  -3.367  24.066  0.00  0.00    +0.081 C 
ATOM      8  C   UNL     1       9.142  -4.563  24.931  0.00  0.00    +0.257 C 
ATOM      9  O   UNL     1      10.238  -5.045  25.173  0.00  0.00    -0.269 OA
ATOM     10  N   UNL     1       7.961  -4.982  25.464  0.00  0.00    -0.261 N 
ATOM     11  H   UNL     1       7.923  -5.705  26.164  0.00  0.00    +0.157 HD
ATOM     12  C   UNL     1       6.872  -4.254  25.157  0.00  0.00    +0.158 C 
ATOM     13  N   UNL     1       5.732  -4.411  25.718  0.00  0.00    -0.279 NA
ATOM     14  H   UNL     1       5.099  -3.708  25.319  0.00  0.00    +0.189 HD
ATOM     15  S   UNL     1       7.200  -3.071  23.952  0.00  0.00    -0.049 S 
ENDBRANCH   3   6
BRANCH   1  19
ATOM     16  C   UNL     1       9.890   4.945  23.912  0.00  0.00    +0.059 A 
ATOM     17  C   UNL     1       8.640   4.327  23.803  0.00  0.00    +0.015 A 
ATOM     18  C   UNL     1       8.549   2.982  23.423  0.00  0.00    +0.012 A 
ATOM     19  C   UNL     1       9.702   2.235  23.137  0.00  0.00    +0.017 A 
ATOM     20  C   UNL     1      10.950   2.863  23.273  0.00  0.00    +0.012 A 
ATOM     21  C   UNL     1      11.048   4.209  23.644  0.00  0.00    +0.015 A 
BRANCH  16  22
ATOM     22  C   UNL     1       9.940   6.393  24.241  0.00  0.00    +0.337 C 
ATOM     23  O   UNL     1      10.863   6.899  24.855  0.00  0.00    -0.245 OA
BRANCH  22  24
ATOM     24  O   UNL     1       8.890   7.101  23.778  0.00  0.00    -0.477 OA
ATOM     25  H   UNL     1       8.159   7.223  24.411  0.00  0.00    +0.295 HD
ENDBRANCH  22  24
ENDBRANCH  16  22
ENDBRANCH   1  19
TORSDOF 4
ENDMDL
MODEL 9
REMARK VINA RESULT:      -7.0      2.708      3.778
REMARK  Name = 
REMARK  4 active torsions:
REMARK  status: ('A' for Active; 'I' for Inactive)
REMARK    1  A    between atoms: O_1  and  C_2
REMARK    2  A    between atoms: C_2  and  C_4
REMARK    3  A    between atoms: C_7  and  C_10
REMARK    4  A    between atoms: C_13  and  C_15
REMARK                            x       y       z     vdW  Elec       q    Type
REMARK                         _______ _______ _______ _____ _____    ______ ____
ROOT
ATOM      1  C   UNL     1       8.967   0.082  23.050  0.00  0.00    +0.136 A 
ATOM      2  O   UNL     1       7.928  -0.800  23.034  0.00  0.00    -0.455 OA
ATOM      3  C   UNL     1       8.423  -2.083  23.044  0.00  0.00    +0.130 A 
ATOM      4  C   UNL     1       9.807  -1.994  23.015  0.00  0.00    +0.050 A 
ATOM      5  C   UNL     1      10.152  -0.622  23.044  0.00  0.00    +0.050 A 
ENDROOT
BRANCH   3   6
ATOM      6  C   UNL     1       7.621  -3.256  23.100  0.00  0.00    +0.066 C 
ATOM      7  C   UNL     1       7.363  -3.907  24.241  0.00  0.00    +0.081 C 
ATOM      8  C   UNL     1       6.689  -5.241  24.238  0.00  0.00    +0.257 C 
ATOM      9  O   UNL     1       6.160  -5.759  23.267  0.00  0.00    -0.269 OA
ATOM     10  N   UNL     1       6.823  -5.820  25.465  0.00  0.00    -0.261 N 
ATOM     11  H   UNL     1       6.536  -6.769  25.636  0.00  0.00    +0.157 HD
ATOM     12  C   UNL     1       7.532  -5.132  26.378  0.00  0.00    +0.158 C 
ATOM     13  N   UNL     1       7.896  -5.616  27.505  0.00  0.00    -0.279 NA
ATOM     14  H   UNL     1       8.445  -4.892  27.982  0.00  0.00    +0.189 HD
ATOM     15  S   UNL     1       7.918  -3.544  25.839  0.00  0.00    -0.049 S 
ENDBRANCH   3   6
BRANCH   1  19
ATOM     16  C   UNL     1       8.098   4.277  22.973  0.00  0.00    +0.059 A 
ATOM     17  C   UNL     1       7.361   3.398  22.173  0.00  0.00    +0.015 A 
ATOM     18  C   UNL     1       7.620   2.022  22.214  0.00  0.00    +0.012 A 
ATOM     19  C   UNL     1       8.624   1.502  23.045  0.00  0.00    +0.017 A 
ATOM     20  C   UNL     1       9.339   2.394  23.858  0.00  0.00    +0.012 A 
ATOM     21  C   UNL     1       9.092   3.771  23.817  0.00  0.00    +0.015 A 
BRANCH  16  22
ATOM     22  C   UNL     1       7.848   5.735  22.843  0.00  0.00    +0.337 C 
ATOM     23  O   UNL     1       7.730   6.474  23.806  0.00  0.00    -0.245 OA
BRANCH  22  24
ATOM     24  O   UNL     1       7.789   6.174  21.569  0.00  0.00    -0.477 OA
ATOM     25  H   UNL     1       8.650   6.338  21.145  0.00  0.00    +0.295 HD
ENDBRANCH  22  24
ENDBRANCH  16  22
ENDBRANCH   1  19
TORSDOF 4
ENDMDL
