MODEL 1
REMARK VINA RESULT:      -6.8      0.000      0.000
REMARK  Name = 
REMARK  8 active torsions:
REMARK  status: ('A' for Active; 'I' for Inactive)
REMARK    1  A    between atoms: N_11  and  C_12
REMARK    2  A    between atoms: C_15  and  C_17
REMARK    3  A    between atoms: C_17  and  O_18
REMARK    4  A    between atoms: O_18  and  P_19
REMARK    5  A    between atoms: P_19  and  O_20
REMARK    6  A    between atoms: P_19  and  O_21
REMARK    7  A    between atoms: C_23  and  O_25
REMARK    8  A    between atoms: C_26  and  O_28
REMARK                            x       y       z     vdW  Elec       q    Type
REMARK                         _______ _______ _______ _____ _____    ______ ____
ROOT
ATOM      1  C   UNL     1       8.330  -4.740  24.069  0.00  0.00    +0.254 C 
ATOM      2  C   UNL     1       9.338  -4.809  25.231  0.00  0.00    +0.195 C 
ATOM      3  C   UNL     1       8.480  -4.708  26.497  0.00  0.00    +0.178 C 
ATOM      4  C   UNL     1       7.040  -4.808  25.987  0.00  0.00    +0.178 C 
ATOM      5  O   UNL     1       7.115  -5.302  24.641  0.00  0.00    -0.346 OA
ENDROOT
BRANCH   1  13
ATOM      6  N   UNL     1       7.699   1.007  22.181  0.00  0.00    -0.341 N 
ATOM      7  H   UNL     1       7.301   0.657  21.315  0.00  0.00    +0.144 HD
ATOM      8  H   UNL     1       8.299   1.819  22.122  0.00  0.00    +0.144 HD
ATOM      9  C   UNL     1       8.259   0.009  22.972  0.00  0.00    +0.147 A 
ATOM     10  C   UNL     1       7.905  -1.351  22.866  0.00  0.00    +0.148 A 
ATOM     11  N   UNL     1       7.042  -2.027  22.034  0.00  0.00    -0.216 NA
ATOM     12  C   UNL     1       7.135  -3.291  22.397  0.00  0.00    +0.182 A 
ATOM     13  N   UNL     1       8.009  -3.464  23.454  0.00  0.00    -0.274 N 
ATOM     14 BR   UNL     1       6.161  -4.631  21.513  0.00  0.00    -0.008 Br
ATOM     15  C   UNL     1       8.540  -2.230  23.726  0.00  0.00    +0.168 A 
ATOM     16  N   UNL     1       9.472  -1.911  24.634  0.00  0.00    -0.216 NA
ATOM     17  C   UNL     1       9.735  -0.592  24.650  0.00  0.00    +0.225 A 
ATOM     18  N   UNL     1       9.195   0.370  23.866  0.00  0.00    -0.219 NA
ENDBRANCH   1  13
BRANCH   2  19
ATOM     19  O   UNL     1       9.992  -6.098  25.215  0.00  0.00    -0.385 OA
ATOM     20  H   UNL     1       9.809  -6.527  24.359  0.00  0.00    +0.210 HD
ENDBRANCH   2  19
BRANCH   3  21
ATOM     21  O   UNL     1       8.681  -3.477  27.182  0.00  0.00    -0.386 OA
ATOM     22  H   UNL     1       7.806  -3.080  27.344  0.00  0.00    +0.210 HD
ENDBRANCH   3  21
BRANCH   4  23
ATOM     23  C   UNL     1       6.164  -5.711  26.857  0.00  0.00    +0.206 C 
BRANCH  23  24
ATOM     24  O   UNL     1       6.861  -6.039  28.054  0.00  0.00    -0.284 OA
BRANCH  24  25
ATOM     25  P   UNL     1       5.823  -6.561  29.337  0.00  0.00    +0.472 P 
ATOM     26  O   UNL     1       4.895  -7.030  30.484  0.00  0.00    -0.228 OA
BRANCH  25  27
ATOM     27  O   UNL     1       7.064  -7.557  29.716  0.00  0.00    -0.303 OA
ATOM     28  H   UNL     1       6.750  -8.475  29.814  0.00  0.00    +0.222 HD
ENDBRANCH  25  27
BRANCH  25  29
ATOM     29  O   UNL     1       5.192  -7.503  28.160  0.00  0.00    -0.303 OA
ATOM     30  H   UNL     1       5.736  -7.374  27.363  0.00  0.00    +0.222 HD
ENDBRANCH  25  29
ENDBRANCH  24  25
ENDBRANCH  23  24
ENDBRANCH   4  23
TORSDOF 8
ENDMDL
MODEL 2
REMARK VINA RESULT:      -6.7      3.955      6.206
REMARK  Name = 
REMARK  8 active torsions:
REMARK  status: ('A' for Active; 'I' for Inactive)
REMARK    1  A    between atoms: N_11  and  C_12
REMARK    2  A    between atoms: C_15  and  C_17
REMARK    3  A    between atoms: C_17  and  O_18
REMARK    4  A    between atoms: O_18  and  P_19
REMARK    5  A    between atoms: P_19  and  O_20
REMARK    6  A    between atoms: P_19  and  O_21
REMARK    7  A    between atoms: C_23  and  O_25
REMARK    8  A    between atoms: C_26  and  O_28
REMARK                            x       y       z     vdW  Elec       q    Type
REMARK                         _______ _______ _______ _____ _____    ______ ____
ROOT
ATOM      1  C   UNL     1       8.032  -5.123  26.100  0.00  0.00    +0.254 C 
ATOM      2  C   UNL     1       9.233  -4.910  25.161  0.00  0.00    +0.195 C 
ATOM      3  C   UNL     1       9.238  -3.405  24.869  0.00  0.00    +0.178 C 
ATOM      4  C   UNL     1       8.187  -2.832  25.822  0.00  0.00    +0.178 C 
ATOM      5  O   UNL     1       7.919  -3.851  26.798  0.00  0.00    -0.346 OA
ENDROOT
BRANCH   1  13
ATOM      6  N   UNL     1       3.032  -6.372  22.871  0.00  0.00    -0.341 N 
ATOM      7  H   UNL     1       2.680  -6.907  23.660  0.00  0.00    +0.144 HD
ATOM      8  H   UNL     1       2.839  -6.731  21.945  0.00  0.00    +0.144 HD
ATOM      9  C   UNL     1       4.362  -5.994  23.011  0.00  0.00    +0.147 A 
ATOM     10  C   UNL     1       5.015  -5.908  24.258  0.00  0.00    +0.148 A 
ATOM     11  N   UNL     1       4.604  -6.173  25.544  0.00  0.00    -0.216 NA
ATOM     12  C   UNL     1       5.655  -5.919  26.298  0.00  0.00    +0.182 A 
ATOM     13  N   UNL     1       6.732  -5.473  25.555  0.00  0.00    -0.274 N 
ATOM     14 BR   UNL     1       5.602  -6.174  28.158  0.00  0.00    -0.008 Br
ATOM     15  C   UNL     1       6.340  -5.510  24.242  0.00  0.00    +0.168 A 
ATOM     16  N   UNL     1       7.065  -5.218  23.153  0.00  0.00    -0.216 NA
ATOM     17  C   UNL     1       6.348  -5.334  22.021  0.00  0.00    +0.225 A 
ATOM     18  N   UNL     1       5.055  -5.717  21.894  0.00  0.00    -0.219 NA
ENDBRANCH   1  13
BRANCH   2  19
ATOM     19  O   UNL     1      10.450  -5.250  25.864  0.00  0.00    -0.385 OA
ATOM     20  H   UNL     1      11.078  -5.635  25.227  0.00  0.00    +0.210 HD
ENDBRANCH   2  19
BRANCH   3  21
ATOM     21  O   UNL     1       8.893  -3.122  23.518  0.00  0.00    -0.386 OA
ATOM     22  H   UNL     1       8.019  -2.692  23.518  0.00  0.00    +0.210 HD
ENDBRANCH   3  21
BRANCH   4  23
ATOM     23  C   UNL     1       8.636  -1.533  26.491  0.00  0.00    +0.206 C 
BRANCH  23  24
ATOM     24  O   UNL     1       9.480  -0.807  25.602  0.00  0.00    -0.284 OA
BRANCH  24  25
ATOM     25  P   UNL     1       8.754   0.636  24.983  0.00  0.00    +0.472 P 
ATOM     26  O   UNL     1       8.105   1.928  24.429  0.00  0.00    -0.228 OA
BRANCH  25  27
ATOM     27  O   UNL     1       8.836  -0.135  23.543  0.00  0.00    -0.303 OA
ATOM     28  H   UNL     1       8.067  -0.721  23.423  0.00  0.00    +0.222 HD
ENDBRANCH  25  27
BRANCH  25  29
ATOM     29  O   UNL     1      10.299   1.166  24.990  0.00  0.00    -0.303 OA
ATOM     30  H   UNL     1      10.591   1.195  25.919  0.00  0.00    +0.222 HD
ENDBRANCH  25  29
ENDBRANCH  24  25
ENDBRANCH  23  24
ENDBRANCH   4  23
TORSDOF 8
ENDMDL
MODEL 3
REMARK VINA RESULT:      -6.7      1.708      2.020
REMARK  Name = 
REMARK  8 active torsions:
REMARK  status: ('A' for Active; 'I' for Inactive)
REMARK    1  A    between atoms: N_11  and  C_12
REMARK    2  A    between atoms: C_15  and  C_17
REMARK    3  A    between atoms: C_17  and  O_18
REMARK    4  A    between atoms: O_18  and  P_19
REMARK    5  A    between atoms: P_19  and  O_20
REMARK    6  A    between atoms: P_19  and  O_21
REMARK    7  A    between atoms: C_23  and  O_25
REMARK    8  A    between atoms: C_26  and  O_28
REMARK                            x       y       z     vdW  Elec       q    Type
REMARK                         _______ _______ _______ _____ _____    ______ ____
ROOT
ATOM      1  C   UNL     1       7.291  -5.012  25.154  0.00  0.00    +0.254 C 
ATOM      2  C   UNL     1       7.639  -4.575  26.589  0.00  0.00    +0.195 C 
ATOM      3  C   UNL     1       6.398  -3.822  27.079  0.00  0.00    +0.178 C 
ATOM      4  C   UNL     1       5.353  -4.064  25.987  0.00  0.00    +0.178 C 
ATOM      5  O   UNL     1       5.842  -5.149  25.184  0.00  0.00    -0.346 OA
ENDROOT
BRANCH   1  13
ATOM      6  N   UNL     1       9.285  -0.877  21.165  0.00  0.00    -0.341 N 
ATOM      7  H   UNL     1       9.180  -1.567  20.427  0.00  0.00    +0.144 HD
ATOM      8  H   UNL     1      10.078  -0.252  21.106  0.00  0.00    +0.144 HD
ATOM      9  C   UNL     1       9.142  -1.408  22.442  0.00  0.00    +0.147 A 
ATOM     10  C   UNL     1       8.457  -2.612  22.706  0.00  0.00    +0.148 A 
ATOM     11  N   UNL     1       7.836  -3.529  21.888  0.00  0.00    -0.216 NA
ATOM     12  C   UNL     1       7.379  -4.459  22.702  0.00  0.00    +0.182 A 
ATOM     13  N   UNL     1       7.656  -4.172  24.026  0.00  0.00    -0.274 N 
ATOM     14 BR   UNL     1       6.477  -5.970  22.044  0.00  0.00    -0.008 Br
ATOM     15  C   UNL     1       8.388  -3.013  24.027  0.00  0.00    +0.168 A 
ATOM     16  N   UNL     1       8.927  -2.377  25.076  0.00  0.00    -0.216 NA
ATOM     17  C   UNL     1       9.556  -1.244  24.713  0.00  0.00    +0.225 A 
ATOM     18  N   UNL     1       9.703  -0.742  23.464  0.00  0.00    -0.219 NA
ENDBRANCH   1  13
BRANCH   2  19
ATOM     19  O   UNL     1       7.823  -5.751  27.409  0.00  0.00    -0.385 OA
ATOM     20  H   UNL     1       7.439  -5.578  28.288  0.00  0.00    +0.210 HD
ENDBRANCH   2  19
BRANCH   3  21
ATOM     21  O   UNL     1       6.644  -2.429  27.233  0.00  0.00    -0.386 OA
ATOM     22  H   UNL     1       7.032  -2.291  28.116  0.00  0.00    +0.210 HD
ENDBRANCH   3  21
BRANCH   4  23
ATOM     23  C   UNL     1       3.966  -4.377  26.550  0.00  0.00    +0.206 C 
BRANCH  23  24
ATOM     24  O   UNL     1       3.737  -5.782  26.497  0.00  0.00    -0.284 OA
BRANCH  24  25
ATOM     25  P   UNL     1       3.911  -6.568  28.028  0.00  0.00    +0.472 P 
ATOM     26  O   UNL     1       4.066  -7.274  29.398  0.00  0.00    -0.228 OA
BRANCH  25  27
ATOM     27  O   UNL     1       5.192  -7.301  27.323  0.00  0.00    -0.303 OA
ATOM     28  H   UNL     1       5.973  -6.718  27.341  0.00  0.00    +0.222 HD
ENDBRANCH  25  27
BRANCH  25  29
ATOM     29  O   UNL     1       2.774  -7.564  27.409  0.00  0.00    -0.303 OA
ATOM     30  H   UNL     1       2.354  -7.097  26.664  0.00  0.00    +0.222 HD
ENDBRANCH  25  29
ENDBRANCH  24  25
ENDBRANCH  23  24
ENDBRANCH   4  23
TORSDOF 8
ENDMDL
MODEL 4
REMARK VINA RESULT:      -6.6      2.238      2.808
REMARK  Name = 
REMARK  8 active torsions:
REMARK  status: ('A' for Active; 'I' for Inactive)
REMARK    1  A    between atoms: N_11  and  C_12
REMARK    2  A    between atoms: C_15  and  C_17
REMARK    3  A    between atoms: C_17  and  O_18
REMARK    4  A    between atoms: O_18  and  P_19
REMARK    5  A    between atoms: P_19  and  O_20
REMARK    6  A    between atoms: P_19  and  O_21
REMARK    7  A    between atoms: C_23  and  O_25
REMARK    8  A    between atoms: C_26  and  O_28
REMARK                            x       y       z     vdW  Elec       q    Type
REMARK                         _______ _______ _______ _____ _____    ______ ____
ROOT
ATOM      1  C   UNL     1       7.432  -5.061  25.143  0.00  0.00    +0.254 C 
ATOM      2  C   UNL     1       7.535  -4.789  26.655  0.00  0.00    +0.195 C 
ATOM      3  C   UNL     1       6.112  -4.412  27.081  0.00  0.00    +0.178 C 
ATOM      4  C   UNL     1       5.257  -4.703  25.845  0.00  0.00    +0.178 C 
ATOM      5  O   UNL     1       6.059  -5.516  24.974  0.00  0.00    -0.346 OA
ENDROOT
BRANCH   1  13
ATOM      6  N   UNL     1       8.791  -0.029  22.009  0.00  0.00    -0.341 N 
ATOM      7  H   UNL     1       8.882  -0.599  21.172  0.00  0.00    +0.144 HD
ATOM      8  H   UNL     1       9.438   0.739  22.119  0.00  0.00    +0.144 HD
ATOM      9  C   UNL     1       8.674  -0.777  23.175  0.00  0.00    +0.147 A 
ATOM     10  C   UNL     1       8.238  -2.118  23.194  0.00  0.00    +0.148 A 
ATOM     11  N   UNL     1       7.879  -2.994  22.195  0.00  0.00    -0.216 NA
ATOM     12  C   UNL     1       7.571  -4.115  22.817  0.00  0.00    +0.182 A 
ATOM     13  N   UNL     1       7.691  -3.996  24.190  0.00  0.00    -0.274 N 
ATOM     14 BR   UNL     1       7.050  -5.646  21.863  0.00  0.00    -0.008 Br
ATOM     15  C   UNL     1       8.164  -2.733  24.430  0.00  0.00    +0.168 A 
ATOM     16  N   UNL     1       8.485  -2.180  25.608  0.00  0.00    -0.216 NA
ATOM     17  C   UNL     1       8.889  -0.904  25.476  0.00  0.00    +0.225 A 
ATOM     18  N   UNL     1       9.013  -0.188  24.333  0.00  0.00    -0.219 NA
ENDBRANCH   1  13
BRANCH   2  19
ATOM     19  O   UNL     1       7.915  -6.009  27.330  0.00  0.00    -0.385 OA
ATOM     20  H   UNL     1       7.489  -6.023  28.207  0.00  0.00    +0.210 HD
ENDBRANCH   2  19
BRANCH   3  21
ATOM     21  O   UNL     1       6.009  -3.041  27.446  0.00  0.00    -0.386 OA
ATOM     22  H   UNL     1       5.328  -2.633  26.882  0.00  0.00    +0.210 HD
ENDBRANCH   3  21
BRANCH   4  23
ATOM     23  C   UNL     1       3.938  -5.397  26.185  0.00  0.00    +0.206 C 
BRANCH  23  24
ATOM     24  O   UNL     1       3.272  -5.768  24.982  0.00  0.00    -0.284 OA
BRANCH  24  25
ATOM     25  P   UNL     1       2.898  -7.454  24.891  0.00  0.00    +0.472 P 
ATOM     26  O   UNL     1       2.564  -8.964  24.810  0.00  0.00    -0.228 OA
BRANCH  25  27
ATOM     27  O   UNL     1       3.802  -7.562  26.250  0.00  0.00    -0.303 OA
ATOM     28  H   UNL     1       3.397  -8.182  26.883  0.00  0.00    +0.222 HD
ENDBRANCH  25  27
BRANCH  25  29
ATOM     29  O   UNL     1       4.150  -7.461  23.842  0.00  0.00    -0.303 OA
ATOM     30  H   UNL     1       3.783  -7.310  22.953  0.00  0.00    +0.222 HD
ENDBRANCH  25  29
ENDBRANCH  24  25
ENDBRANCH  23  24
ENDBRANCH   4  23
TORSDOF 8
ENDMDL
MODEL 5
REMARK VINA RESULT:      -6.5      2.292      3.121
REMARK  Name = 
REMARK  8 active torsions:
REMARK  status: ('A' for Active; 'I' for Inactive)
REMARK    1  A    between atoms: N_11  and  C_12
REMARK    2  A    between atoms: C_15  and  C_17
REMARK    3  A    between atoms: C_17  and  O_18
REMARK    4  A    between atoms: O_18  and  P_19
REMARK    5  A    between atoms: P_19  and  O_20
REMARK    6  A    between atoms: P_19  and  O_21
REMARK    7  A    between atoms: C_23  and  O_25
REMARK    8  A    between atoms: C_26  and  O_28
REMARK                            x       y       z     vdW  Elec       q    Type
REMARK                         _______ _______ _______ _____ _____    ______ ____
ROOT
ATOM      1  C   UNL     1       5.888  -2.812  23.428  0.00  0.00    +0.254 C 
ATOM      2  C   UNL     1       6.376  -3.940  22.501  0.00  0.00    +0.195 C 
ATOM      3  C   UNL     1       6.570  -5.147  23.425  0.00  0.00    +0.178 C 
ATOM      4  C   UNL     1       5.978  -4.698  24.763  0.00  0.00    +0.178 C 
ATOM      5  O   UNL     1       5.197  -3.523  24.493  0.00  0.00    -0.346 OA
ENDROOT
BRANCH   1  13
ATOM      6  N   UNL     1      10.518   0.752  25.117  0.00  0.00    -0.341 N 
ATOM      7  H   UNL     1       9.867   1.301  25.672  0.00  0.00    +0.144 HD
ATOM      8  H   UNL     1      11.257   1.252  24.641  0.00  0.00    +0.144 HD
ATOM      9  C   UNL     1       9.892  -0.163  24.278  0.00  0.00    +0.147 A 
ATOM     10  C   UNL     1       8.585  -0.644  24.496  0.00  0.00    +0.148 A 
ATOM     11  N   UNL     1       7.638  -0.365  25.456  0.00  0.00    -0.216 NA
ATOM     12  C   UNL     1       6.601  -1.114  25.141  0.00  0.00    +0.182 A 
ATOM     13  N   UNL     1       6.842  -1.893  24.024  0.00  0.00    -0.274 N 
ATOM     14 BR   UNL     1       5.016  -1.053  26.147  0.00  0.00    -0.008 Br
ATOM     15  C   UNL     1       8.096  -1.558  23.582  0.00  0.00    +0.168 A 
ATOM     16  N   UNL     1       8.739  -2.014  22.498  0.00  0.00    -0.216 NA
ATOM     17  C   UNL     1       9.974  -1.491  22.385  0.00  0.00    +0.225 A 
ATOM     18  N   UNL     1      10.570  -0.589  23.199  0.00  0.00    -0.219 NA
ENDBRANCH   1  13
BRANCH   2  19
ATOM     19  O   UNL     1       5.337  -4.249  21.545  0.00  0.00    -0.385 OA
ATOM     20  H   UNL     1       5.616  -5.025  21.025  0.00  0.00    +0.210 HD
ENDBRANCH   2  19
BRANCH   3  21
ATOM     21  O   UNL     1       7.943  -5.489  23.577  0.00  0.00    -0.386 OA
ATOM     22  H   UNL     1       8.122  -6.260  23.009  0.00  0.00    +0.210 HD
ENDBRANCH   3  21
BRANCH   4  23
ATOM     23  C   UNL     1       5.130  -5.781  25.432  0.00  0.00    +0.206 C 
BRANCH  23  24
ATOM     24  O   UNL     1       5.941  -6.529  26.334  0.00  0.00    -0.284 OA
BRANCH  24  25
ATOM     25  P   UNL     1       5.954  -5.891  27.942  0.00  0.00    +0.472 P 
ATOM     26  O   UNL     1       5.966  -5.321  29.382  0.00  0.00    -0.228 OA
BRANCH  25  27
ATOM     27  O   UNL     1       7.574  -6.089  27.833  0.00  0.00    -0.303 OA
ATOM     28  H   UNL     1       7.996  -5.282  27.487  0.00  0.00    +0.222 HD
ENDBRANCH  25  27
BRANCH  25  29
ATOM     29  O   UNL     1       5.611  -7.439  28.334  0.00  0.00    -0.303 OA
ATOM     30  H   UNL     1       6.416  -7.963  28.175  0.00  0.00    +0.222 HD
ENDBRANCH  25  29
ENDBRANCH  24  25
ENDBRANCH  23  24
ENDBRANCH   4  23
TORSDOF 8
ENDMDL
MODEL 6
REMARK VINA RESULT:      -6.4      5.236      7.609
REMARK  Name = 
REMARK  8 active torsions:
REMARK  status: ('A' for Active; 'I' for Inactive)
REMARK    1  A    between atoms: N_11  and  C_12
REMARK    2  A    between atoms: C_15  and  C_17
REMARK    3  A    between atoms: C_17  and  O_18
REMARK    4  A    between atoms: O_18  and  P_19
REMARK    5  A    between atoms: P_19  and  O_20
REMARK    6  A    between atoms: P_19  and  O_21
REMARK    7  A    between atoms: C_23  and  O_25
REMARK    8  A    between atoms: C_26  and  O_28
REMARK                            x       y       z     vdW  Elec       q    Type
REMARK                         _______ _______ _______ _____ _____    ______ ____
ROOT
ATOM      1  C   UNL     1       7.368  -0.475  23.959  0.00  0.00    +0.254 C 
ATOM      2  C   UNL     1       6.466   0.101  25.065  0.00  0.00    +0.195 C 
ATOM      3  C   UNL     1       7.323   1.173  25.747  0.00  0.00    +0.178 C 
ATOM      4  C   UNL     1       8.563   1.289  24.857  0.00  0.00    +0.178 C 
ATOM      5  O   UNL     1       8.240   0.639  23.618  0.00  0.00    -0.346 OA
ENDROOT
BRANCH   1  13
ATOM      6  N   UNL     1      10.119  -5.556  25.858  0.00  0.00    -0.341 N 
ATOM      7  H   UNL     1      10.560  -5.634  24.946  0.00  0.00    +0.144 HD
ATOM      8  H   UNL     1       9.826  -6.414  26.306  0.00  0.00    +0.144 HD
ATOM      9  C   UNL     1       9.128  -4.582  25.910  0.00  0.00    +0.147 A 
ATOM     10  C   UNL     1       9.058  -3.502  25.006  0.00  0.00    +0.148 A 
ATOM     11  N   UNL     1       9.823  -3.146  23.919  0.00  0.00    -0.216 NA
ATOM     12  C   UNL     1       9.271  -2.042  23.458  0.00  0.00    +0.182 A 
ATOM     13  N   UNL     1       8.187  -1.646  24.220  0.00  0.00    -0.274 N 
ATOM     14 BR   UNL     1       9.944  -1.181  21.930  0.00  0.00    -0.008 Br
ATOM     15  C   UNL     1       8.020  -2.606  25.185  0.00  0.00    +0.168 A 
ATOM     16  N   UNL     1       7.065  -2.679  26.122  0.00  0.00    -0.216 NA
ATOM     17  C   UNL     1       7.225  -3.745  26.926  0.00  0.00    +0.225 A 
ATOM     18  N   UNL     1       8.186  -4.697  26.860  0.00  0.00    -0.219 NA
ENDBRANCH   1  13
BRANCH   2  19
ATOM     19  O   UNL     1       5.321   0.740  24.457  0.00  0.00    -0.385 OA
ATOM     20  H   UNL     1       5.489   0.831  23.501  0.00  0.00    +0.210 HD
ENDBRANCH   2  19
BRANCH   3  21
ATOM     21  O   UNL     1       7.693   0.800  27.070  0.00  0.00    -0.386 OA
ATOM     22  H   UNL     1       6.912   0.404  27.496  0.00  0.00    +0.210 HD
ENDBRANCH   3  21
BRANCH   4  23
ATOM     23  C   UNL     1       8.993   2.738  24.623  0.00  0.00    +0.206 C 
BRANCH  23  24
ATOM     24  O   UNL     1       7.854   3.590  24.703  0.00  0.00    -0.284 OA
BRANCH  24  25
ATOM     25  P   UNL     1       7.528   4.447  23.236  0.00  0.00    +0.472 P 
ATOM     26  O   UNL     1       7.236   5.212  21.922  0.00  0.00    -0.228 OA
BRANCH  25  27
ATOM     27  O   UNL     1       6.688   3.103  22.830  0.00  0.00    -0.303 OA
ATOM     28  H   UNL     1       7.001   2.335  23.342  0.00  0.00    +0.222 HD
ENDBRANCH  25  27
BRANCH  25  29
ATOM     29  O   UNL     1       8.998   3.871  22.819  0.00  0.00    -0.303 OA
ATOM     30  H   UNL     1       8.856   3.152  22.177  0.00  0.00    +0.222 HD
ENDBRANCH  25  29
ENDBRANCH  24  25
ENDBRANCH  23  24
ENDBRANCH   4  23
TORSDOF 8
ENDMDL
MODEL 7
REMARK VINA RESULT:      -6.4      6.493      8.728
REMARK  Name = 
REMARK  8 active torsions:
REMARK  status: ('A' for Active; 'I' for Inactive)
REMARK    1  A    between atoms: N_11  and  C_12
REMARK    2  A    between atoms: C_15  and  C_17
REMARK    3  A    between atoms: C_17  and  O_18
REMARK    4  A    between atoms: O_18  and  P_19
REMARK    5  A    between atoms: P_19  and  O_20
REMARK    6  A    between atoms: P_19  and  O_21
REMARK    7  A    between atoms: C_23  and  O_25
REMARK    8  A    between atoms: C_26  and  O_28
REMARK                            x       y       z     vdW  Elec       q    Type
REMARK                         _______ _______ _______ _____ _____    ______ ____
ROOT
ATOM      1  C   UNL     1       9.026   1.852  24.454  0.00  0.00    +0.254 C 
ATOM      2  C   UNL     1       9.865   2.032  23.176  0.00  0.00    +0.195 C 
ATOM      3  C   UNL     1       8.837   2.101  22.041  0.00  0.00    +0.178 C 
ATOM      4  C   UNL     1       7.487   2.176  22.759  0.00  0.00    +0.178 C 
ATOM      5  O   UNL     1       7.767   2.506  24.128  0.00  0.00    -0.346 OA
ENDROOT
BRANCH   1  13
ATOM      6  N   UNL     1       8.473  -4.056  25.784  0.00  0.00    -0.341 N 
ATOM      7  H   UNL     1       8.165  -3.797  26.717  0.00  0.00    +0.144 HD
ATOM      8  H   UNL     1       9.061  -4.875  25.701  0.00  0.00    +0.144 HD
ATOM      9  C   UNL     1       8.973  -2.986  25.051  0.00  0.00    +0.147 A 
ATOM     10  C   UNL     1       8.655  -1.641  25.332  0.00  0.00    +0.148 A 
ATOM     11  N   UNL     1       7.888  -1.050  26.310  0.00  0.00    -0.216 NA
ATOM     12  C   UNL     1       7.969   0.244  26.073  0.00  0.00    +0.182 A 
ATOM     13  N   UNL     1       8.742   0.521  24.960  0.00  0.00    -0.274 N 
ATOM     14 BR   UNL     1       7.108   1.492  27.182  0.00  0.00    -0.008 Br
ATOM     15  C   UNL     1       9.221  -0.682  24.512  0.00  0.00    +0.168 A 
ATOM     16  N   UNL     1      10.057  -0.910  23.489  0.00  0.00    -0.216 NA
ATOM     17  C   UNL     1      10.293  -2.223  23.311  0.00  0.00    +0.225 A 
ATOM     18  N   UNL     1       9.813  -3.258  24.039  0.00  0.00    -0.219 NA
ENDBRANCH   1  13
BRANCH   2  19
ATOM     19  O   UNL     1      10.566   3.294  23.244  0.00  0.00    -0.385 OA
ATOM     20  H   UNL     1      10.052   3.961  22.753  0.00  0.00    +0.210 HD
ENDBRANCH   2  19
BRANCH   3  21
ATOM     21  O   UNL     1       8.891   0.954  21.200  0.00  0.00    -0.386 OA
ATOM     22  H   UNL     1       8.431   1.172  20.370  0.00  0.00    +0.210 HD
ENDBRANCH   3  21
BRANCH   4  23
ATOM     23  C   UNL     1       6.535   3.195  22.130  0.00  0.00    +0.206 C 
BRANCH  23  24
ATOM     24  O   UNL     1       7.283   4.304  21.640  0.00  0.00    -0.284 OA
BRANCH  24  25
ATOM     25  P   UNL     1       7.078   5.743  22.577  0.00  0.00    +0.472 P 
ATOM     26  O   UNL     1       6.896   7.032  23.416  0.00  0.00    -0.228 OA
BRANCH  25  27
ATOM     27  O   UNL     1       7.423   6.511  21.175  0.00  0.00    -0.303 OA
ATOM     28  H   UNL     1       6.921   7.344  21.108  0.00  0.00    +0.222 HD
ENDBRANCH  25  27
BRANCH  25  29
ATOM     29  O   UNL     1       8.627   5.438  22.999  0.00  0.00    -0.303 OA
ATOM     30  H   UNL     1       9.179   6.130  22.592  0.00  0.00    +0.222 HD
ENDBRANCH  25  29
ENDBRANCH  24  25
ENDBRANCH  23  24
ENDBRANCH   4  23
TORSDOF 8
ENDMDL
MODEL 8
REMARK VINA RESULT:      -6.3      4.710      7.102
REMARK  Name = 
REMARK  8 active torsions:
REMARK  status: ('A' for Active; 'I' for Inactive)
REMARK    1  A    between atoms: N_11  and  C_12
REMARK    2  A    between atoms: C_15  and  C_17
REMARK    3  A    between atoms: C_17  and  O_18
REMARK    4  A    between atoms: O_18  and  P_19
REMARK    5  A    between atoms: P_19  and  O_20
REMARK    6  A    between atoms: P_19  and  O_21
REMARK    7  A    between atoms: C_23  and  O_25
REMARK    8  A    between atoms: C_26  and  O_28
REMARK                            x       y       z     vdW  Elec       q    Type
REMARK                         _______ _______ _______ _____ _____    ______ ____
ROOT
ATOM      1  C   UNL     1       8.812  -2.520  23.048  0.00  0.00    +0.254 C 
ATOM      2  C   UNL     1       8.290  -1.568  21.957  0.00  0.00    +0.195 C 
ATOM      3  C   UNL     1       7.927  -0.281  22.703  0.00  0.00    +0.178 C 
ATOM      4  C   UNL     1       8.464  -0.501  24.120  0.00  0.00    +0.178 C 
ATOM      5  O   UNL     1       9.363  -1.618  24.049  0.00  0.00    -0.346 OA
ENDROOT
BRANCH   1  13
ATOM      6  N   UNL     1       5.749  -6.416  26.573  0.00  0.00    -0.341 N 
ATOM      7  H   UNL     1       4.902  -6.179  26.065  0.00  0.00    +0.144 HD
ATOM      8  H   UNL     1       5.663  -6.578  27.568  0.00  0.00    +0.144 HD
ATOM      9  C   UNL     1       6.821  -5.582  26.278  0.00  0.00    +0.147 A 
ATOM     10  C   UNL     1       6.909  -4.826  25.090  0.00  0.00    +0.148 A 
ATOM     11  N   UNL     1       6.058  -4.673  24.020  0.00  0.00    -0.216 NA
ATOM     12  C   UNL     1       6.672  -3.831  23.213  0.00  0.00    +0.182 A 
ATOM     13  N   UNL     1       7.906  -3.447  23.704  0.00  0.00    -0.274 N 
ATOM     14 BR   UNL     1       5.877  -3.267  21.607  0.00  0.00    -0.008 Br
ATOM     15  C   UNL     1       8.039  -4.046  24.929  0.00  0.00    +0.168 A 
ATOM     16  N   UNL     1       9.048  -3.926  25.804  0.00  0.00    -0.216 NA
ATOM     17  C   UNL     1       8.862  -4.686  26.899  0.00  0.00    +0.225 A 
ATOM     18  N   UNL     1       7.807  -5.485  27.184  0.00  0.00    -0.219 NA
ENDBRANCH   1  13
BRANCH   2  19
ATOM     19  O   UNL     1       9.360  -1.281  21.028  0.00  0.00    -0.385 OA
ATOM     20  H   UNL     1       8.968  -1.023  20.174  0.00  0.00    +0.210 HD
ENDBRANCH   2  19
BRANCH   3  21
ATOM     21  O   UNL     1       6.522  -0.058  22.732  0.00  0.00    -0.386 OA
ATOM     22  H   UNL     1       6.110  -0.668  22.094  0.00  0.00    +0.210 HD
ENDBRANCH   3  21
BRANCH   4  23
ATOM     23  C   UNL     1       9.163   0.734  24.689  0.00  0.00    +0.206 C 
BRANCH  23  24
ATOM     24  O   UNL     1       8.895   1.858  23.856  0.00  0.00    -0.284 OA
BRANCH  24  25
ATOM     25  P   UNL     1      10.284   2.846  23.560  0.00  0.00    +0.472 P 
ATOM     26  O   UNL     1      11.528   3.729  23.295  0.00  0.00    -0.228 OA
BRANCH  25  27
ATOM     27  O   UNL     1      10.125   2.323  22.019  0.00  0.00    -0.303 OA
ATOM     28  H   UNL     1      10.876   2.625  21.475  0.00  0.00    +0.222 HD
ENDBRANCH  25  27
BRANCH  25  29
ATOM     29  O   UNL     1      11.078   1.529  24.114  0.00  0.00    -0.303 OA
ATOM     30  H   UNL     1      11.915   1.839  24.504  0.00  0.00    +0.222 HD
ENDBRANCH  25  29
ENDBRANCH  24  25
ENDBRANCH  23  24
ENDBRANCH   4  23
TORSDOF 8
ENDMDL
MODEL 9
REMARK VINA RESULT:      -6.2      4.753      7.216
REMARK  Name = 
REMARK  8 active torsions:
REMARK  status: ('A' for Active; 'I' for Inactive)
REMARK    1  A    between atoms: N_11  and  C_12
REMARK    2  A    between atoms: C_15  and  C_17
REMARK    3  A    between atoms: C_17  and  O_18
REMARK    4  A    between atoms: O_18  and  P_19
REMARK    5  A    between atoms: P_19  and  O_20
REMARK    6  A    between atoms: P_19  and  O_21
REMARK    7  A    between atoms: C_23  and  O_25
REMARK    8  A    between atoms: C_26  and  O_28
REMARK                            x       y       z     vdW  Elec       q    Type
REMARK                         _______ _______ _______ _____ _____    ______ ____
ROOT
ATOM      1  C   UNL     1       9.099  -2.792  23.407  0.00  0.00    +0.254 C 
ATOM      2  C   UNL     1       8.774  -1.898  22.196  0.00  0.00    +0.195 C 
ATOM      3  C   UNL     1       8.232  -0.600  22.804  0.00  0.00    +0.178 C 
ATOM      4  C   UNL     1       8.485  -0.751  24.306  0.00  0.00    +0.178 C 
ATOM      5  O   UNL     1       9.414  -1.836  24.459  0.00  0.00    -0.346 OA
ENDROOT
BRANCH   1  13
ATOM      6  N   UNL     1       4.323  -6.307  24.757  0.00  0.00    -0.341 N 
ATOM      7  H   UNL     1       4.954  -6.947  25.231  0.00  0.00    +0.144 HD
ATOM      8  H   UNL     1       3.554  -6.712  24.240  0.00  0.00    +0.144 HD
ATOM      9  C   UNL     1       4.982  -5.330  24.019  0.00  0.00    +0.147 A 
ATOM     10  C   UNL     1       6.315  -4.941  24.267  0.00  0.00    +0.148 A 
ATOM     11  N   UNL     1       7.259  -5.375  25.169  0.00  0.00    -0.216 NA
ATOM     12  C   UNL     1       8.328  -4.644  24.923  0.00  0.00    +0.182 A 
ATOM     13  N   UNL     1       8.110  -3.728  23.911  0.00  0.00    -0.274 N 
ATOM     14 BR   UNL     1       9.922  -4.898  25.884  0.00  0.00    -0.008 Br
ATOM     15  C   UNL     1       6.835  -3.949  23.456  0.00  0.00    +0.168 A 
ATOM     16  N   UNL     1       6.200  -3.338  22.447  0.00  0.00    -0.216 NA
ATOM     17  C   UNL     1       4.940  -3.785  22.297  0.00  0.00    +0.225 A 
ATOM     18  N   UNL     1       4.312  -4.748  23.011  0.00  0.00    -0.219 NA
ENDBRANCH   1  13
BRANCH   2  19
ATOM     19  O   UNL     1       9.998  -1.603  21.485  0.00  0.00    -0.385 OA
ATOM     20  H   UNL     1      10.539  -1.007  22.034  0.00  0.00    +0.210 HD
ENDBRANCH   2  19
BRANCH   3  21
ATOM     21  O   UNL     1       6.843  -0.430  22.547  0.00  0.00    -0.386 OA
ATOM     22  H   UNL     1       6.364  -1.130  23.027  0.00  0.00    +0.210 HD
ENDBRANCH   3  21
BRANCH   4  23
ATOM     23  C   UNL     1       9.021   0.528  24.950  0.00  0.00    +0.206 C 
BRANCH  23  24
ATOM     24  O   UNL     1       8.686   1.647  24.134  0.00  0.00    -0.284 OA
BRANCH  24  25
ATOM     25  P   UNL     1      10.045   2.636  23.726  0.00  0.00    +0.472 P 
ATOM     26  O   UNL     1      11.262   3.522  23.360  0.00  0.00    -0.228 OA
BRANCH  25  27
ATOM     27  O   UNL     1       9.193   3.826  24.455  0.00  0.00    -0.303 OA
ATOM     28  H   UNL     1       8.847   4.454  23.795  0.00  0.00    +0.222 HD
ENDBRANCH  25  27
BRANCH  25  29
ATOM     29  O   UNL     1       9.281   2.726  22.285  0.00  0.00    -0.303 OA
ATOM     30  H   UNL     1       9.140   1.813  21.975  0.00  0.00    +0.222 HD
ENDBRANCH  25  29
ENDBRANCH  24  25
ENDBRANCH  23  24
ENDBRANCH   4  23
TORSDOF 8
ENDMDL
