MODEL 1
REMARK VINA RESULT:      -5.7      0.000      0.000
REMARK  Name = 
REMARK  19 active torsions:
REMARK  status: ('A' for Active; 'I' for Inactive)
REMARK    1  A    between atoms: C_1  and  C_2
REMARK    2  A    between atoms: C_2  and  C_3
REMARK    3  A    between atoms: C_3  and  C_4
REMARK    4  A    between atoms: C_4  and  C_5
REMARK    5  A    between atoms: C_5  and  C_6
REMARK    6  A    between atoms: C_5  and  C_7
REMARK    7  A    between atoms: C_5  and  C_8
REMARK    8  A    between atoms: C_8  and  O_10
REMARK    9  A    between atoms: C_8  and  C_11
REMARK   10  A    between atoms: C_12  and  C_13
REMARK   11  A    between atoms: C_15  and  O_17
REMARK   12  A    between atoms: C_21  and  C_23
REMARK   13  A    between atoms: C_23  and  C_24
REMARK   14  A    between atoms: C_24  and  C_25
REMARK   15  A    between atoms: C_25  and  C_26
REMARK   16  A    between atoms: C_26  and  C_27
REMARK   17  A    between atoms: C_28  and  C_29
REMARK   18  A    between atoms: C_29  and  O_31
REMARK   19  A    between atoms: O_31  and  C_32
REMARK                            x       y       z     vdW  Elec       q    Type
REMARK                         _______ _______ _______ _____ _____    ______ ____
ROOT
ATOM      1  C   UNL     1       6.876  -0.765  24.213  0.00  0.00    +0.051 C 
ATOM      2  C   UNL     1       7.797  -1.374  25.304  0.00  0.00    +0.065 C 
ATOM      3  C   UNL     1       7.707  -0.306  26.384  0.00  0.00    +0.140 C 
ATOM      4  O   UNL     1       8.360  -0.302  27.418  0.00  0.00    -0.297 OA
ATOM      5  C   UNL     1       6.719   0.775  26.063  0.00  0.00    +0.106 C 
ATOM      6  C   UNL     1       5.876   0.101  24.998  0.00  0.00    +0.129 C 
ENDROOT
BRANCH   1   8
ATOM      7  C   UNL     1       5.412  -2.777  23.727  0.00  0.00    +0.001 C 
ATOM      8  C   UNL     1       6.286  -1.834  23.331  0.00  0.00    -0.022 C 
BRANCH   7   9
ATOM      9  C   UNL     1       5.023  -3.953  22.880  0.00  0.00    +0.143 C 
BRANCH   9  10
ATOM     10  C   UNL     1       5.643  -5.340  23.268  0.00  0.00    -0.005 C 
ATOM     11  C   UNL     1       4.553  -6.348  23.700  0.00  0.00    +0.014 C 
ATOM     12  C   UNL     1       6.395  -5.954  22.063  0.00  0.00    +0.014 C 
BRANCH  10  13
ATOM     13  C   UNL     1       6.690  -5.168  24.425  0.00  0.00    +0.009 C 
BRANCH  13  14
ATOM     14  C   UNL     1       8.159  -5.141  23.989  0.00  0.00    +0.000 C 
BRANCH  14  16
ATOM     15  C   UNL     1       8.413  -4.995  26.457  0.00  0.00    +0.004 C 
ATOM     16  C   UNL     1       9.151  -5.217  25.143  0.00  0.00    -0.003 C 
ENDBRANCH  14  16
ENDBRANCH  13  14
ENDBRANCH  10  13
ENDBRANCH   9  10
BRANCH   9  17
ATOM     17  O   UNL     1       5.458  -3.582  21.570  0.00  0.00    -0.387 OA
ATOM     18  H   UNL     1       5.604  -2.622  21.578  0.00  0.00    +0.210 HD
ENDBRANCH   9  17
ENDBRANCH   7   9
ENDBRANCH   1   8
BRANCH   6  19
ATOM     19  O   UNL     1       5.240   1.065  24.171  0.00  0.00    -0.391 OA
ATOM     20  H   UNL     1       5.842   1.317  23.451  0.00  0.00    +0.210 HD
ENDBRANCH   6  19
BRANCH   2  21
ATOM     21  C   UNL     1       9.219  -1.605  24.782  0.00  0.00    +0.012 C 
BRANCH  21  22
ATOM     22  C   UNL     1       9.754  -0.471  23.895  0.00  0.00    +0.001 C 
BRANCH  22  23
ATOM     23  C   UNL     1      10.101  -0.922  22.471  0.00  0.00    +0.004 C 
BRANCH  23  24
ATOM     24  C   UNL     1       9.491  -0.015  21.399  0.00  0.00    +0.027 C 
BRANCH  24  25
ATOM     25  C   UNL     1       8.980   1.262  21.988  0.00  0.00    -0.020 C 
ATOM     26  C   UNL     1       7.806   1.821  21.652  0.00  0.00    +0.087 C 
BRANCH  26  27
ATOM     27  C   UNL     1       7.401   3.100  22.269  0.00  0.00    +0.331 C 
ATOM     28  O   UNL     1       8.164   3.933  22.737  0.00  0.00    -0.246 OA
BRANCH  27  29
ATOM     29  O   UNL     1       6.049   3.183  22.216  0.00  0.00    -0.465 OA
ATOM     30  C   UNL     1       5.538   4.360  22.841  0.00  0.00    +0.280 C 
ENDBRANCH  27  29
ENDBRANCH  26  27
ENDBRANCH  24  25
ENDBRANCH  23  24
ENDBRANCH  22  23
ENDBRANCH  21  22
ENDBRANCH   2  21
TORSDOF 15
ENDMDL
MODEL 2
REMARK VINA RESULT:      -5.7      2.789      8.275
REMARK  Name = 
REMARK  19 active torsions:
REMARK  status: ('A' for Active; 'I' for Inactive)
REMARK    1  A    between atoms: C_1  and  C_2
REMARK    2  A    between atoms: C_2  and  C_3
REMARK    3  A    between atoms: C_3  and  C_4
REMARK    4  A    between atoms: C_4  and  C_5
REMARK    5  A    between atoms: C_5  and  C_6
REMARK    6  A    between atoms: C_5  and  C_7
REMARK    7  A    between atoms: C_5  and  C_8
REMARK    8  A    between atoms: C_8  and  O_10
REMARK    9  A    between atoms: C_8  and  C_11
REMARK   10  A    between atoms: C_12  and  C_13
REMARK   11  A    between atoms: C_15  and  O_17
REMARK   12  A    between atoms: C_21  and  C_23
REMARK   13  A    between atoms: C_23  and  C_24
REMARK   14  A    between atoms: C_24  and  C_25
REMARK   15  A    between atoms: C_25  and  C_26
REMARK   16  A    between atoms: C_26  and  C_27
REMARK   17  A    between atoms: C_28  and  C_29
REMARK   18  A    between atoms: C_29  and  O_31
REMARK   19  A    between atoms: O_31  and  C_32
REMARK                            x       y       z     vdW  Elec       q    Type
REMARK                         _______ _______ _______ _____ _____    ______ ____
ROOT
ATOM      1  C   UNL     1       9.752   1.281  23.297  0.00  0.00    +0.051 C 
ATOM      2  C   UNL     1      10.476   0.035  23.874  0.00  0.00    +0.065 C 
ATOM      3  C   UNL     1      10.226  -0.980  22.769  0.00  0.00    +0.140 C 
ATOM      4  O   UNL     1      10.531  -2.163  22.826  0.00  0.00    -0.297 OA
ATOM      5  C   UNL     1       9.551  -0.389  21.567  0.00  0.00    +0.106 C 
ATOM      6  C   UNL     1       9.821   1.088  21.772  0.00  0.00    +0.129 C 
ENDROOT
BRANCH   1   8
ATOM      7  C   UNL     1       9.738   3.762  23.815  0.00  0.00    +0.001 C 
ATOM      8  C   UNL     1      10.339   2.559  23.837  0.00  0.00    -0.022 C 
BRANCH   7   9
ATOM      9  C   UNL     1      10.441   5.043  24.155  0.00  0.00    +0.143 C 
BRANCH   9  10
ATOM     10  C   UNL     1       9.607   6.127  24.921  0.00  0.00    -0.005 C 
ATOM     11  C   UNL     1       8.534   5.481  25.828  0.00  0.00    +0.014 C 
ATOM     12  C   UNL     1      10.528   6.982  25.824  0.00  0.00    +0.014 C 
BRANCH  10  13
ATOM     13  C   UNL     1       8.918   7.108  23.907  0.00  0.00    +0.009 C 
BRANCH  13  14
ATOM     14  C   UNL     1       7.479   6.754  23.517  0.00  0.00    +0.000 C 
BRANCH  14  16
ATOM     15  C   UNL     1       6.795   4.747  22.220  0.00  0.00    +0.004 C 
ATOM     16  C   UNL     1       7.341   6.166  22.118  0.00  0.00    -0.003 C 
ENDBRANCH  14  16
ENDBRANCH  13  14
ENDBRANCH  10  13
ENDBRANCH   9  10
BRANCH   9  17
ATOM     17  O   UNL     1      10.841   5.556  22.882  0.00  0.00    -0.387 OA
ATOM     18  H   UNL     1      10.133   6.145  22.575  0.00  0.00    +0.210 HD
ENDBRANCH   9  17
ENDBRANCH   7   9
ENDBRANCH   1   8
BRANCH   6  19
ATOM     19  O   UNL     1       8.857   1.878  21.089  0.00  0.00    -0.391 OA
ATOM     20  H   UNL     1       8.800   1.585  20.164  0.00  0.00    +0.210 HD
ENDBRANCH   6  19
BRANCH   2  21
ATOM     21  C   UNL     1       9.898  -0.377  25.233  0.00  0.00    +0.012 C 
BRANCH  21  22
ATOM     22  C   UNL     1       8.486   0.161  25.505  0.00  0.00    +0.001 C 
BRANCH  22  23
ATOM     23  C   UNL     1       7.377  -0.853  25.201  0.00  0.00    +0.004 C 
BRANCH  23  24
ATOM     24  C   UNL     1       7.835  -2.302  25.385  0.00  0.00    +0.027 C 
BRANCH  24  25
ATOM     25  C   UNL     1       7.393  -3.165  24.246  0.00  0.00    -0.020 C 
ATOM     26  C   UNL     1       6.923  -2.683  23.084  0.00  0.00    +0.087 C 
BRANCH  26  27
ATOM     27  C   UNL     1       6.484  -3.618  22.028  0.00  0.00    +0.331 C 
ATOM     28  O   UNL     1       5.533  -3.443  21.279  0.00  0.00    -0.246 OA
BRANCH  27  29
ATOM     29  O   UNL     1       7.320  -4.684  22.036  0.00  0.00    -0.465 OA
ATOM     30  C   UNL     1       6.788  -5.814  21.345  0.00  0.00    +0.280 C 
ENDBRANCH  27  29
ENDBRANCH  26  27
ENDBRANCH  24  25
ENDBRANCH  23  24
ENDBRANCH  22  23
ENDBRANCH  21  22
ENDBRANCH   2  21
TORSDOF 15
ENDMDL
MODEL 3
REMARK VINA RESULT:      -5.6      2.457      5.570
REMARK  Name = 
REMARK  19 active torsions:
REMARK  status: ('A' for Active; 'I' for Inactive)
REMARK    1  A    between atoms: C_1  and  C_2
REMARK    2  A    between atoms: C_2  and  C_3
REMARK    3  A    between atoms: C_3  and  C_4
REMARK    4  A    between atoms: C_4  and  C_5
REMARK    5  A    between atoms: C_5  and  C_6
REMARK    6  A    between atoms: C_5  and  C_7
REMARK    7  A    between atoms: C_5  and  C_8
REMARK    8  A    between atoms: C_8  and  O_10
REMARK    9  A    between atoms: C_8  and  C_11
REMARK   10  A    between atoms: C_12  and  C_13
REMARK   11  A    between atoms: C_15  and  O_17
REMARK   12  A    between atoms: C_21  and  C_23
REMARK   13  A    between atoms: C_23  and  C_24
REMARK   14  A    between atoms: C_24  and  C_25
REMARK   15  A    between atoms: C_25  and  C_26
REMARK   16  A    between atoms: C_26  and  C_27
REMARK   17  A    between atoms: C_28  and  C_29
REMARK   18  A    between atoms: C_29  and  O_31
REMARK   19  A    between atoms: O_31  and  C_32
REMARK                            x       y       z     vdW  Elec       q    Type
REMARK                         _______ _______ _______ _____ _____    ______ ____
ROOT
ATOM      1  C   UNL     1       8.347  -1.629  22.940  0.00  0.00    +0.051 C 
ATOM      2  C   UNL     1       7.177  -0.610  22.918  0.00  0.00    +0.065 C 
ATOM      3  C   UNL     1       7.855   0.593  22.280  0.00  0.00    +0.140 C 
ATOM      4  O   UNL     1       7.341   1.694  22.146  0.00  0.00    -0.297 OA
ATOM      5  C   UNL     1       9.252   0.304  21.817  0.00  0.00    +0.106 C 
ATOM      6  C   UNL     1       9.239  -1.210  21.758  0.00  0.00    +0.129 C 
ENDROOT
BRANCH   1   8
ATOM      7  C   UNL     1       6.645  -3.445  22.458  0.00  0.00    +0.001 C 
ATOM      8  C   UNL     1       7.843  -3.049  22.926  0.00  0.00    -0.022 C 
BRANCH   7   9
ATOM      9  C   UNL     1       6.092  -4.824  22.666  0.00  0.00    +0.143 C 
BRANCH   9  10
ATOM     10  C   UNL     1       4.877  -4.959  23.648  0.00  0.00    -0.005 C 
ATOM     11  C   UNL     1       4.410  -3.579  24.167  0.00  0.00    +0.014 C 
ATOM     12  C   UNL     1       3.673  -5.620  22.934  0.00  0.00    +0.014 C 
BRANCH  10  13
ATOM     13  C   UNL     1       5.252  -5.879  24.863  0.00  0.00    +0.009 C 
BRANCH  13  14
ATOM     14  C   UNL     1       4.273  -7.021  25.156  0.00  0.00    +0.000 C 
BRANCH  14  16
ATOM     15  C   UNL     1       4.039  -5.759  27.284  0.00  0.00    +0.004 C 
ATOM     16  C   UNL     1       3.377  -6.777  26.363  0.00  0.00    -0.003 C 
ENDBRANCH  14  16
ENDBRANCH  13  14
ENDBRANCH  10  13
ENDBRANCH   9  10
BRANCH   9  17
ATOM     17  O   UNL     1       7.205  -5.560  23.177  0.00  0.00    -0.387 OA
ATOM     18  H   UNL     1       7.368  -6.296  22.565  0.00  0.00    +0.210 HD
ENDBRANCH   9  17
ENDBRANCH   7   9
ENDBRANCH   1   8
BRANCH   6  19
ATOM     19  O   UNL     1      10.556  -1.732  21.870  0.00  0.00    -0.391 OA
ATOM     20  H   UNL     1      10.520  -2.598  22.311  0.00  0.00    +0.210 HD
ENDBRANCH   6  19
BRANCH   2  21
ATOM     21  C   UNL     1       6.636  -0.339  24.326  0.00  0.00    +0.012 C 
BRANCH  21  22
ATOM     22  C   UNL     1       7.716   0.026  25.355  0.00  0.00    +0.001 C 
BRANCH  22  23
ATOM     23  C   UNL     1       7.689  -0.856  26.608  0.00  0.00    +0.004 C 
BRANCH  23  24
ATOM     24  C   UNL     1       6.390  -1.655  26.740  0.00  0.00    +0.027 C 
BRANCH  24  25
ATOM     25  C   UNL     1       6.660  -3.117  26.906  0.00  0.00    -0.020 C 
ATOM     26  C   UNL     1       7.827  -3.701  26.587  0.00  0.00    +0.087 C 
BRANCH  26  27
ATOM     27  C   UNL     1       7.988  -5.159  26.760  0.00  0.00    +0.331 C 
ATOM     28  O   UNL     1       7.579  -5.807  27.713  0.00  0.00    -0.246 OA
BRANCH  27  29
ATOM     29  O   UNL     1       8.654  -5.640  25.683  0.00  0.00    -0.465 OA
ATOM     30  C   UNL     1       9.902  -4.985  25.463  0.00  0.00    +0.280 C 
ENDBRANCH  27  29
ENDBRANCH  26  27
ENDBRANCH  24  25
ENDBRANCH  23  24
ENDBRANCH  22  23
ENDBRANCH  21  22
ENDBRANCH   2  21
TORSDOF 15
ENDMDL
MODEL 4
REMARK VINA RESULT:      -5.5      1.910      2.808
REMARK  Name = 
REMARK  19 active torsions:
REMARK  status: ('A' for Active; 'I' for Inactive)
REMARK    1  A    between atoms: C_1  and  C_2
REMARK    2  A    between atoms: C_2  and  C_3
REMARK    3  A    between atoms: C_3  and  C_4
REMARK    4  A    between atoms: C_4  and  C_5
REMARK    5  A    between atoms: C_5  and  C_6
REMARK    6  A    between atoms: C_5  and  C_7
REMARK    7  A    between atoms: C_5  and  C_8
REMARK    8  A    between atoms: C_8  and  O_10
REMARK    9  A    between atoms: C_8  and  C_11
REMARK   10  A    between atoms: C_12  and  C_13
REMARK   11  A    between atoms: C_15  and  O_17
REMARK   12  A    between atoms: C_21  and  C_23
REMARK   13  A    between atoms: C_23  and  C_24
REMARK   14  A    between atoms: C_24  and  C_25
REMARK   15  A    between atoms: C_25  and  C_26
REMARK   16  A    between atoms: C_26  and  C_27
REMARK   17  A    between atoms: C_28  and  C_29
REMARK   18  A    between atoms: C_29  and  O_31
REMARK   19  A    between atoms: O_31  and  C_32
REMARK                            x       y       z     vdW  Elec       q    Type
REMARK                         _______ _______ _______ _____ _____    ______ ____
ROOT
ATOM      1  C   UNL     1       6.791  -1.168  24.090  0.00  0.00    +0.051 C 
ATOM      2  C   UNL     1       8.159  -1.584  24.692  0.00  0.00    +0.065 C 
ATOM      3  C   UNL     1       8.685  -0.238  25.168  0.00  0.00    +0.140 C 
ATOM      4  O   UNL     1       9.801  -0.049  25.630  0.00  0.00    -0.297 OA
ATOM      5  C   UNL     1       7.688   0.872  25.014  0.00  0.00    +0.106 C 
ATOM      6  C   UNL     1       6.396   0.093  24.879  0.00  0.00    +0.129 C 
ENDROOT
BRANCH   1   8
ATOM      7  C   UNL     1       5.379  -2.943  25.222  0.00  0.00    +0.001 C 
ATOM      8  C   UNL     1       5.808  -2.309  24.115  0.00  0.00    -0.022 C 
BRANCH   7   9
ATOM      9  C   UNL     1       4.578  -4.212  25.189  0.00  0.00    +0.143 C 
BRANCH   9  10
ATOM     10  C   UNL     1       5.384  -5.556  25.159  0.00  0.00    -0.005 C 
ATOM     11  C   UNL     1       6.737  -5.424  25.898  0.00  0.00    +0.014 C 
ATOM     12  C   UNL     1       4.582  -6.685  25.852  0.00  0.00    +0.014 C 
BRANCH  10  13
ATOM     13  C   UNL     1       5.635  -6.013  23.678  0.00  0.00    +0.009 C 
BRANCH  13  14
ATOM     14  C   UNL     1       6.993  -5.621  23.086  0.00  0.00    +0.000 C 
BRANCH  14  16
ATOM     15  C   UNL     1       6.192  -4.223  21.194  0.00  0.00    +0.004 C 
ATOM     16  C   UNL     1       6.989  -5.466  21.571  0.00  0.00    -0.003 C 
ENDBRANCH  14  16
ENDBRANCH  13  14
ENDBRANCH  10  13
ENDBRANCH   9  10
BRANCH   9  17
ATOM     17  O   UNL     1       3.803  -4.090  23.995  0.00  0.00    -0.387 OA
ATOM     18  H   UNL     1       3.956  -4.892  23.470  0.00  0.00    +0.210 HD
ENDBRANCH   9  17
ENDBRANCH   7   9
ENDBRANCH   1   8
BRANCH   6  19
ATOM     19  O   UNL     1       5.411   0.861  24.200  0.00  0.00    -0.391 OA
ATOM     20  H   UNL     1       5.035   1.514  24.814  0.00  0.00    +0.210 HD
ENDBRANCH   6  19
BRANCH   2  21
ATOM     21  C   UNL     1       9.055  -2.263  23.650  0.00  0.00    +0.012 C 
BRANCH  21  22
ATOM     22  C   UNL     1       8.816  -1.787  22.210  0.00  0.00    +0.001 C 
BRANCH  22  23
ATOM     23  C   UNL     1       9.736  -0.636  21.788  0.00  0.00    +0.004 C 
BRANCH  23  24
ATOM     24  C   UNL     1       8.966   0.553  21.206  0.00  0.00    +0.027 C 
BRANCH  24  25
ATOM     25  C   UNL     1       9.175   1.792  22.018  0.00  0.00    -0.020 C 
ATOM     26  C   UNL     1      10.322   2.083  22.653  0.00  0.00    +0.087 C 
BRANCH  26  27
ATOM     27  C   UNL     1      10.422   3.319  23.455  0.00  0.00    +0.331 C 
ATOM     28  O   UNL     1       9.510   3.823  24.093  0.00  0.00    -0.246 OA
BRANCH  27  29
ATOM     29  O   UNL     1      11.693   3.780  23.361  0.00  0.00    -0.465 OA
ATOM     30  C   UNL     1      11.786   5.194  23.525  0.00  0.00    +0.280 C 
ENDBRANCH  27  29
ENDBRANCH  26  27
ENDBRANCH  24  25
ENDBRANCH  23  24
ENDBRANCH  22  23
ENDBRANCH  21  22
ENDBRANCH   2  21
TORSDOF 15
ENDMDL
MODEL 5
REMARK VINA RESULT:      -5.4      2.074      5.415
REMARK  Name = 
REMARK  19 active torsions:
REMARK  status: ('A' for Active; 'I' for Inactive)
REMARK    1  A    between atoms: C_1  and  C_2
REMARK    2  A    between atoms: C_2  and  C_3
REMARK    3  A    between atoms: C_3  and  C_4
REMARK    4  A    between atoms: C_4  and  C_5
REMARK    5  A    between atoms: C_5  and  C_6
REMARK    6  A    between atoms: C_5  and  C_7
REMARK    7  A    between atoms: C_5  and  C_8
REMARK    8  A    between atoms: C_8  and  O_10
REMARK    9  A    between atoms: C_8  and  C_11
REMARK   10  A    between atoms: C_12  and  C_13
REMARK   11  A    between atoms: C_15  and  O_17
REMARK   12  A    between atoms: C_21  and  C_23
REMARK   13  A    between atoms: C_23  and  C_24
REMARK   14  A    between atoms: C_24  and  C_25
REMARK   15  A    between atoms: C_25  and  C_26
REMARK   16  A    between atoms: C_26  and  C_27
REMARK   17  A    between atoms: C_28  and  C_29
REMARK   18  A    between atoms: C_29  and  O_31
REMARK   19  A    between atoms: O_31  and  C_32
REMARK                            x       y       z     vdW  Elec       q    Type
REMARK                         _______ _______ _______ _____ _____    ______ ____
ROOT
ATOM      1  C   UNL     1       8.080  -0.576  22.827  0.00  0.00    +0.051 C 
ATOM      2  C   UNL     1       7.627   0.898  22.997  0.00  0.00    +0.065 C 
ATOM      3  C   UNL     1       8.857   1.637  22.491  0.00  0.00    +0.140 C 
ATOM      4  O   UNL     1       9.007   2.850  22.529  0.00  0.00    -0.297 OA
ATOM      5  C   UNL     1       9.903   0.723  21.927  0.00  0.00    +0.106 C 
ATOM      6  C   UNL     1       9.093  -0.532  21.669  0.00  0.00    +0.129 C 
ENDROOT
BRANCH   1   8
ATOM      7  C   UNL     1       6.961  -2.842  22.628  0.00  0.00    +0.001 C 
ATOM      8  C   UNL     1       6.902  -1.498  22.651  0.00  0.00    -0.022 C 
BRANCH   7   9
ATOM      9  C   UNL     1       5.807  -3.713  22.227  0.00  0.00    +0.143 C 
BRANCH   9  10
ATOM     10  C   UNL     1       6.027  -5.263  22.310  0.00  0.00    -0.005 C 
ATOM     11  C   UNL     1       6.190  -5.890  20.906  0.00  0.00    +0.014 C 
ATOM     12  C   UNL     1       7.307  -5.586  23.118  0.00  0.00    +0.014 C 
BRANCH  10  13
ATOM     13  C   UNL     1       4.827  -5.948  23.057  0.00  0.00    +0.009 C 
BRANCH  13  14
ATOM     14  C   UNL     1       4.788  -5.742  24.575  0.00  0.00    +0.000 C 
BRANCH  14  16
ATOM     15  C   UNL     1       3.630  -3.602  25.084  0.00  0.00    +0.004 C 
ATOM     16  C   UNL     1       3.494  -5.120  25.084  0.00  0.00    -0.003 C 
ENDBRANCH  14  16
ENDBRANCH  13  14
ENDBRANCH  10  13
ENDBRANCH   9  10
BRANCH   9  17
ATOM     17  O   UNL     1       5.555  -3.335  20.872  0.00  0.00    -0.387 OA
ATOM     18  H   UNL     1       5.648  -2.371  20.821  0.00  0.00    +0.210 HD
ENDBRANCH   9  17
ENDBRANCH   7   9
ENDBRANCH   1   8
BRANCH   6  19
ATOM     19  O   UNL     1       9.930  -1.680  21.648  0.00  0.00    -0.391 OA
ATOM     20  H   UNL     1      10.634  -1.550  20.991  0.00  0.00    +0.210 HD
ENDBRANCH   6  19
BRANCH   2  21
ATOM     21  C   UNL     1       7.271   1.218  24.454  0.00  0.00    +0.012 C 
BRANCH  21  22
ATOM     22  C   UNL     1       8.299   0.712  25.477  0.00  0.00    +0.001 C 
BRANCH  22  23
ATOM     23  C   UNL     1       7.663   0.060  26.710  0.00  0.00    +0.004 C 
BRANCH  23  24
ATOM     24  C   UNL     1       6.832  -1.178  26.361  0.00  0.00    +0.027 C 
BRANCH  24  25
ATOM     25  C   UNL     1       7.596  -2.439  26.612  0.00  0.00    -0.020 C 
ATOM     26  C   UNL     1       7.094  -3.668  26.412  0.00  0.00    +0.087 C 
BRANCH  26  27
ATOM     27  C   UNL     1       7.918  -4.855  26.717  0.00  0.00    +0.331 C 
ATOM     28  O   UNL     1       7.486  -5.969  26.977  0.00  0.00    -0.246 OA
BRANCH  27  29
ATOM     29  O   UNL     1       9.222  -4.491  26.650  0.00  0.00    -0.465 OA
ATOM     30  C   UNL     1       9.919  -5.113  25.572  0.00  0.00    +0.280 C 
ENDBRANCH  27  29
ENDBRANCH  26  27
ENDBRANCH  24  25
ENDBRANCH  23  24
ENDBRANCH  22  23
ENDBRANCH  21  22
ENDBRANCH   2  21
TORSDOF 15
ENDMDL
MODEL 6
REMARK VINA RESULT:      -5.4      2.108      4.701
REMARK  Name = 
REMARK  19 active torsions:
REMARK  status: ('A' for Active; 'I' for Inactive)
REMARK    1  A    between atoms: C_1  and  C_2
REMARK    2  A    between atoms: C_2  and  C_3
REMARK    3  A    between atoms: C_3  and  C_4
REMARK    4  A    between atoms: C_4  and  C_5
REMARK    5  A    between atoms: C_5  and  C_6
REMARK    6  A    between atoms: C_5  and  C_7
REMARK    7  A    between atoms: C_5  and  C_8
REMARK    8  A    between atoms: C_8  and  O_10
REMARK    9  A    between atoms: C_8  and  C_11
REMARK   10  A    between atoms: C_12  and  C_13
REMARK   11  A    between atoms: C_15  and  O_17
REMARK   12  A    between atoms: C_21  and  C_23
REMARK   13  A    between atoms: C_23  and  C_24
REMARK   14  A    between atoms: C_24  and  C_25
REMARK   15  A    between atoms: C_25  and  C_26
REMARK   16  A    between atoms: C_26  and  C_27
REMARK   17  A    between atoms: C_28  and  C_29
REMARK   18  A    between atoms: C_29  and  O_31
REMARK   19  A    between atoms: O_31  and  C_32
REMARK                            x       y       z     vdW  Elec       q    Type
REMARK                         _______ _______ _______ _____ _____    ______ ____
ROOT
ATOM      1  C   UNL     1       8.520  -0.483  23.083  0.00  0.00    +0.051 C 
ATOM      2  C   UNL     1       8.113   0.880  23.704  0.00  0.00    +0.065 C 
ATOM      3  C   UNL     1       9.029   1.827  22.943  0.00  0.00    +0.140 C 
ATOM      4  O   UNL     1       9.138   3.024  23.169  0.00  0.00    -0.297 OA
ATOM      5  C   UNL     1       9.812   1.147  21.861  0.00  0.00    +0.106 C 
ATOM      6  C   UNL     1       9.012  -0.125  21.669  0.00  0.00    +0.129 C 
ENDROOT
BRANCH   1   8
ATOM      7  C   UNL     1       7.373  -2.680  22.552  0.00  0.00    +0.001 C 
ATOM      8  C   UNL     1       7.399  -1.484  23.168  0.00  0.00    -0.022 C 
BRANCH   7   9
ATOM      9  C   UNL     1       6.150  -3.546  22.479  0.00  0.00    +0.143 C 
BRANCH   9  10
ATOM     10  C   UNL     1       6.344  -5.071  22.786  0.00  0.00    -0.005 C 
ATOM     11  C   UNL     1       5.074  -5.689  23.417  0.00  0.00    +0.014 C 
ATOM     12  C   UNL     1       6.646  -5.853  21.485  0.00  0.00    +0.014 C 
BRANCH  10  13
ATOM     13  C   UNL     1       7.567  -5.286  23.747  0.00  0.00    +0.009 C 
BRANCH  13  14
ATOM     14  C   UNL     1       7.244  -5.267  25.245  0.00  0.00    +0.000 C 
BRANCH  14  16
ATOM     15  C   UNL     1       9.619  -4.535  25.253  0.00  0.00    +0.004 C 
ATOM     16  C   UNL     1       8.424  -4.888  26.130  0.00  0.00    -0.003 C 
ENDBRANCH  14  16
ENDBRANCH  13  14
ENDBRANCH  10  13
ENDBRANCH   9  10
BRANCH   9  17
ATOM     17  O   UNL     1       5.700  -3.381  21.133  0.00  0.00    -0.387 OA
ATOM     18  H   UNL     1       6.019  -2.516  20.828  0.00  0.00    +0.210 HD
ENDBRANCH   9  17
ENDBRANCH   7   9
ENDBRANCH   1   8
BRANCH   6  19
ATOM     19  O   UNL     1       9.818  -1.152  21.109  0.00  0.00    -0.391 OA
ATOM     20  H   UNL     1       9.319  -1.986  21.107  0.00  0.00    +0.210 HD
ENDBRANCH   6  19
BRANCH   2  21
ATOM     21  C   UNL     1       8.329   0.899  25.221  0.00  0.00    +0.012 C 
BRANCH  21  22
ATOM     22  C   UNL     1       9.298  -0.177  25.732  0.00  0.00    +0.001 C 
BRANCH  22  23
ATOM     23  C   UNL     1       8.642  -1.192  26.674  0.00  0.00    +0.004 C 
BRANCH  23  24
ATOM     24  C   UNL     1       7.213  -0.801  27.062  0.00  0.00    +0.027 C 
BRANCH  24  25
ATOM     25  C   UNL     1       6.246  -1.907  26.776  0.00  0.00    -0.020 C 
ATOM     26  C   UNL     1       5.209  -1.791  25.931  0.00  0.00    +0.087 C 
BRANCH  26  27
ATOM     27  C   UNL     1       4.291  -2.932  25.737  0.00  0.00    +0.331 C 
ATOM     28  O   UNL     1       3.444  -3.017  24.860  0.00  0.00    -0.246 OA
BRANCH  27  29
ATOM     29  O   UNL     1       4.562  -3.856  26.691  0.00  0.00    -0.465 OA
ATOM     30  C   UNL     1       3.528  -4.830  26.832  0.00  0.00    +0.280 C 
ENDBRANCH  27  29
ENDBRANCH  26  27
ENDBRANCH  24  25
ENDBRANCH  23  24
ENDBRANCH  22  23
ENDBRANCH  21  22
ENDBRANCH   2  21
TORSDOF 15
ENDMDL
MODEL 7
REMARK VINA RESULT:      -5.4      2.360      6.809
REMARK  Name = 
REMARK  19 active torsions:
REMARK  status: ('A' for Active; 'I' for Inactive)
REMARK    1  A    between atoms: C_1  and  C_2
REMARK    2  A    between atoms: C_2  and  C_3
REMARK    3  A    between atoms: C_3  and  C_4
REMARK    4  A    between atoms: C_4  and  C_5
REMARK    5  A    between atoms: C_5  and  C_6
REMARK    6  A    between atoms: C_5  and  C_7
REMARK    7  A    between atoms: C_5  and  C_8
REMARK    8  A    between atoms: C_8  and  O_10
REMARK    9  A    between atoms: C_8  and  C_11
REMARK   10  A    between atoms: C_12  and  C_13
REMARK   11  A    between atoms: C_15  and  O_17
REMARK   12  A    between atoms: C_21  and  C_23
REMARK   13  A    between atoms: C_23  and  C_24
REMARK   14  A    between atoms: C_24  and  C_25
REMARK   15  A    between atoms: C_25  and  C_26
REMARK   16  A    between atoms: C_26  and  C_27
REMARK   17  A    between atoms: C_28  and  C_29
REMARK   18  A    between atoms: C_29  and  O_31
REMARK   19  A    between atoms: O_31  and  C_32
REMARK                            x       y       z     vdW  Elec       q    Type
REMARK                         _______ _______ _______ _____ _____    ______ ____
ROOT
ATOM      1  C   UNL     1       7.581  -2.998  25.682  0.00  0.00    +0.051 C 
ATOM      2  C   UNL     1       7.049  -3.632  26.995  0.00  0.00    +0.065 C 
ATOM      3  C   UNL     1       7.269  -5.111  26.709  0.00  0.00    +0.140 C 
ATOM      4  O   UNL     1       6.900  -6.023  27.434  0.00  0.00    -0.297 OA
ATOM      5  C   UNL     1       7.997  -5.360  25.422  0.00  0.00    +0.106 C 
ATOM      6  C   UNL     1       8.626  -4.005  25.169  0.00  0.00    +0.129 C 
ENDROOT
BRANCH   1   8
ATOM      7  C   UNL     1       8.080  -0.614  24.980  0.00  0.00    +0.001 C 
ATOM      8  C   UNL     1       8.064  -1.589  25.907  0.00  0.00    -0.022 C 
BRANCH   7   9
ATOM      9  C   UNL     1       8.773   0.702  25.177  0.00  0.00    +0.143 C 
BRANCH   9  10
ATOM     10  C   UNL     1       8.761   1.697  23.966  0.00  0.00    -0.005 C 
ATOM     11  C   UNL     1       7.383   1.724  23.265  0.00  0.00    +0.014 C 
ATOM     12  C   UNL     1       9.071   3.137  24.443  0.00  0.00    +0.014 C 
BRANCH  10  13
ATOM     13  C   UNL     1       9.873   1.309  22.927  0.00  0.00    +0.009 C 
BRANCH  13  14
ATOM     14  C   UNL     1       9.366   0.787  21.579  0.00  0.00    +0.000 C 
BRANCH  14  16
ATOM     15  C   UNL     1      10.503  -1.285  22.348  0.00  0.00    +0.004 C 
ATOM     16  C   UNL     1       9.410  -0.730  21.442  0.00  0.00    -0.003 C 
ENDBRANCH  14  16
ENDBRANCH  13  14
ENDBRANCH  10  13
ENDBRANCH   9  10
BRANCH   9  17
ATOM     17  O   UNL     1      10.119   0.332  25.482  0.00  0.00    -0.387 OA
ATOM     18  H   UNL     1      10.293  -0.510  25.033  0.00  0.00    +0.210 HD
ENDBRANCH   9  17
ENDBRANCH   7   9
ENDBRANCH   1   8
BRANCH   6  19
ATOM     19  O   UNL     1       8.906  -3.827  23.787  0.00  0.00    -0.391 OA
ATOM     20  H   UNL     1       8.917  -4.694  23.349  0.00  0.00    +0.210 HD
ENDBRANCH   6  19
BRANCH   2  21
ATOM     21  C   UNL     1       5.583  -3.264  27.248  0.00  0.00    +0.012 C 
BRANCH  21  22
ATOM     22  C   UNL     1       4.709  -3.260  25.986  0.00  0.00    +0.001 C 
BRANCH  22  23
ATOM     23  C   UNL     1       3.639  -4.358  25.981  0.00  0.00    +0.004 C 
BRANCH  23  24
ATOM     24  C   UNL     1       3.482  -5.023  24.610  0.00  0.00    +0.027 C 
BRANCH  24  25
ATOM     25  C   UNL     1       4.352  -4.372  23.583  0.00  0.00    -0.020 C 
ATOM     26  C   UNL     1       5.141  -5.052  22.735  0.00  0.00    +0.087 C 
BRANCH  26  27
ATOM     27  C   UNL     1       5.988  -4.317  21.773  0.00  0.00    +0.331 C 
ATOM     28  O   UNL     1       5.622  -3.375  21.085  0.00  0.00    -0.246 OA
BRANCH  27  29
ATOM     29  O   UNL     1       7.227  -4.865  21.798  0.00  0.00    -0.465 OA
ATOM     30  C   UNL     1       7.204  -6.288  21.902  0.00  0.00    +0.280 C 
ENDBRANCH  27  29
ENDBRANCH  26  27
ENDBRANCH  24  25
ENDBRANCH  23  24
ENDBRANCH  22  23
ENDBRANCH  21  22
ENDBRANCH   2  21
TORSDOF 15
ENDMDL
MODEL 8
REMARK VINA RESULT:      -5.4      2.592      7.239
REMARK  Name = 
REMARK  19 active torsions:
REMARK  status: ('A' for Active; 'I' for Inactive)
REMARK    1  A    between atoms: C_1  and  C_2
REMARK    2  A    between atoms: C_2  and  C_3
REMARK    3  A    between atoms: C_3  and  C_4
REMARK    4  A    between atoms: C_4  and  C_5
REMARK    5  A    between atoms: C_5  and  C_6
REMARK    6  A    between atoms: C_5  and  C_7
REMARK    7  A    between atoms: C_5  and  C_8
REMARK    8  A    between atoms: C_8  and  O_10
REMARK    9  A    between atoms: C_8  and  C_11
REMARK   10  A    between atoms: C_12  and  C_13
REMARK   11  A    between atoms: C_15  and  O_17
REMARK   12  A    between atoms: C_21  and  C_23
REMARK   13  A    between atoms: C_23  and  C_24
REMARK   14  A    between atoms: C_24  and  C_25
REMARK   15  A    between atoms: C_25  and  C_26
REMARK   16  A    between atoms: C_26  and  C_27
REMARK   17  A    between atoms: C_28  and  C_29
REMARK   18  A    between atoms: C_29  and  O_31
REMARK   19  A    between atoms: O_31  and  C_32
REMARK                            x       y       z     vdW  Elec       q    Type
REMARK                         _______ _______ _______ _____ _____    ______ ____
ROOT
ATOM      1  C   UNL     1       5.939  -2.892  24.526  0.00  0.00    +0.051 C 
ATOM      2  C   UNL     1       6.254  -3.314  23.067  0.00  0.00    +0.065 C 
ATOM      3  C   UNL     1       5.176  -4.362  22.831  0.00  0.00    +0.140 C 
ATOM      4  O   UNL     1       5.087  -5.058  21.831  0.00  0.00    -0.297 OA
ATOM      5  C   UNL     1       4.203  -4.471  23.967  0.00  0.00    +0.106 C 
ATOM      6  C   UNL     1       4.430  -3.154  24.681  0.00  0.00    +0.129 C 
ENDROOT
BRANCH   1   8
ATOM      7  C   UNL     1       7.689  -1.104  24.932  0.00  0.00    +0.001 C 
ATOM      8  C   UNL     1       6.406  -1.488  24.807  0.00  0.00    -0.022 C 
BRANCH   7   9
ATOM      9  C   UNL     1       8.102   0.250  25.432  0.00  0.00    +0.143 C 
BRANCH   9  10
ATOM     10  C   UNL     1       8.338   1.361  24.352  0.00  0.00    -0.005 C 
ATOM     11  C   UNL     1       7.493   2.624  24.642  0.00  0.00    +0.014 C 
ATOM     12  C   UNL     1       9.825   1.789  24.330  0.00  0.00    +0.014 C 
BRANCH  10  13
ATOM     13  C   UNL     1       7.995   0.816  22.920  0.00  0.00    +0.009 C 
BRANCH  13  14
ATOM     14  C   UNL     1       9.189   0.640  21.976  0.00  0.00    +0.000 C 
BRANCH  14  16
ATOM     15  C   UNL     1      10.400  -1.460  22.526  0.00  0.00    +0.004 C 
ATOM     16  C   UNL     1       9.435  -0.801  21.547  0.00  0.00    -0.003 C 
ENDBRANCH  14  16
ENDBRANCH  13  14
ENDBRANCH  10  13
ENDBRANCH   9  10
BRANCH   9  17
ATOM     17  O   UNL     1       9.321  -0.007  26.131  0.00  0.00    -0.387 OA
ATOM     18  H   UNL     1       9.210   0.328  27.035  0.00  0.00    +0.210 HD
ENDBRANCH   9  17
ENDBRANCH   7   9
ENDBRANCH   1   8
BRANCH   6  19
ATOM     19  O   UNL     1       4.040  -3.243  26.045  0.00  0.00    -0.391 OA
ATOM     20  H   UNL     1       3.093  -3.457  26.093  0.00  0.00    +0.210 HD
ENDBRANCH   6  19
BRANCH   2  21
ATOM     21  C   UNL     1       7.681  -3.855  22.929  0.00  0.00    +0.012 C 
BRANCH  21  22
ATOM     22  C   UNL     1       8.051  -4.924  23.968  0.00  0.00    +0.001 C 
BRANCH  22  23
ATOM     23  C   UNL     1       9.178  -4.493  24.912  0.00  0.00    +0.004 C 
BRANCH  23  24
ATOM     24  C   UNL     1       8.770  -4.553  26.387  0.00  0.00    +0.027 C 
BRANCH  24  25
ATOM     25  C   UNL     1       7.574  -5.429  26.588  0.00  0.00    -0.020 C 
ATOM     26  C   UNL     1       6.646  -5.219  27.536  0.00  0.00    +0.087 C 
BRANCH  26  27
ATOM     27  C   UNL     1       5.514  -6.158  27.674  0.00  0.00    +0.331 C 
ATOM     28  O   UNL     1       4.461  -6.092  27.057  0.00  0.00    -0.246 OA
BRANCH  27  29
ATOM     29  O   UNL     1       5.855  -7.095  28.592  0.00  0.00    -0.465 OA
ATOM     30  C   UNL     1       6.080  -6.548  29.890  0.00  0.00    +0.280 C 
ENDBRANCH  27  29
ENDBRANCH  26  27
ENDBRANCH  24  25
ENDBRANCH  23  24
ENDBRANCH  22  23
ENDBRANCH  21  22
ENDBRANCH   2  21
TORSDOF 15
ENDMDL
MODEL 9
REMARK VINA RESULT:      -5.4      2.212      7.113
REMARK  Name = 
REMARK  19 active torsions:
REMARK  status: ('A' for Active; 'I' for Inactive)
REMARK    1  A    between atoms: C_1  and  C_2
REMARK    2  A    between atoms: C_2  and  C_3
REMARK    3  A    between atoms: C_3  and  C_4
REMARK    4  A    between atoms: C_4  and  C_5
REMARK    5  A    between atoms: C_5  and  C_6
REMARK    6  A    between atoms: C_5  and  C_7
REMARK    7  A    between atoms: C_5  and  C_8
REMARK    8  A    between atoms: C_8  and  O_10
REMARK    9  A    between atoms: C_8  and  C_11
REMARK   10  A    between atoms: C_12  and  C_13
REMARK   11  A    between atoms: C_15  and  O_17
REMARK   12  A    between atoms: C_21  and  C_23
REMARK   13  A    between atoms: C_23  and  C_24
REMARK   14  A    between atoms: C_24  and  C_25
REMARK   15  A    between atoms: C_25  and  C_26
REMARK   16  A    between atoms: C_26  and  C_27
REMARK   17  A    between atoms: C_28  and  C_29
REMARK   18  A    between atoms: C_29  and  O_31
REMARK   19  A    between atoms: O_31  and  C_32
REMARK                            x       y       z     vdW  Elec       q    Type
REMARK                         _______ _______ _______ _____ _____    ______ ____
ROOT
ATOM      1  C   UNL     1       6.263  -3.318  23.733  0.00  0.00    +0.051 C 
ATOM      2  C   UNL     1       7.544  -3.946  23.122  0.00  0.00    +0.065 C 
ATOM      3  C   UNL     1       6.996  -5.267  22.603  0.00  0.00    +0.140 C 
ATOM      4  O   UNL     1       7.674  -6.162  22.119  0.00  0.00    -0.297 OA
ATOM      5  C   UNL     1       5.507  -5.383  22.741  0.00  0.00    +0.106 C 
ATOM      6  C   UNL     1       5.112  -3.930  22.916  0.00  0.00    +0.129 C 
ENDROOT
BRANCH   1   8
ATOM      7  C   UNL     1       6.963  -1.054  22.831  0.00  0.00    +0.001 C 
ATOM      8  C   UNL     1       6.343  -1.814  23.753  0.00  0.00    -0.022 C 
BRANCH   7   9
ATOM      9  C   UNL     1       7.213   0.415  23.004  0.00  0.00    +0.143 C 
BRANCH   9  10
ATOM     10  C   UNL     1       8.699   0.859  23.235  0.00  0.00    -0.005 C 
ATOM     11  C   UNL     1       9.399   1.214  21.903  0.00  0.00    +0.014 C 
ATOM     12  C   UNL     1       8.756   2.112  24.142  0.00  0.00    +0.014 C 
BRANCH  10  13
ATOM     13  C   UNL     1       9.502  -0.275  23.966  0.00  0.00    +0.009 C 
BRANCH  13  14
ATOM     14  C   UNL     1       9.642  -0.113  25.484  0.00  0.00    +0.000 C 
BRANCH  14  16
ATOM     15  C   UNL     1       7.758  -0.393  27.080  0.00  0.00    +0.004 C 
ATOM     16  C   UNL     1       8.840  -1.124  26.293  0.00  0.00    -0.003 C 
ENDBRANCH  14  16
ENDBRANCH  13  14
ENDBRANCH  10  13
ENDBRANCH   9  10
BRANCH   9  17
ATOM     17  O   UNL     1       6.426   0.758  24.147  0.00  0.00    -0.387 OA
ATOM     18  H   UNL     1       6.601   1.692  24.346  0.00  0.00    +0.210 HD
ENDBRANCH   9  17
ENDBRANCH   7   9
ENDBRANCH   1   8
BRANCH   6  19
ATOM     19  O   UNL     1       3.864  -3.823  23.588  0.00  0.00    -0.391 OA
ATOM     20  H   UNL     1       4.001  -3.398  24.451  0.00  0.00    +0.210 HD
ENDBRANCH   6  19
BRANCH   2  21
ATOM     21  C   UNL     1       8.652  -4.107  24.169  0.00  0.00    +0.012 C 
BRANCH  21  22
ATOM     22  C   UNL     1       8.401  -5.233  25.181  0.00  0.00    +0.001 C 
BRANCH  22  23
ATOM     23  C   UNL     1       8.255  -4.736  26.624  0.00  0.00    +0.004 C 
BRANCH  23  24
ATOM     24  C   UNL     1       7.056  -5.359  27.345  0.00  0.00    +0.027 C 
BRANCH  24  25
ATOM     25  C   UNL     1       5.940  -5.657  26.395  0.00  0.00    -0.020 C 
ATOM     26  C   UNL     1       5.025  -6.618  26.598  0.00  0.00    +0.087 C 
BRANCH  26  27
ATOM     27  C   UNL     1       3.975  -6.856  25.586  0.00  0.00    +0.331 C 
ATOM     28  O   UNL     1       3.889  -7.847  24.876  0.00  0.00    -0.246 OA
BRANCH  27  29
ATOM     29  O   UNL     1       3.135  -5.792  25.593  0.00  0.00    -0.465 OA
ATOM     30  C   UNL     1       2.125  -5.887  26.595  0.00  0.00    +0.280 C 
ENDBRANCH  27  29
ENDBRANCH  26  27
ENDBRANCH  24  25
ENDBRANCH  23  24
ENDBRANCH  22  23
ENDBRANCH  21  22
ENDBRANCH   2  21
TORSDOF 15
ENDMDL
