MODEL 1
REMARK VINA RESULT:      -6.0      0.000      0.000
REMARK  Name = 
REMARK  14 active torsions:
REMARK  status: ('A' for Active; 'I' for Inactive)
REMARK    1  A    between atoms: C_1  and  C_2
REMARK    2  A    between atoms: C_5  and  C_6
REMARK    3  A    between atoms: C_6  and  O_7
REMARK    4  A    between atoms: O_7  and  P_8
REMARK    5  A    between atoms: P_8  and  O_9
REMARK    6  A    between atoms: P_8  and  O_10
REMARK    7  A    between atoms: C_12  and  C_13
REMARK    8  A    between atoms: C_13  and  N_14
REMARK    9  A    between atoms: N_14  and  C_15
REMARK   10  A    between atoms: C_15  and  C_16
REMARK   11  A    between atoms: C_15  and  C_17
REMARK   12  A    between atoms: C_15  and  C_18
REMARK   13  A    between atoms: C_18  and  O_19
REMARK   14  A    between atoms: C_21  and  O_22
REMARK                            x       y       z     vdW  Elec       q    Type
REMARK                         _______ _______ _______ _____ _____    ______ ____
ROOT
ATOM      1  C   UNL     1       6.216  -5.558  21.050  0.00  0.00    +0.069 C 
ATOM      2  C   UNL     1       6.265  -5.197  22.508  0.00  0.00    +0.080 A 
ATOM      3  C   UNL     1       6.884  -4.021  22.940  0.00  0.00    +0.142 A 
ATOM      4  C   UNL     1       6.966  -3.729  24.319  0.00  0.00    +0.016 A 
ATOM      5  C   UNL     1       6.398  -4.666  25.221  0.00  0.00    +0.005 A 
ATOM      6  C   UNL     1       5.785  -5.799  24.678  0.00  0.00    +0.117 A 
ATOM      7  N   UNL     1       5.706  -6.083  23.361  0.00  0.00    -0.256 NA
ENDROOT
BRANCH   3   8
ATOM      8  O   UNL     1       7.409  -3.211  21.964  0.00  0.00    -0.505 OA
ATOM      9  H   UNL     1       6.803  -3.114  21.217  0.00  0.00    +0.292 HD
ENDBRANCH   3   8
BRANCH   4  10
ATOM     10  C   UNL     1       7.684  -2.491  24.820  0.00  0.00    +0.121 C 
BRANCH  10  11
ATOM     11  N   UNL     1       8.924  -2.202  24.079  0.00  0.00    -0.298 NA
ATOM     12  H   UNL     1       8.853  -2.679  23.174  0.00  0.00    +0.123 HD
BRANCH  11  13
ATOM     13  C   UNL     1       9.114  -0.729  23.796  0.00  0.00    +0.112 C 
ATOM     14  C   UNL     1      10.107  -0.098  24.783  0.00  0.00    +0.039 C 
ATOM     15  C   UNL     1       7.783   0.036  23.786  0.00  0.00    +0.039 C 
BRANCH  13  16
ATOM     16  C   UNL     1       9.763  -0.588  22.389  0.00  0.00    +0.325 C 
ATOM     17  O   UNL     1      10.070   0.461  21.853  0.00  0.00    -0.249 OA
BRANCH  16  18
ATOM     18  O   UNL     1       9.989  -1.799  21.816  0.00  0.00    -0.479 OA
ATOM     19  H   UNL     1       9.281  -2.412  22.117  0.00  0.00    +0.295 HD
ENDBRANCH  16  18
ENDBRANCH  13  16
ENDBRANCH  11  13
ENDBRANCH  10  11
ENDBRANCH   4  10
BRANCH   5  20
ATOM     20  C   UNL     1       6.370  -4.497  26.725  0.00  0.00    +0.209 C 
BRANCH  20  21
ATOM     21  O   UNL     1       5.443  -5.403  27.309  0.00  0.00    -0.282 OA
BRANCH  21  22
ATOM     22  P   UNL     1       5.983  -6.085  28.805  0.00  0.00    +0.473 P 
ATOM     23  O   UNL     1       6.467  -6.695  30.144  0.00  0.00    -0.228 OA
BRANCH  22  24
ATOM     24  O   UNL     1       7.433  -6.249  28.064  0.00  0.00    -0.303 OA
ATOM     25  H   UNL     1       7.807  -5.349  28.006  0.00  0.00    +0.222 HD
ENDBRANCH  22  24
BRANCH  22  26
ATOM     26  O   UNL     1       5.407  -7.509  28.238  0.00  0.00    -0.303 OA
ATOM     27  H   UNL     1       6.125  -7.992  27.789  0.00  0.00    +0.222 HD
ENDBRANCH  22  26
ENDBRANCH  21  22
ENDBRANCH  20  21
ENDBRANCH   5  20
TORSDOF 11
ENDMDL
MODEL 2
REMARK VINA RESULT:      -5.8      1.924      4.806
REMARK  Name = 
REMARK  14 active torsions:
REMARK  status: ('A' for Active; 'I' for Inactive)
REMARK    1  A    between atoms: C_1  and  C_2
REMARK    2  A    between atoms: C_5  and  C_6
REMARK    3  A    between atoms: C_6  and  O_7
REMARK    4  A    between atoms: O_7  and  P_8
REMARK    5  A    between atoms: P_8  and  O_9
REMARK    6  A    between atoms: P_8  and  O_10
REMARK    7  A    between atoms: C_12  and  C_13
REMARK    8  A    between atoms: C_13  and  N_14
REMARK    9  A    between atoms: N_14  and  C_15
REMARK   10  A    between atoms: C_15  and  C_16
REMARK   11  A    between atoms: C_15  and  C_17
REMARK   12  A    between atoms: C_15  and  C_18
REMARK   13  A    between atoms: C_18  and  O_19
REMARK   14  A    between atoms: C_21  and  O_22
REMARK                            x       y       z     vdW  Elec       q    Type
REMARK                         _______ _______ _______ _____ _____    ______ ____
ROOT
ATOM      1  C   UNL     1       9.656   0.487  22.786  0.00  0.00    +0.069 C 
ATOM      2  C   UNL     1       9.350  -0.637  23.735  0.00  0.00    +0.080 A 
ATOM      3  C   UNL     1       9.036  -1.915  23.263  0.00  0.00    +0.142 A 
ATOM      4  C   UNL     1       8.698  -2.942  24.171  0.00  0.00    +0.016 A 
ATOM      5  C   UNL     1       8.697  -2.619  25.554  0.00  0.00    +0.005 A 
ATOM      6  C   UNL     1       9.048  -1.315  25.914  0.00  0.00    +0.117 A 
ATOM      7  N   UNL     1       9.370  -0.330  25.050  0.00  0.00    -0.256 NA
ENDROOT
BRANCH   3   8
ATOM      8  O   UNL     1       9.054  -2.087  21.901  0.00  0.00    -0.505 OA
ATOM      9  H   UNL     1       8.572  -2.883  21.637  0.00  0.00    +0.292 HD
ENDBRANCH   3   8
BRANCH   4  10
ATOM     10  C   UNL     1       8.294  -4.320  23.686  0.00  0.00    +0.121 C 
BRANCH  10  11
ATOM     11  N   UNL     1       6.857  -4.596  23.858  0.00  0.00    -0.298 NA
ATOM     12  H   UNL     1       6.434  -3.754  24.264  0.00  0.00    +0.123 HD
BRANCH  11  13
ATOM     13  C   UNL     1       6.146  -4.867  22.551  0.00  0.00    +0.112 C 
ATOM     14  C   UNL     1       6.930  -5.870  21.692  0.00  0.00    +0.039 C 
ATOM     15  C   UNL     1       5.855  -3.578  21.771  0.00  0.00    +0.039 C 
BRANCH  13  16
ATOM     16  C   UNL     1       4.787  -5.552  22.874  0.00  0.00    +0.325 C 
ATOM     17  O   UNL     1       3.687  -5.052  22.721  0.00  0.00    -0.249 OA
BRANCH  16  18
ATOM     18  O   UNL     1       4.960  -6.820  23.331  0.00  0.00    -0.479 OA
ATOM     19  H   UNL     1       4.155  -7.336  23.100  0.00  0.00    +0.295 HD
ENDBRANCH  16  18
ENDBRANCH  13  16
ENDBRANCH  11  13
ENDBRANCH  10  11
ENDBRANCH   4  10
BRANCH   5  20
ATOM     20  C   UNL     1       8.390  -3.603  26.662  0.00  0.00    +0.209 C 
BRANCH  20  21
ATOM     21  O   UNL     1       6.989  -3.819  26.759  0.00  0.00    -0.282 OA
BRANCH  21  22
ATOM     22  P   UNL     1       6.565  -5.316  27.518  0.00  0.00    +0.473 P 
ATOM     23  O   UNL     1       6.187  -6.655  28.197  0.00  0.00    -0.228 OA
BRANCH  22  24
ATOM     24  O   UNL     1       7.903  -5.919  26.793  0.00  0.00    -0.303 OA
ATOM     25  H   UNL     1       8.481  -5.152  26.619  0.00  0.00    +0.222 HD
ENDBRANCH  22  24
BRANCH  22  26
ATOM     26  O   UNL     1       5.606  -5.578  26.217  0.00  0.00    -0.303 OA
ATOM     27  H   UNL     1       5.902  -6.385  25.755  0.00  0.00    +0.222 HD
ENDBRANCH  22  26
ENDBRANCH  21  22
ENDBRANCH  20  21
ENDBRANCH   5  20
TORSDOF 11
ENDMDL
MODEL 3
REMARK VINA RESULT:      -5.8      3.666      6.318
REMARK  Name = 
REMARK  14 active torsions:
REMARK  status: ('A' for Active; 'I' for Inactive)
REMARK    1  A    between atoms: C_1  and  C_2
REMARK    2  A    between atoms: C_5  and  C_6
REMARK    3  A    between atoms: C_6  and  O_7
REMARK    4  A    between atoms: O_7  and  P_8
REMARK    5  A    between atoms: P_8  and  O_9
REMARK    6  A    between atoms: P_8  and  O_10
REMARK    7  A    between atoms: C_12  and  C_13
REMARK    8  A    between atoms: C_13  and  N_14
REMARK    9  A    between atoms: N_14  and  C_15
REMARK   10  A    between atoms: C_15  and  C_16
REMARK   11  A    between atoms: C_15  and  C_17
REMARK   12  A    between atoms: C_15  and  C_18
REMARK   13  A    between atoms: C_18  and  O_19
REMARK   14  A    between atoms: C_21  and  O_22
REMARK                            x       y       z     vdW  Elec       q    Type
REMARK                         _______ _______ _______ _____ _____    ______ ____
ROOT
ATOM      1  C   UNL     1       6.707  -5.767  21.415  0.00  0.00    +0.069 C 
ATOM      2  C   UNL     1       6.611  -5.622  22.907  0.00  0.00    +0.080 A 
ATOM      3  C   UNL     1       5.410  -5.864  23.580  0.00  0.00    +0.142 A 
ATOM      4  C   UNL     1       5.328  -5.669  24.975  0.00  0.00    +0.016 A 
ATOM      5  C   UNL     1       6.500  -5.229  25.645  0.00  0.00    +0.005 A 
ATOM      6  C   UNL     1       7.652  -5.038  24.876  0.00  0.00    +0.117 A 
ATOM      7  N   UNL     1       7.734  -5.221  23.542  0.00  0.00    -0.256 NA
ENDROOT
BRANCH   3   8
ATOM      8  O   UNL     1       4.347  -6.267  22.810  0.00  0.00    -0.505 OA
ATOM      9  H   UNL     1       4.618  -6.465  21.903  0.00  0.00    +0.292 HD
ENDBRANCH   3   8
BRANCH   4  10
ATOM     10  C   UNL     1       4.023  -5.865  25.723  0.00  0.00    +0.121 C 
BRANCH  10  11
ATOM     11  N   UNL     1       3.662  -7.282  25.894  0.00  0.00    -0.298 NA
ATOM     12  H   UNL     1       3.827  -7.520  26.878  0.00  0.00    +0.123 HD
BRANCH  11  13
ATOM     13  C   UNL     1       2.203  -7.561  25.606  0.00  0.00    +0.112 C 
ATOM     14  C   UNL     1       1.550  -6.383  24.867  0.00  0.00    +0.039 C 
ATOM     15  C   UNL     1       1.420  -7.919  26.877  0.00  0.00    +0.039 C 
BRANCH  13  16
ATOM     16  C   UNL     1       2.126  -8.772  24.634  0.00  0.00    +0.325 C 
ATOM     17  O   UNL     1       1.884  -9.922  24.953  0.00  0.00    -0.249 OA
BRANCH  16  18
ATOM     18  O   UNL     1       2.333  -8.395  23.344  0.00  0.00    -0.479 OA
ATOM     19  H   UNL     1       3.067  -8.940  22.985  0.00  0.00    +0.295 HD
ENDBRANCH  16  18
ENDBRANCH  13  16
ENDBRANCH  11  13
ENDBRANCH  10  11
ENDBRANCH   4  10
BRANCH   5  20
ATOM     20  C   UNL     1       6.597  -4.998  27.137  0.00  0.00    +0.209 C 
BRANCH  20  21
ATOM     21  O   UNL     1       6.912  -6.212  27.807  0.00  0.00    -0.282 OA
BRANCH  21  22
ATOM     22  P   UNL     1       5.952  -6.499  29.219  0.00  0.00    +0.473 P 
ATOM     23  O   UNL     1       5.095  -6.755  30.483  0.00  0.00    -0.228 OA
BRANCH  22  24
ATOM     24  O   UNL     1       7.128  -7.553  29.651  0.00  0.00    -0.303 OA
ATOM     25  H   UNL     1       6.805  -7.997  30.459  0.00  0.00    +0.222 HD
ENDBRANCH  22  24
BRANCH  22  26
ATOM     26  O   UNL     1       5.144  -7.597  28.314  0.00  0.00    -0.303 OA
ATOM     27  H   UNL     1       5.451  -8.494  28.545  0.00  0.00    +0.222 HD
ENDBRANCH  22  26
ENDBRANCH  21  22
ENDBRANCH  20  21
ENDBRANCH   5  20
TORSDOF 11
ENDMDL
MODEL 4
REMARK VINA RESULT:      -5.6      1.756      4.142
REMARK  Name = 
REMARK  14 active torsions:
REMARK  status: ('A' for Active; 'I' for Inactive)
REMARK    1  A    between atoms: C_1  and  C_2
REMARK    2  A    between atoms: C_5  and  C_6
REMARK    3  A    between atoms: C_6  and  O_7
REMARK    4  A    between atoms: O_7  and  P_8
REMARK    5  A    between atoms: P_8  and  O_9
REMARK    6  A    between atoms: P_8  and  O_10
REMARK    7  A    between atoms: C_12  and  C_13
REMARK    8  A    between atoms: C_13  and  N_14
REMARK    9  A    between atoms: N_14  and  C_15
REMARK   10  A    between atoms: C_15  and  C_16
REMARK   11  A    between atoms: C_15  and  C_17
REMARK   12  A    between atoms: C_15  and  C_18
REMARK   13  A    between atoms: C_18  and  O_19
REMARK   14  A    between atoms: C_21  and  O_22
REMARK                            x       y       z     vdW  Elec       q    Type
REMARK                         _______ _______ _______ _____ _____    ______ ____
ROOT
ATOM      1  C   UNL     1       9.337   0.124  25.168  0.00  0.00    +0.069 C 
ATOM      2  C   UNL     1       8.470  -1.016  25.622  0.00  0.00    +0.080 A 
ATOM      3  C   UNL     1       8.651  -2.306  25.116  0.00  0.00    +0.142 A 
ATOM      4  C   UNL     1       7.790  -3.351  25.516  0.00  0.00    +0.016 A 
ATOM      5  C   UNL     1       6.758  -3.033  26.438  0.00  0.00    +0.005 A 
ATOM      6  C   UNL     1       6.683  -1.713  26.895  0.00  0.00    +0.117 A 
ATOM      7  N   UNL     1       7.502  -0.711  26.514  0.00  0.00    -0.256 NA
ENDROOT
BRANCH   3   8
ATOM      8  O   UNL     1       9.674  -2.474  24.216  0.00  0.00    -0.505 OA
ATOM      9  H   UNL     1       9.444  -3.118  23.532  0.00  0.00    +0.292 HD
ENDBRANCH   3   8
BRANCH   4  10
ATOM     10  C   UNL     1       7.923  -4.747  24.938  0.00  0.00    +0.121 C 
BRANCH  10  11
ATOM     11  N   UNL     1       8.189  -4.750  23.489  0.00  0.00    -0.298 NA
ATOM     12  H   UNL     1       8.791  -5.557  23.294  0.00  0.00    +0.123 HD
BRANCH  11  13
ATOM     13  C   UNL     1       6.936  -4.915  22.658  0.00  0.00    +0.112 C 
ATOM     14  C   UNL     1       5.732  -5.280  23.538  0.00  0.00    +0.039 C 
ATOM     15  C   UNL     1       7.123  -5.934  21.526  0.00  0.00    +0.039 C 
BRANCH  13  16
ATOM     16  C   UNL     1       6.597  -3.539  22.019  0.00  0.00    +0.325 C 
ATOM     17  O   UNL     1       7.245  -2.516  22.153  0.00  0.00    -0.249 OA
BRANCH  16  18
ATOM     18  O   UNL     1       5.482  -3.606  21.244  0.00  0.00    -0.479 OA
ATOM     19  H   UNL     1       5.139  -4.526  21.287  0.00  0.00    +0.295 HD
ENDBRANCH  16  18
ENDBRANCH  13  16
ENDBRANCH  11  13
ENDBRANCH  10  11
ENDBRANCH   4  10
BRANCH   5  20
ATOM     20  C   UNL     1       5.768  -4.033  26.994  0.00  0.00    +0.209 C 
BRANCH  20  21
ATOM     21  O   UNL     1       6.166  -4.457  28.291  0.00  0.00    -0.282 OA
BRANCH  21  22
ATOM     22  P   UNL     1       5.973  -6.156  28.560  0.00  0.00    +0.473 P 
ATOM     23  O   UNL     1       5.802  -7.675  28.801  0.00  0.00    -0.228 OA
BRANCH  22  24
ATOM     24  O   UNL     1       7.524  -6.286  28.052  0.00  0.00    -0.303 OA
ATOM     25  H   UNL     1       7.594  -7.161  27.627  0.00  0.00    +0.222 HD
ENDBRANCH  22  24
BRANCH  22  26
ATOM     26  O   UNL     1       5.355  -6.214  27.045  0.00  0.00    -0.303 OA
ATOM     27  H   UNL     1       5.929  -6.769  26.483  0.00  0.00    +0.222 HD
ENDBRANCH  22  26
ENDBRANCH  21  22
ENDBRANCH  20  21
ENDBRANCH   5  20
TORSDOF 11
ENDMDL
MODEL 5
REMARK VINA RESULT:      -5.4      2.738      6.233
REMARK  Name = 
REMARK  14 active torsions:
REMARK  status: ('A' for Active; 'I' for Inactive)
REMARK    1  A    between atoms: C_1  and  C_2
REMARK    2  A    between atoms: C_5  and  C_6
REMARK    3  A    between atoms: C_6  and  O_7
REMARK    4  A    between atoms: O_7  and  P_8
REMARK    5  A    between atoms: P_8  and  O_9
REMARK    6  A    between atoms: P_8  and  O_10
REMARK    7  A    between atoms: C_12  and  C_13
REMARK    8  A    between atoms: C_13  and  N_14
REMARK    9  A    between atoms: N_14  and  C_15
REMARK   10  A    between atoms: C_15  and  C_16
REMARK   11  A    between atoms: C_15  and  C_17
REMARK   12  A    between atoms: C_15  and  C_18
REMARK   13  A    between atoms: C_18  and  O_19
REMARK   14  A    between atoms: C_21  and  O_22
REMARK                            x       y       z     vdW  Elec       q    Type
REMARK                         _______ _______ _______ _____ _____    ______ ____
ROOT
ATOM      1  C   UNL     1      11.150   0.671  24.703  0.00  0.00    +0.069 C 
ATOM      2  C   UNL     1      10.030  -0.189  24.188  0.00  0.00    +0.080 A 
ATOM      3  C   UNL     1       9.030  -0.659  25.043  0.00  0.00    +0.142 A 
ATOM      4  C   UNL     1       8.018  -1.510  24.549  0.00  0.00    +0.016 A 
ATOM      5  C   UNL     1       8.065  -1.853  23.172  0.00  0.00    +0.005 A 
ATOM      6  C   UNL     1       9.099  -1.308  22.404  0.00  0.00    +0.117 A 
ATOM      7  N   UNL     1      10.069  -0.496  22.873  0.00  0.00    -0.256 NA
ENDROOT
BRANCH   3   8
ATOM      8  O   UNL     1       9.112  -0.268  26.356  0.00  0.00    -0.505 OA
ATOM      9  H   UNL     1       9.723   0.473  26.470  0.00  0.00    +0.292 HD
ENDBRANCH   3   8
BRANCH   4  10
ATOM     10  C   UNL     1       6.955  -2.085  25.465  0.00  0.00    +0.121 C 
BRANCH  10  11
ATOM     11  N   UNL     1       7.501  -2.999  26.483  0.00  0.00    -0.298 NA
ATOM     12  H   UNL     1       7.608  -2.459  27.348  0.00  0.00    +0.123 HD
BRANCH  11  13
ATOM     13  C   UNL     1       6.582  -4.160  26.791  0.00  0.00    +0.112 C 
ATOM     14  C   UNL     1       5.869  -4.653  25.523  0.00  0.00    +0.039 C 
ATOM     15  C   UNL     1       5.572  -3.822  27.896  0.00  0.00    +0.039 C 
BRANCH  13  16
ATOM     16  C   UNL     1       7.455  -5.350  27.281  0.00  0.00    +0.325 C 
ATOM     17  O   UNL     1       7.140  -6.152  28.142  0.00  0.00    -0.249 OA
BRANCH  16  18
ATOM     18  O   UNL     1       8.632  -5.422  26.605  0.00  0.00    -0.479 OA
ATOM     19  H   UNL     1       9.072  -4.546  26.671  0.00  0.00    +0.295 HD
ENDBRANCH  16  18
ENDBRANCH  13  16
ENDBRANCH  11  13
ENDBRANCH  10  11
ENDBRANCH   4  10
BRANCH   5  20
ATOM     20  C   UNL     1       7.047  -2.726  22.472  0.00  0.00    +0.209 C 
BRANCH  20  21
ATOM     21  O   UNL     1       7.487  -4.078  22.446  0.00  0.00    -0.282 OA
BRANCH  21  22
ATOM     22  P   UNL     1       6.557  -5.095  21.399  0.00  0.00    +0.473 P 
ATOM     23  O   UNL     1       5.724  -6.003  20.462  0.00  0.00    -0.228 OA
BRANCH  22  24
ATOM     24  O   UNL     1       5.260  -4.253  21.939  0.00  0.00    -0.303 OA
ATOM     25  H   UNL     1       4.643  -4.201  21.185  0.00  0.00    +0.222 HD
ENDBRANCH  22  24
BRANCH  22  26
ATOM     26  O   UNL     1       6.523  -6.159  22.642  0.00  0.00    -0.303 OA
ATOM     27  H   UNL     1       6.889  -5.735  23.441  0.00  0.00    +0.222 HD
ENDBRANCH  22  26
ENDBRANCH  21  22
ENDBRANCH  20  21
ENDBRANCH   5  20
TORSDOF 11
ENDMDL
MODEL 6
REMARK VINA RESULT:      -5.4      3.462      4.834
REMARK  Name = 
REMARK  14 active torsions:
REMARK  status: ('A' for Active; 'I' for Inactive)
REMARK    1  A    between atoms: C_1  and  C_2
REMARK    2  A    between atoms: C_5  and  C_6
REMARK    3  A    between atoms: C_6  and  O_7
REMARK    4  A    between atoms: O_7  and  P_8
REMARK    5  A    between atoms: P_8  and  O_9
REMARK    6  A    between atoms: P_8  and  O_10
REMARK    7  A    between atoms: C_12  and  C_13
REMARK    8  A    between atoms: C_13  and  N_14
REMARK    9  A    between atoms: N_14  and  C_15
REMARK   10  A    between atoms: C_15  and  C_16
REMARK   11  A    between atoms: C_15  and  C_17
REMARK   12  A    between atoms: C_15  and  C_18
REMARK   13  A    between atoms: C_18  and  O_19
REMARK   14  A    between atoms: C_21  and  O_22
REMARK                            x       y       z     vdW  Elec       q    Type
REMARK                         _______ _______ _______ _____ _____    ______ ____
ROOT
ATOM      1  C   UNL     1       5.792  -0.516  27.797  0.00  0.00    +0.069 C 
ATOM      2  C   UNL     1       6.401  -1.360  26.714  0.00  0.00    +0.080 A 
ATOM      3  C   UNL     1       7.658  -1.056  26.184  0.00  0.00    +0.142 A 
ATOM      4  C   UNL     1       8.188  -1.830  25.129  0.00  0.00    +0.016 A 
ATOM      5  C   UNL     1       7.400  -2.909  24.649  0.00  0.00    +0.005 A 
ATOM      6  C   UNL     1       6.166  -3.135  25.267  0.00  0.00    +0.117 A 
ATOM      7  N   UNL     1       5.655  -2.397  26.274  0.00  0.00    -0.256 NA
ENDROOT
BRANCH   3   8
ATOM      8  O   UNL     1       8.307   0.025  26.726  0.00  0.00    -0.505 OA
ATOM      9  H   UNL     1       9.259  -0.009  26.558  0.00  0.00    +0.292 HD
ENDBRANCH   3   8
BRANCH   4  10
ATOM     10  C   UNL     1       9.521  -1.488  24.493  0.00  0.00    +0.121 C 
BRANCH  10  11
ATOM     11  N   UNL     1       9.713  -0.041  24.295  0.00  0.00    -0.298 NA
ATOM     12  H   UNL     1      10.710   0.154  24.437  0.00  0.00    +0.123 HD
BRANCH  11  13
ATOM     13  C   UNL     1       9.362   0.417  22.898  0.00  0.00    +0.112 C 
ATOM     14  C   UNL     1       7.857   0.696  22.768  0.00  0.00    +0.039 C 
ATOM     15  C   UNL     1       9.834  -0.576  21.827  0.00  0.00    +0.039 C 
BRANCH  13  16
ATOM     16  C   UNL     1      10.072   1.777  22.643  0.00  0.00    +0.325 C 
ATOM     17  O   UNL     1      10.776   2.369  23.441  0.00  0.00    -0.249 OA
BRANCH  16  18
ATOM     18  O   UNL     1       9.843   2.236  21.384  0.00  0.00    -0.479 OA
ATOM     19  H   UNL     1       9.046   2.810  21.412  0.00  0.00    +0.295 HD
ENDBRANCH  16  18
ENDBRANCH  13  16
ENDBRANCH  11  13
ENDBRANCH  10  11
ENDBRANCH   4  10
BRANCH   5  20
ATOM     20  C   UNL     1       7.825  -3.856  23.548  0.00  0.00    +0.209 C 
BRANCH  20  21
ATOM     21  O   UNL     1       6.889  -4.918  23.417  0.00  0.00    -0.282 OA
BRANCH  21  22
ATOM     22  P   UNL     1       6.402  -5.221  21.785  0.00  0.00    +0.473 P 
ATOM     23  O   UNL     1       5.966  -5.492  20.324  0.00  0.00    -0.228 OA
BRANCH  22  24
ATOM     24  O   UNL     1       4.983  -4.524  22.210  0.00  0.00    -0.303 OA
ATOM     25  H   UNL     1       4.287  -5.166  21.970  0.00  0.00    +0.222 HD
ENDBRANCH  22  24
BRANCH  22  26
ATOM     26  O   UNL     1       5.957  -6.707  22.309  0.00  0.00    -0.303 OA
ATOM     27  H   UNL     1       6.615  -7.034  22.951  0.00  0.00    +0.222 HD
ENDBRANCH  22  26
ENDBRANCH  21  22
ENDBRANCH  20  21
ENDBRANCH   5  20
TORSDOF 11
ENDMDL
MODEL 7
REMARK VINA RESULT:      -5.4      2.675      5.731
REMARK  Name = 
REMARK  14 active torsions:
REMARK  status: ('A' for Active; 'I' for Inactive)
REMARK    1  A    between atoms: C_1  and  C_2
REMARK    2  A    between atoms: C_5  and  C_6
REMARK    3  A    between atoms: C_6  and  O_7
REMARK    4  A    between atoms: O_7  and  P_8
REMARK    5  A    between atoms: P_8  and  O_9
REMARK    6  A    between atoms: P_8  and  O_10
REMARK    7  A    between atoms: C_12  and  C_13
REMARK    8  A    between atoms: C_13  and  N_14
REMARK    9  A    between atoms: N_14  and  C_15
REMARK   10  A    between atoms: C_15  and  C_16
REMARK   11  A    between atoms: C_15  and  C_17
REMARK   12  A    between atoms: C_15  and  C_18
REMARK   13  A    between atoms: C_18  and  O_19
REMARK   14  A    between atoms: C_21  and  O_22
REMARK                            x       y       z     vdW  Elec       q    Type
REMARK                         _______ _______ _______ _____ _____    ______ ____
ROOT
ATOM      1  C   UNL     1      10.133   1.575  21.876  0.00  0.00    +0.069 C 
ATOM      2  C   UNL     1       9.731   0.771  23.080  0.00  0.00    +0.080 A 
ATOM      3  C   UNL     1       9.781  -0.625  23.065  0.00  0.00    +0.142 A 
ATOM      4  C   UNL     1       9.347  -1.361  24.189  0.00  0.00    +0.016 A 
ATOM      5  C   UNL     1       8.871  -0.629  25.308  0.00  0.00    +0.005 A 
ATOM      6  C   UNL     1       8.885   0.767  25.221  0.00  0.00    +0.117 A 
ATOM      7  N   UNL     1       9.297   1.475  24.149  0.00  0.00    -0.256 NA
ENDROOT
BRANCH   3   8
ATOM      8  O   UNL     1      10.244  -1.210  21.913  0.00  0.00    -0.505 OA
ATOM      9  H   UNL     1      11.037  -0.766  21.582  0.00  0.00    +0.292 HD
ENDBRANCH   3   8
BRANCH   4  10
ATOM     10  C   UNL     1       9.333  -2.878  24.179  0.00  0.00    +0.121 C 
BRANCH  10  11
ATOM     11  N   UNL     1       8.011  -3.442  23.855  0.00  0.00    -0.298 NA
ATOM     12  H   UNL     1       7.878  -3.336  22.844  0.00  0.00    +0.123 HD
BRANCH  11  13
ATOM     13  C   UNL     1       7.905  -4.918  24.168  0.00  0.00    +0.112 C 
ATOM     14  C   UNL     1       9.158  -5.421  24.900  0.00  0.00    +0.039 C 
ATOM     15  C   UNL     1       7.622  -5.757  22.914  0.00  0.00    +0.039 C 
BRANCH  13  16
ATOM     16  C   UNL     1       6.723  -5.116  25.159  0.00  0.00    +0.325 C 
ATOM     17  O   UNL     1       5.582  -4.726  24.988  0.00  0.00    -0.249 OA
BRANCH  16  18
ATOM     18  O   UNL     1       7.100  -5.822  26.257  0.00  0.00    -0.479 OA
ATOM     19  H   UNL     1       8.072  -5.962  26.207  0.00  0.00    +0.295 HD
ENDBRANCH  16  18
ENDBRANCH  13  16
ENDBRANCH  11  13
ENDBRANCH  10  11
ENDBRANCH   4  10
BRANCH   5  20
ATOM     20  C   UNL     1       8.397  -1.254  26.602  0.00  0.00    +0.209 C 
BRANCH  20  21
ATOM     21  O   UNL     1       7.241  -2.049  26.374  0.00  0.00    -0.282 OA
BRANCH  21  22
ATOM     22  P   UNL     1       5.788  -1.128  26.186  0.00  0.00    +0.473 P 
ATOM     23  O   UNL     1       4.487  -0.304  26.019  0.00  0.00    -0.228 OA
BRANCH  22  24
ATOM     24  O   UNL     1       5.032  -2.417  26.855  0.00  0.00    -0.303 OA
ATOM     25  H   UNL     1       5.697  -2.853  27.421  0.00  0.00    +0.222 HD
ENDBRANCH  22  24
BRANCH  22  26
ATOM     26  O   UNL     1       5.727  -1.738  24.669  0.00  0.00    -0.303 OA
ATOM     27  H   UNL     1       5.082  -1.230  24.142  0.00  0.00    +0.222 HD
ENDBRANCH  22  26
ENDBRANCH  21  22
ENDBRANCH  20  21
ENDBRANCH   5  20
TORSDOF 11
ENDMDL
MODEL 8
REMARK VINA RESULT:      -5.3      3.676      5.802
REMARK  Name = 
REMARK  14 active torsions:
REMARK  status: ('A' for Active; 'I' for Inactive)
REMARK    1  A    between atoms: C_1  and  C_2
REMARK    2  A    between atoms: C_5  and  C_6
REMARK    3  A    between atoms: C_6  and  O_7
REMARK    4  A    between atoms: O_7  and  P_8
REMARK    5  A    between atoms: P_8  and  O_9
REMARK    6  A    between atoms: P_8  and  O_10
REMARK    7  A    between atoms: C_12  and  C_13
REMARK    8  A    between atoms: C_13  and  N_14
REMARK    9  A    between atoms: N_14  and  C_15
REMARK   10  A    between atoms: C_15  and  C_16
REMARK   11  A    between atoms: C_15  and  C_17
REMARK   12  A    between atoms: C_15  and  C_18
REMARK   13  A    between atoms: C_18  and  O_19
REMARK   14  A    between atoms: C_21  and  O_22
REMARK                            x       y       z     vdW  Elec       q    Type
REMARK                         _______ _______ _______ _____ _____    ______ ____
ROOT
ATOM      1  C   UNL     1      10.932   1.533  23.828  0.00  0.00    +0.069 C 
ATOM      2  C   UNL     1      10.174   0.242  23.700  0.00  0.00    +0.080 A 
ATOM      3  C   UNL     1       9.598  -0.370  24.816  0.00  0.00    +0.142 A 
ATOM      4  C   UNL     1       8.937  -1.610  24.681  0.00  0.00    +0.016 A 
ATOM      5  C   UNL     1       8.885  -2.187  23.385  0.00  0.00    +0.005 A 
ATOM      6  C   UNL     1       9.477  -1.477  22.336  0.00  0.00    +0.117 A 
ATOM      7  N   UNL     1      10.112  -0.293  22.460  0.00  0.00    -0.256 NA
ENDROOT
BRANCH   3   8
ATOM      8  O   UNL     1       9.737   0.284  26.014  0.00  0.00    -0.505 OA
ATOM      9  H   UNL     1      10.127   1.162  25.898  0.00  0.00    +0.292 HD
ENDBRANCH   3   8
BRANCH   4  10
ATOM     10  C   UNL     1       8.356  -2.328  25.883  0.00  0.00    +0.121 C 
BRANCH  10  11
ATOM     11  N   UNL     1       7.365  -1.520  26.616  0.00  0.00    -0.298 NA
ATOM     12  H   UNL     1       7.447  -0.558  26.272  0.00  0.00    +0.123 HD
BRANCH  11  13
ATOM     13  C   UNL     1       5.941  -1.964  26.370  0.00  0.00    +0.112 C 
ATOM     14  C   UNL     1       5.064  -1.723  27.608  0.00  0.00    +0.039 C 
ATOM     15  C   UNL     1       5.861  -3.427  25.912  0.00  0.00    +0.039 C 
BRANCH  13  16
ATOM     16  C   UNL     1       5.345  -1.072  25.244  0.00  0.00    +0.325 C 
ATOM     17  O   UNL     1       4.962   0.076  25.379  0.00  0.00    -0.249 OA
BRANCH  16  18
ATOM     18  O   UNL     1       5.325  -1.718  24.049  0.00  0.00    -0.479 OA
ATOM     19  H   UNL     1       5.562  -2.658  24.209  0.00  0.00    +0.295 HD
ENDBRANCH  16  18
ENDBRANCH  13  16
ENDBRANCH  11  13
ENDBRANCH  10  11
ENDBRANCH   4  10
BRANCH   5  20
ATOM     20  C   UNL     1       8.193  -3.492  23.056  0.00  0.00    +0.209 C 
BRANCH  20  21
ATOM     21  O   UNL     1       7.017  -3.252  22.295  0.00  0.00    -0.282 OA
BRANCH  21  22
ATOM     22  P   UNL     1       6.268  -4.692  21.694  0.00  0.00    +0.473 P 
ATOM     23  O   UNL     1       5.597  -5.980  21.157  0.00  0.00    -0.228 OA
BRANCH  22  24
ATOM     24  O   UNL     1       4.885  -4.089  22.331  0.00  0.00    -0.303 OA
ATOM     25  H   UNL     1       5.144  -3.650  23.164  0.00  0.00    +0.222 HD
ENDBRANCH  22  24
BRANCH  22  26
ATOM     26  O   UNL     1       6.740  -5.392  23.097  0.00  0.00    -0.303 OA
ATOM     27  H   UNL     1       7.357  -6.122  22.902  0.00  0.00    +0.222 HD
ENDBRANCH  22  26
ENDBRANCH  21  22
ENDBRANCH  20  21
ENDBRANCH   5  20
TORSDOF 11
ENDMDL
MODEL 9
REMARK VINA RESULT:      -5.3      3.558      4.414
REMARK  Name = 
REMARK  14 active torsions:
REMARK  status: ('A' for Active; 'I' for Inactive)
REMARK    1  A    between atoms: C_1  and  C_2
REMARK    2  A    between atoms: C_5  and  C_6
REMARK    3  A    between atoms: C_6  and  O_7
REMARK    4  A    between atoms: O_7  and  P_8
REMARK    5  A    between atoms: P_8  and  O_9
REMARK    6  A    between atoms: P_8  and  O_10
REMARK    7  A    between atoms: C_12  and  C_13
REMARK    8  A    between atoms: C_13  and  N_14
REMARK    9  A    between atoms: N_14  and  C_15
REMARK   10  A    between atoms: C_15  and  C_16
REMARK   11  A    between atoms: C_15  and  C_17
REMARK   12  A    between atoms: C_15  and  C_18
REMARK   13  A    between atoms: C_18  and  O_19
REMARK   14  A    between atoms: C_21  and  O_22
REMARK                            x       y       z     vdW  Elec       q    Type
REMARK                         _______ _______ _______ _____ _____    ______ ____
ROOT
ATOM      1  C   UNL     1       9.784  -4.823  26.228  0.00  0.00    +0.069 C 
ATOM      2  C   UNL     1       8.648  -4.400  25.341  0.00  0.00    +0.080 A 
ATOM      3  C   UNL     1       8.847  -3.493  24.296  0.00  0.00    +0.142 A 
ATOM      4  C   UNL     1       7.755  -3.067  23.510  0.00  0.00    +0.016 A 
ATOM      5  C   UNL     1       6.476  -3.597  23.824  0.00  0.00    +0.005 A 
ATOM      6  C   UNL     1       6.396  -4.513  24.877  0.00  0.00    +0.117 A 
ATOM      7  N   UNL     1       7.436  -4.922  25.633  0.00  0.00    -0.256 NA
ENDROOT
BRANCH   3   8
ATOM      8  O   UNL     1      10.131  -3.043  24.112  0.00  0.00    -0.505 OA
ATOM      9  H   UNL     1      10.650  -3.105  24.925  0.00  0.00    +0.292 HD
ENDBRANCH   3   8
BRANCH   4  10
ATOM     10  C   UNL     1       7.930  -2.038  22.409  0.00  0.00    +0.121 C 
BRANCH  10  11
ATOM     11  N   UNL     1       7.719  -0.656  22.871  0.00  0.00    -0.298 NA
ATOM     12  H   UNL     1       7.590  -0.693  23.888  0.00  0.00    +0.123 HD
BRANCH  11  13
ATOM     13  C   UNL     1       8.903   0.246  22.603  0.00  0.00    +0.112 C 
ATOM     14  C   UNL     1       8.449   1.615  22.077  0.00  0.00    +0.039 C 
ATOM     15  C   UNL     1       9.921  -0.402  21.654  0.00  0.00    +0.039 C 
BRANCH  13  16
ATOM     16  C   UNL     1       9.615   0.523  23.958  0.00  0.00    +0.325 C 
ATOM     17  O   UNL     1       9.525  -0.165  24.959  0.00  0.00    -0.249 OA
BRANCH  16  18
ATOM     18  O   UNL     1      10.398   1.632  23.897  0.00  0.00    -0.479 OA
ATOM     19  H   UNL     1       9.839   2.409  24.122  0.00  0.00    +0.295 HD
ENDBRANCH  16  18
ENDBRANCH  13  16
ENDBRANCH  11  13
ENDBRANCH  10  11
ENDBRANCH   4  10
BRANCH   5  20
ATOM     20  C   UNL     1       5.206  -3.273  23.068  0.00  0.00    +0.209 C 
BRANCH  20  21
ATOM     21  O   UNL     1       5.190  -3.944  21.815  0.00  0.00    -0.282 OA
BRANCH  21  22
ATOM     22  P   UNL     1       6.051  -5.445  21.816  0.00  0.00    +0.473 P 
ATOM     23  O   UNL     1       6.821  -6.788  21.816  0.00  0.00    -0.228 OA
BRANCH  22  24
ATOM     24  O   UNL     1       5.888  -5.396  20.188  0.00  0.00    -0.303 OA
ATOM     25  H   UNL     1       6.561  -4.765  19.870  0.00  0.00    +0.222 HD
ENDBRANCH  22  24
BRANCH  22  26
ATOM     26  O   UNL     1       4.595  -6.154  22.052  0.00  0.00    -0.303 OA
ATOM     27  H   UNL     1       4.363  -6.686  21.267  0.00  0.00    +0.222 HD
ENDBRANCH  22  26
ENDBRANCH  21  22
ENDBRANCH  20  21
ENDBRANCH   5  20
TORSDOF 11
ENDMDL
