MODEL 1
REMARK VINA RESULT:      -5.8      0.000      0.000
REMARK  Name = 
REMARK  1 active torsions:
REMARK  status: ('A' for Active; 'I' for Inactive)
REMARK    1  A    between atoms: C_4  and  C_7
REMARK                            x       y       z     vdW  Elec       q    Type
REMARK                         _______ _______ _______ _____ _____    ______ ____
ROOT
ATOM      1  C   UNL     1       9.321  -1.682  23.188  0.00  0.00    +0.095 A 
ATOM      2  C   UNL     1       9.041  -1.410  21.867  0.00  0.00    +0.050 A 
ATOM      3  C   UNL     1       9.448  -0.179  21.419  0.00  0.00    +0.116 A 
ATOM      4  N   UNL     1      10.081   0.719  22.194  0.00  0.00    -0.223 NA
ATOM      5  C   UNL     1      10.298   0.366  23.463  0.00  0.00    +0.213 A 
ATOM      6  N   UNL     1      10.960   1.268  24.267  0.00  0.00    -0.327 N 
ATOM      7  H   UNL     1      11.494   1.905  23.692  0.00  0.00    +0.145 HD
ATOM      8  H   UNL     1      11.454   0.779  24.999  0.00  0.00    +0.145 HD
ATOM      9  N   UNL     1       9.962  -0.807  23.997  0.00  0.00    -0.213 NA
ENDROOT
BRANCH   1  16
ATOM     10  N   UNL     1       9.818  -5.829  25.565  0.00  0.00    -0.338 N 
ATOM     11  H   UNL     1       9.398  -6.750  25.556  0.00  0.00    +0.144 HD
ATOM     12  H   UNL     1      10.830  -5.829  25.512  0.00  0.00    +0.144 HD
ATOM     13  C   UNL     1       9.197  -4.851  24.887  0.00  0.00    +0.156 A 
ATOM     14  S   UNL     1       7.529  -4.961  24.497  0.00  0.00    -0.060 S 
ATOM     15  C   UNL     1       7.623  -3.444  23.709  0.00  0.00    +0.078 A 
ATOM     16  C   UNL     1       8.913  -2.953  23.784  0.00  0.00    +0.099 A 
ATOM     17  N   UNL     1       9.809  -3.774  24.462  0.00  0.00    -0.224 NA
ENDBRANCH   1  16
TORSDOF 1
ENDMDL
MODEL 2
REMARK VINA RESULT:      -5.8      2.327      5.125
REMARK  Name = 
REMARK  1 active torsions:
REMARK  status: ('A' for Active; 'I' for Inactive)
REMARK    1  A    between atoms: C_4  and  C_7
REMARK                            x       y       z     vdW  Elec       q    Type
REMARK                         _______ _______ _______ _____ _____    ______ ____
ROOT
ATOM      1  C   UNL     1       9.098  -2.447  23.705  0.00  0.00    +0.095 A 
ATOM      2  C   UNL     1       8.068  -2.918  22.920  0.00  0.00    +0.050 A 
ATOM      3  C   UNL     1       7.755  -4.242  23.090  0.00  0.00    +0.116 A 
ATOM      4  N   UNL     1       8.392  -5.049  23.957  0.00  0.00    -0.223 NA
ATOM      5  C   UNL     1       9.383  -4.501  24.665  0.00  0.00    +0.213 A 
ATOM      6  N   UNL     1      10.036  -5.309  25.571  0.00  0.00    -0.327 N 
ATOM      7  H   UNL     1       9.442  -6.087  25.820  0.00  0.00    +0.145 HD
ATOM      8  H   UNL     1      10.410  -4.750  26.324  0.00  0.00    +0.145 HD
ATOM      9  N   UNL     1       9.758  -3.225  24.594  0.00  0.00    -0.213 NA
ENDROOT
BRANCH   1  16
ATOM     10  N   UNL     1       9.887   1.797  21.595  0.00  0.00    -0.338 N 
ATOM     11  H   UNL     1      10.556   2.554  21.664  0.00  0.00    +0.144 HD
ATOM     12  H   UNL     1       9.750   1.444  20.654  0.00  0.00    +0.144 HD
ATOM     13  C   UNL     1       9.876   0.877  22.572  0.00  0.00    +0.156 A 
ATOM     14  S   UNL     1      10.529   1.221  24.122  0.00  0.00    -0.060 S 
ATOM     15  C   UNL     1      10.132  -0.364  24.630  0.00  0.00    +0.078 A 
ATOM     16  C   UNL     1       9.537  -1.057  23.593  0.00  0.00    +0.099 A 
ATOM     17  N   UNL     1       9.399  -0.332  22.413  0.00  0.00    -0.224 NA
ENDBRANCH   1  16
TORSDOF 1
ENDMDL
MODEL 3
REMARK VINA RESULT:      -5.6      3.705      5.569
REMARK  Name = 
REMARK  1 active torsions:
REMARK  status: ('A' for Active; 'I' for Inactive)
REMARK    1  A    between atoms: C_4  and  C_7
REMARK                            x       y       z     vdW  Elec       q    Type
REMARK                         _______ _______ _______ _____ _____    ______ ____
ROOT
ATOM      1  C   UNL     1      10.486   3.438  23.552  0.00  0.00    +0.095 A 
ATOM      2  C   UNL     1       9.484   4.288  23.969  0.00  0.00    +0.050 A 
ATOM      3  C   UNL     1       9.845   5.604  24.103  0.00  0.00    +0.116 A 
ATOM      4  N   UNL     1      11.084   6.062  23.850  0.00  0.00    -0.223 NA
ATOM      5  C   UNL     1      11.987   5.159  23.461  0.00  0.00    +0.213 A 
ATOM      6  N   UNL     1      13.258   5.612  23.181  0.00  0.00    -0.327 N 
ATOM      7  H   UNL     1      13.225   6.599  22.968  0.00  0.00    +0.145 HD
ATOM      8  H   UNL     1      13.699   5.006  22.505  0.00  0.00    +0.145 HD
ATOM      9  N   UNL     1      11.741   3.861  23.280  0.00  0.00    -0.213 NA
ENDROOT
BRANCH   1  16
ATOM     10  N   UNL     1       9.769  -0.715  21.244  0.00  0.00    -0.338 N 
ATOM     11  H   UNL     1       9.247  -1.571  21.389  0.00  0.00    +0.144 HD
ATOM     12  H   UNL     1       9.614  -0.279  20.342  0.00  0.00    +0.144 HD
ATOM     13  C   UNL     1       9.902   0.122  22.284  0.00  0.00    +0.156 A 
ATOM     14  S   UNL     1       9.715  -0.430  23.898  0.00  0.00    -0.060 S 
ATOM     15  C   UNL     1      10.010   1.158  24.465  0.00  0.00    +0.078 A 
ATOM     16  C   UNL     1      10.225   2.008  23.397  0.00  0.00    +0.099 A 
ATOM     17  N   UNL     1      10.156   1.400  22.147  0.00  0.00    -0.224 NA
ENDBRANCH   1  16
TORSDOF 1
ENDMDL
MODEL 4
REMARK VINA RESULT:      -5.5      0.995      1.779
REMARK  Name = 
REMARK  1 active torsions:
REMARK  status: ('A' for Active; 'I' for Inactive)
REMARK    1  A    between atoms: C_4  and  C_7
REMARK                            x       y       z     vdW  Elec       q    Type
REMARK                         _______ _______ _______ _____ _____    ______ ____
ROOT
ATOM      1  C   UNL     1       9.401  -1.272  23.603  0.00  0.00    +0.095 A 
ATOM      2  C   UNL     1      10.188  -0.597  24.512  0.00  0.00    +0.050 A 
ATOM      3  C   UNL     1      10.530   0.683  24.159  0.00  0.00    +0.116 A 
ATOM      4  N   UNL     1      10.137   1.265  23.012  0.00  0.00    -0.223 NA
ATOM      5  C   UNL     1       9.386   0.526  22.193  0.00  0.00    +0.213 A 
ATOM      6  N   UNL     1       8.961   1.112  21.020  0.00  0.00    -0.327 N 
ATOM      7  H   UNL     1       8.979   2.117  21.119  0.00  0.00    +0.145 HD
ATOM      8  H   UNL     1       8.094   0.691  20.719  0.00  0.00    +0.145 HD
ATOM      9  N   UNL     1       8.981  -0.719  22.443  0.00  0.00    -0.213 NA
ENDROOT
BRANCH   1  16
ATOM     10  N   UNL     1       9.722  -5.738  25.348  0.00  0.00    -0.338 N 
ATOM     11  H   UNL     1       9.422  -6.668  25.083  0.00  0.00    +0.144 HD
ATOM     12  H   UNL     1      10.708  -5.665  25.572  0.00  0.00    +0.144 HD
ATOM     13  C   UNL     1       9.193  -4.696  24.689  0.00  0.00    +0.156 A 
ATOM     14  S   UNL     1       7.703  -4.840  23.850  0.00  0.00    -0.060 S 
ATOM     15  C   UNL     1       7.829  -3.204  23.363  0.00  0.00    +0.078 A 
ATOM     16  C   UNL     1       8.995  -2.653  23.860  0.00  0.00    +0.099 A 
ATOM     17  N   UNL     1       9.772  -3.523  24.619  0.00  0.00    -0.224 NA
ENDBRANCH   1  16
TORSDOF 1
ENDMDL
MODEL 5
REMARK VINA RESULT:      -5.4      2.089      2.730
REMARK  Name = 
REMARK  1 active torsions:
REMARK  status: ('A' for Active; 'I' for Inactive)
REMARK    1  A    between atoms: C_4  and  C_7
REMARK                            x       y       z     vdW  Elec       q    Type
REMARK                         _______ _______ _______ _____ _____    ______ ____
ROOT
ATOM      1  C   UNL     1       9.397  -0.789  23.529  0.00  0.00    +0.095 A 
ATOM      2  C   UNL     1      10.087  -0.477  24.680  0.00  0.00    +0.050 A 
ATOM      3  C   UNL     1      10.695   0.752  24.688  0.00  0.00    +0.116 A 
ATOM      4  N   UNL     1      10.638   1.613  23.657  0.00  0.00    -0.223 NA
ATOM      5  C   UNL     1       9.954   1.215  22.583  0.00  0.00    +0.213 A 
ATOM      6  N   UNL     1       9.871   2.092  21.523  0.00  0.00    -0.327 N 
ATOM      7  H   UNL     1      10.032   3.034  21.850  0.00  0.00    +0.145 HD
ATOM      8  H   UNL     1       9.024   1.921  21.000  0.00  0.00    +0.145 HD
ATOM      9  N   UNL     1       9.310   0.053  22.474  0.00  0.00    -0.213 NA
ENDROOT
BRANCH   1  16
ATOM     10  N   UNL     1       6.381  -4.056  21.706  0.00  0.00    -0.338 N 
ATOM     11  H   UNL     1       5.846  -4.848  22.040  0.00  0.00    +0.144 HD
ATOM     12  H   UNL     1       5.842  -3.380  21.177  0.00  0.00    +0.144 HD
ATOM     13  C   UNL     1       7.323  -3.549  22.516  0.00  0.00    +0.156 A 
ATOM     14  S   UNL     1       7.996  -4.484  23.789  0.00  0.00    -0.060 S 
ATOM     15  C   UNL     1       8.978  -3.154  24.233  0.00  0.00    +0.078 A 
ATOM     16  C   UNL     1       8.729  -2.083  23.395  0.00  0.00    +0.099 A 
ATOM     17  N   UNL     1       7.772  -2.323  22.414  0.00  0.00    -0.224 NA
ENDBRANCH   1  16
TORSDOF 1
ENDMDL
MODEL 6
REMARK VINA RESULT:      -5.4      2.624      5.335
REMARK  Name = 
REMARK  1 active torsions:
REMARK  status: ('A' for Active; 'I' for Inactive)
REMARK    1  A    between atoms: C_4  and  C_7
REMARK                            x       y       z     vdW  Elec       q    Type
REMARK                         _______ _______ _______ _____ _____    ______ ____
ROOT
ATOM      1  C   UNL     1       8.919  -2.366  23.518  0.00  0.00    +0.095 A 
ATOM      2  C   UNL     1       9.352  -3.257  24.476  0.00  0.00    +0.050 A 
ATOM      3  C   UNL     1       8.761  -4.494  24.441  0.00  0.00    +0.116 A 
ATOM      4  N   UNL     1       7.823  -4.842  23.543  0.00  0.00    -0.223 NA
ATOM      5  C   UNL     1       7.463  -3.906  22.662  0.00  0.00    +0.213 A 
ATOM      6  N   UNL     1       6.514  -4.250  21.724  0.00  0.00    -0.327 N 
ATOM      7  H   UNL     1       6.494  -5.255  21.616  0.00  0.00    +0.145 HD
ATOM      8  H   UNL     1       6.639  -3.697  20.888  0.00  0.00    +0.145 HD
ATOM      9  N   UNL     1       7.983  -2.681  22.593  0.00  0.00    -0.213 NA
ENDROOT
BRANCH   1  16
ATOM     10  N   UNL     1      10.011   1.911  21.621  0.00  0.00    -0.338 N 
ATOM     11  H   UNL     1      10.735   2.612  21.724  0.00  0.00    +0.144 HD
ATOM     12  H   UNL     1       9.845   1.619  20.665  0.00  0.00    +0.144 HD
ATOM     13  C   UNL     1       9.936   0.946  22.550  0.00  0.00    +0.156 A 
ATOM     14  S   UNL     1      10.620   1.160  24.110  0.00  0.00    -0.060 S 
ATOM     15  C   UNL     1      10.108  -0.416  24.539  0.00  0.00    +0.078 A 
ATOM     16  C   UNL     1       9.459  -1.009  23.473  0.00  0.00    +0.099 A 
ATOM     17  N   UNL     1       9.370  -0.215  22.333  0.00  0.00    -0.224 NA
ENDBRANCH   1  16
TORSDOF 1
ENDMDL
MODEL 7
REMARK VINA RESULT:      -5.1      3.806      5.705
REMARK  Name = 
REMARK  1 active torsions:
REMARK  status: ('A' for Active; 'I' for Inactive)
REMARK    1  A    between atoms: C_4  and  C_7
REMARK                            x       y       z     vdW  Elec       q    Type
REMARK                         _______ _______ _______ _____ _____    ______ ____
ROOT
ATOM      1  C   UNL     1      10.490   3.484  23.472  0.00  0.00    +0.095 A 
ATOM      2  C   UNL     1      11.732   4.066  23.337  0.00  0.00    +0.050 A 
ATOM      3  C   UNL     1      11.767   5.427  23.502  0.00  0.00    +0.116 A 
ATOM      4  N   UNL     1      10.679   6.167  23.780  0.00  0.00    -0.223 NA
ATOM      5  C   UNL     1       9.520   5.512  23.882  0.00  0.00    +0.213 A 
ATOM      6  N   UNL     1       8.397   6.253  24.182  0.00  0.00    -0.327 N 
ATOM      7  H   UNL     1       8.672   7.116  24.630  0.00  0.00    +0.145 HD
ATOM      8  H   UNL     1       7.722   5.676  24.663  0.00  0.00    +0.145 HD
ATOM      9  N   UNL     1       9.375   4.194  23.758  0.00  0.00    -0.213 NA
ENDROOT
BRANCH   1  16
ATOM     10  N   UNL     1       9.604  -0.621  21.138  0.00  0.00    -0.338 N 
ATOM     11  H   UNL     1       9.211  -1.530  21.347  0.00  0.00    +0.144 HD
ATOM     12  H   UNL     1       9.198  -0.166  20.328  0.00  0.00    +0.144 HD
ATOM     13  C   UNL     1       9.911   0.182  22.168  0.00  0.00    +0.156 A 
ATOM     14  S   UNL     1      10.169  -0.453  23.742  0.00  0.00    -0.060 S 
ATOM     15  C   UNL     1      10.452   1.132  24.324  0.00  0.00    +0.078 A 
ATOM     16  C   UNL     1      10.326   2.043  23.292  0.00  0.00    +0.099 A 
ATOM     17  N   UNL     1      10.011   1.483  22.058  0.00  0.00    -0.224 NA
ENDBRANCH   1  16
TORSDOF 1
ENDMDL
MODEL 8
REMARK VINA RESULT:      -5.0      3.084      5.780
REMARK  Name = 
REMARK  1 active torsions:
REMARK  status: ('A' for Active; 'I' for Inactive)
REMARK    1  A    between atoms: C_4  and  C_7
REMARK                            x       y       z     vdW  Elec       q    Type
REMARK                         _______ _______ _______ _____ _____    ______ ____
ROOT
ATOM      1  C   UNL     1       7.235  -4.049  23.907  0.00  0.00    +0.095 A 
ATOM      2  C   UNL     1       6.957  -4.374  25.217  0.00  0.00    +0.050 A 
ATOM      3  C   UNL     1       6.047  -5.385  25.393  0.00  0.00    +0.116 A 
ATOM      4  N   UNL     1       5.452  -6.031  24.375  0.00  0.00    -0.223 NA
ATOM      5  C   UNL     1       5.780  -5.636  23.142  0.00  0.00    +0.213 A 
ATOM      6  N   UNL     1       5.192  -6.298  22.087  0.00  0.00    -0.327 N 
ATOM      7  H   UNL     1       4.880  -7.209  22.391  0.00  0.00    +0.145 HD
ATOM      8  H   UNL     1       5.796  -6.260  21.278  0.00  0.00    +0.145 HD
ATOM      9  N   UNL     1       6.663  -4.680  22.857  0.00  0.00    -0.213 NA
ENDROOT
BRANCH   1  16
ATOM     10  N   UNL     1       9.661  -0.931  21.171  0.00  0.00    -0.338 N 
ATOM     11  H   UNL     1      10.563  -0.471  21.181  0.00  0.00    +0.144 HD
ATOM     12  H   UNL     1       9.440  -1.401  20.300  0.00  0.00    +0.144 HD
ATOM     13  C   UNL     1       9.261  -1.554  22.291  0.00  0.00    +0.156 A 
ATOM     14  S   UNL     1       9.930  -1.149  23.818  0.00  0.00    -0.060 S 
ATOM     15  C   UNL     1       8.941  -2.336  24.555  0.00  0.00    +0.078 A 
ATOM     16  C   UNL     1       8.172  -2.970  23.597  0.00  0.00    +0.099 A 
ATOM     17  N   UNL     1       8.369  -2.512  22.298  0.00  0.00    -0.224 NA
ENDBRANCH   1  16
TORSDOF 1
ENDMDL
MODEL 9
REMARK VINA RESULT:      -5.0      4.452      6.963
REMARK  Name = 
REMARK  1 active torsions:
REMARK  status: ('A' for Active; 'I' for Inactive)
REMARK    1  A    between atoms: C_4  and  C_7
REMARK                            x       y       z     vdW  Elec       q    Type
REMARK                         _______ _______ _______ _____ _____    ______ ____
ROOT
ATOM      1  C   UNL     1       9.774   2.099  23.659  0.00  0.00    +0.095 A 
ATOM      2  C   UNL     1      10.532   1.046  24.123  0.00  0.00    +0.050 A 
ATOM      3  C   UNL     1       9.912  -0.177  24.111  0.00  0.00    +0.116 A 
ATOM      4  N   UNL     1       8.652  -0.364  23.680  0.00  0.00    -0.223 NA
ATOM      5  C   UNL     1       7.997   0.720  23.259  0.00  0.00    +0.213 A 
ATOM      6  N   UNL     1       6.710   0.544  22.798  0.00  0.00    -0.327 N 
ATOM      7  H   UNL     1       6.581  -0.417  22.514  0.00  0.00    +0.145 HD
ATOM      8  H   UNL     1       6.485   1.262  22.125  0.00  0.00    +0.145 HD
ATOM      9  N   UNL     1       8.507   1.950  23.211  0.00  0.00    -0.213 NA
ENDROOT
BRANCH   1  16
ATOM     10  N   UNL     1      13.110   5.532  23.233  0.00  0.00    -0.338 N 
ATOM     11  H   UNL     1      13.296   6.446  23.625  0.00  0.00    +0.144 HD
ATOM     12  H   UNL     1      13.892   4.889  23.281  0.00  0.00    +0.144 HD
ATOM     13  C   UNL     1      11.897   4.995  23.440  0.00  0.00    +0.156 A 
ATOM     14  S   UNL     1      10.548   5.978  23.840  0.00  0.00    -0.060 S 
ATOM     15  C   UNL     1       9.565   4.579  23.922  0.00  0.00    +0.078 A 
ATOM     16  C   UNL     1      10.322   3.455  23.649  0.00  0.00    +0.099 A 
ATOM     17  N   UNL     1      11.662   3.708  23.376  0.00  0.00    -0.224 NA
ENDBRANCH   1  16
TORSDOF 1
ENDMDL
