MODEL 1
REMARK VINA RESULT:      -7.3      0.000      0.000
REMARK  Name = 
REMARK  8 active torsions:
REMARK  status: ('A' for Active; 'I' for Inactive)
REMARK    1  A    between atoms: C_1  and  N_2
REMARK    2  A    between atoms: N_2  and  C_3
REMARK    3  A    between atoms: C_4  and  C_6
REMARK    4  A    between atoms: C_10  and  N_12
REMARK    5  A    between atoms: C_13  and  C_15
REMARK    6  A    between atoms: C_25  and  N_28
REMARK    7  A    between atoms: C_29  and  C_31
REMARK    8  A    between atoms: N_36  and  C_37
REMARK                            x       y       z     vdW  Elec       q    Type
REMARK                         _______ _______ _______ _____ _____    ______ ____
ROOT
ATOM      1  C   UNL     1       9.176   2.109  22.873  0.00  0.00    +0.077 C 
ATOM      2  C   UNL     1       8.133   1.717  23.940  0.00  0.00    +0.037 C 
ATOM      3  C   UNL     1       8.704   0.912  25.124  0.00  0.00    +0.094 C 
ATOM      4  C   UNL     1       9.540  -0.306  24.636  0.00  0.00    +0.094 C 
ATOM      5  C   UNL     1      10.602   0.135  23.619  0.00  0.00    +0.025 C 
ATOM      6  C   UNL     1      10.006   0.898  22.434  0.00  0.00    +0.014 C 
ENDROOT
BRANCH   1   9
ATOM      7  C   UNL     1      10.550   5.567  23.821  0.00  0.00    +0.131 C 
ATOM      8  N   UNL     1       9.614   4.530  23.412  0.00  0.00    -0.307 N 
ATOM      9  C   UNL     1      10.107   3.231  23.362  0.00  0.00    +0.218 C 
ATOM     10  O   UNL     1      11.287   2.992  23.626  0.00  0.00    -0.275 OA
ATOM     11  C   UNL     1       8.200   4.864  23.378  0.00  0.00    +0.131 C 
ENDBRANCH   1   9
BRANCH   3  12
ATOM     12  N   UNL     1       7.636   0.517  26.047  0.00  0.00    -0.305 N 
ATOM     13  H   UNL     1       7.263  -0.429  26.059  0.00  0.00    +0.149 HD
ATOM     14  C   UNL     1       6.937   1.459  26.797  0.00  0.00    +0.269 C 
ATOM     15  O   UNL     1       7.258   2.646  26.790  0.00  0.00    -0.268 OA
BRANCH  14  16
ATOM     16  C   UNL     1       5.817   0.909  27.561  0.00  0.00    +0.163 A 
ATOM     17  S   UNL     1       5.692   1.187  29.258  0.00  0.00    -0.066 S 
ATOM     18  C   UNL     1       4.237   0.310  29.274  0.00  0.00    +0.027 A 
ATOM     19  C   UNL     1       3.381   0.100  30.483  0.00  0.00    +0.128 C 
ATOM     20  N   UNL     1       2.341  -0.938  30.262  0.00  0.00    -0.300 NA
ATOM     21  C   UNL     1       1.722  -0.800  28.921  0.00  0.00    +0.090 C 
ATOM     22  C   UNL     1       2.700  -0.918  27.727  0.00  0.00    +0.071 C 
ATOM     23  C   UNL     1       2.874  -2.284  30.478  0.00  0.00    +0.105 C 
ATOM     24  C   UNL     1       3.933  -0.130  28.003  0.00  0.00    +0.055 A 
ATOM     25  N   UNL     1       4.845   0.193  27.017  0.00  0.00    -0.239 NA
ENDBRANCH  14  16
ENDBRANCH   3  12
BRANCH   4  26
ATOM     26  N   UNL     1       8.678  -1.345  24.080  0.00  0.00    -0.303 N 
ATOM     27  H   UNL     1       7.677  -1.180  24.007  0.00  0.00    +0.149 HD
ATOM     28  C   UNL     1       9.067  -2.652  23.918  0.00  0.00    +0.300 C 
ATOM     29  O   UNL     1      10.177  -3.128  24.108  0.00  0.00    -0.265 OA
BRANCH  28  30
ATOM     30  C   UNL     1       7.923  -3.562  23.438  0.00  0.00    +0.304 C 
ATOM     31  N   UNL     1       7.314  -4.219  24.482  0.00  0.00    -0.263 N 
ATOM     32  H   UNL     1       7.681  -4.014  25.407  0.00  0.00    +0.157 HD
ATOM     33  C   UNL     1       6.232  -5.084  24.345  0.00  0.00    +0.125 A 
ATOM     34  C   UNL     1       5.676  -5.633  25.498  0.00  0.00    +0.045 A 
ATOM     35  C   UNL     1       4.567  -6.478  25.378  0.00  0.00    +0.025 A 
ATOM     36  C   UNL     1       4.058  -6.753  24.115  0.00  0.00    +0.059 A 
ATOM     37 CL   UNL     1       2.694  -7.774  23.918  0.00  0.00    -0.082 Cl
ATOM     38  C   UNL     1       4.681  -6.180  23.022  0.00  0.00    +0.132 A 
ATOM     39  N   UNL     1       5.747  -5.357  23.119  0.00  0.00    -0.239 NA
ATOM     40  O   UNL     1       7.689  -3.592  22.238  0.00  0.00    -0.265 OA
ENDBRANCH  28  30
ENDBRANCH   4  26
TORSDOF 5
ENDMDL
MODEL 2
REMARK VINA RESULT:      -7.2      3.389      6.873
REMARK  Name = 
REMARK  8 active torsions:
REMARK  status: ('A' for Active; 'I' for Inactive)
REMARK    1  A    between atoms: C_1  and  N_2
REMARK    2  A    between atoms: N_2  and  C_3
REMARK    3  A    between atoms: C_4  and  C_6
REMARK    4  A    between atoms: C_10  and  N_12
REMARK    5  A    between atoms: C_13  and  C_15
REMARK    6  A    between atoms: C_25  and  N_28
REMARK    7  A    between atoms: C_29  and  C_31
REMARK    8  A    between atoms: N_36  and  C_37
REMARK                            x       y       z     vdW  Elec       q    Type
REMARK                         _______ _______ _______ _____ _____    ______ ____
ROOT
ATOM      1  C   UNL     1       9.402   4.180  24.561  0.00  0.00    +0.077 C 
ATOM      2  C   UNL     1       8.942   2.714  24.427  0.00  0.00    +0.037 C 
ATOM      3  C   UNL     1       8.347   2.355  23.051  0.00  0.00    +0.094 C 
ATOM      4  C   UNL     1       7.243   3.364  22.626  0.00  0.00    +0.094 C 
ATOM      5  C   UNL     1       7.758   4.807  22.719  0.00  0.00    +0.025 C 
ATOM      6  C   UNL     1       8.307   5.151  24.105  0.00  0.00    +0.014 C 
ENDROOT
BRANCH   1   9
ATOM      7  C   UNL     1      12.502   5.923  23.115  0.00  0.00    +0.131 C 
ATOM      8  N   UNL     1      11.314   5.689  23.922  0.00  0.00    -0.307 N 
ATOM      9  C   UNL     1      10.698   4.451  23.780  0.00  0.00    +0.218 C 
ATOM     10  O   UNL     1      11.134   3.616  22.985  0.00  0.00    -0.275 OA
ATOM     11  C   UNL     1      11.034   6.616  25.006  0.00  0.00    +0.131 C 
ENDBRANCH   1   9
BRANCH   3  12
ATOM     12  N   UNL     1       7.867   0.970  23.037  0.00  0.00    -0.305 N 
ATOM     13  H   UNL     1       6.988   0.705  23.473  0.00  0.00    +0.149 HD
ATOM     14  C   UNL     1       8.682  -0.078  22.620  0.00  0.00    +0.269 C 
ATOM     15  O   UNL     1       9.800   0.129  22.151  0.00  0.00    -0.268 OA
BRANCH  14  16
ATOM     16  C   UNL     1       8.094  -1.406  22.798  0.00  0.00    +0.163 A 
ATOM     17  S   UNL     1       9.031  -2.702  23.440  0.00  0.00    -0.066 S 
ATOM     18  C   UNL     1       7.671  -3.713  23.331  0.00  0.00    +0.027 A 
ATOM     19  C   UNL     1       7.631  -5.142  23.776  0.00  0.00    +0.128 C 
ATOM     20  N   UNL     1       6.417  -5.849  23.293  0.00  0.00    -0.300 NA
ATOM     21  C   UNL     1       5.213  -4.991  23.418  0.00  0.00    +0.090 C 
ATOM     22  C   UNL     1       5.267  -3.656  22.635  0.00  0.00    +0.071 C 
ATOM     23  C   UNL     1       6.593  -6.340  21.926  0.00  0.00    +0.105 C 
ATOM     24  C   UNL     1       6.596  -3.013  22.826  0.00  0.00    +0.055 A 
ATOM     25  N   UNL     1       6.836  -1.693  22.499  0.00  0.00    -0.239 NA
ENDBRANCH  14  16
ENDBRANCH   3  12
BRANCH   4  26
ATOM     26  N   UNL     1       6.033   3.185  23.423  0.00  0.00    -0.303 N 
ATOM     27  H   UNL     1       6.093   2.724  24.329  0.00  0.00    +0.149 HD
ATOM     28  C   UNL     1       4.761   3.323  22.922  0.00  0.00    +0.300 C 
ATOM     29  O   UNL     1       4.438   3.696  21.804  0.00  0.00    -0.265 OA
BRANCH  28  30
ATOM     30  C   UNL     1       3.672   2.947  23.941  0.00  0.00    +0.304 C 
ATOM     31  N   UNL     1       4.204   2.617  25.166  0.00  0.00    -0.263 N 
ATOM     32  H   UNL     1       5.215   2.674  25.239  0.00  0.00    +0.157 HD
ATOM     33  C   UNL     1       3.450   2.263  26.283  0.00  0.00    +0.125 A 
ATOM     34  C   UNL     1       4.120   2.012  27.477  0.00  0.00    +0.045 A 
ATOM     35  C   UNL     1       3.374   1.689  28.616  0.00  0.00    +0.025 A 
ATOM     36  C   UNL     1       1.990   1.618  28.522  0.00  0.00    +0.059 A 
ATOM     37 CL   UNL     1       1.032   1.236  29.892  0.00  0.00    -0.082 Cl
ATOM     38  C   UNL     1       1.407   1.865  27.293  0.00  0.00    +0.132 A 
ATOM     39  N   UNL     1       2.110   2.185  26.186  0.00  0.00    -0.239 NA
ATOM     40  O   UNL     1       2.509   2.989  23.567  0.00  0.00    -0.265 OA
ENDBRANCH  28  30
ENDBRANCH   4  26
TORSDOF 5
ENDMDL
MODEL 3
REMARK VINA RESULT:      -6.9      3.936      7.940
REMARK  Name = 
REMARK  8 active torsions:
REMARK  status: ('A' for Active; 'I' for Inactive)
REMARK    1  A    between atoms: C_1  and  N_2
REMARK    2  A    between atoms: N_2  and  C_3
REMARK    3  A    between atoms: C_4  and  C_6
REMARK    4  A    between atoms: C_10  and  N_12
REMARK    5  A    between atoms: C_13  and  C_15
REMARK    6  A    between atoms: C_25  and  N_28
REMARK    7  A    between atoms: C_29  and  C_31
REMARK    8  A    between atoms: N_36  and  C_37
REMARK                            x       y       z     vdW  Elec       q    Type
REMARK                         _______ _______ _______ _____ _____    ______ ____
ROOT
ATOM      1  C   UNL     1       6.763  -4.874  27.336  0.00  0.00    +0.077 C 
ATOM      2  C   UNL     1       6.137  -3.481  27.115  0.00  0.00    +0.037 C 
ATOM      3  C   UNL     1       5.469  -3.293  25.738  0.00  0.00    +0.094 C 
ATOM      4  C   UNL     1       6.424  -3.704  24.581  0.00  0.00    +0.094 C 
ATOM      5  C   UNL     1       6.981  -5.117  24.810  0.00  0.00    +0.025 C 
ATOM      6  C   UNL     1       7.672  -5.267  26.167  0.00  0.00    +0.014 C 
ENDROOT
BRANCH   1   9
ATOM      7  C   UNL     1       4.141  -7.142  28.985  0.00  0.00    +0.131 C 
ATOM      8  N   UNL     1       5.099  -6.061  28.806  0.00  0.00    -0.307 N 
ATOM      9  C   UNL     1       5.695  -5.958  27.555  0.00  0.00    +0.218 C 
ATOM     10  O   UNL     1       5.435  -6.766  26.662  0.00  0.00    -0.275 OA
ATOM     11  C   UNL     1       5.143  -5.017  29.816  0.00  0.00    +0.131 C 
ENDBRANCH   1   9
BRANCH   3  12
ATOM     12  N   UNL     1       4.970  -1.923  25.585  0.00  0.00    -0.305 N 
ATOM     13  H   UNL     1       4.130  -1.718  25.051  0.00  0.00    +0.149 HD
ATOM     14  C   UNL     1       5.729  -0.825  25.977  0.00  0.00    +0.269 C 
ATOM     15  O   UNL     1       6.804  -0.966  26.559  0.00  0.00    -0.268 OA
BRANCH  14  16
ATOM     16  C   UNL     1       5.141   0.469  25.630  0.00  0.00    +0.163 A 
ATOM     17  S   UNL     1       4.089   1.278  26.730  0.00  0.00    -0.066 S 
ATOM     18  C   UNL     1       3.949   2.558  25.622  0.00  0.00    +0.027 A 
ATOM     19  C   UNL     1       3.164   3.810  25.859  0.00  0.00    +0.128 C 
ATOM     20  N   UNL     1       2.984   4.606  24.617  0.00  0.00    -0.300 NA
ATOM     21  C   UNL     1       4.236   4.646  23.821  0.00  0.00    +0.090 C 
ATOM     22  C   UNL     1       4.775   3.267  23.368  0.00  0.00    +0.071 C 
ATOM     23  C   UNL     1       1.854   4.117  23.827  0.00  0.00    +0.105 C 
ATOM     24  C   UNL     1       4.706   2.302  24.499  0.00  0.00    +0.055 A 
ATOM     25  N   UNL     1       5.379   1.095  24.487  0.00  0.00    -0.239 NA
ENDBRANCH  14  16
ENDBRANCH   3  12
BRANCH   4  26
ATOM     26  N   UNL     1       7.501  -2.734  24.418  0.00  0.00    -0.303 N 
ATOM     27  H   UNL     1       7.815  -2.194  25.223  0.00  0.00    +0.149 HD
ATOM     28  C   UNL     1       7.933  -2.268  23.200  0.00  0.00    +0.300 C 
ATOM     29  O   UNL     1       7.575  -2.640  22.092  0.00  0.00    -0.265 OA
BRANCH  28  30
ATOM     30  C   UNL     1       8.986  -1.154  23.324  0.00  0.00    +0.304 C 
ATOM     31  N   UNL     1       8.429   0.098  23.208  0.00  0.00    -0.263 N 
ATOM     32  H   UNL     1       7.423   0.123  23.072  0.00  0.00    +0.157 HD
ATOM     33  C   UNL     1       9.142   1.290  23.307  0.00  0.00    +0.125 A 
ATOM     34  C   UNL     1       8.436   2.488  23.230  0.00  0.00    +0.045 A 
ATOM     35  C   UNL     1       9.134   3.694  23.362  0.00  0.00    +0.025 A 
ATOM     36  C   UNL     1      10.509   3.663  23.557  0.00  0.00    +0.059 A 
ATOM     37 CL   UNL     1      11.407   5.114  23.735  0.00  0.00    -0.082 Cl
ATOM     38  C   UNL     1      11.133   2.431  23.604  0.00  0.00    +0.132 A 
ATOM     39  N   UNL     1      10.475   1.257  23.485  0.00  0.00    -0.239 NA
ATOM     40  O   UNL     1      10.147  -1.491  23.509  0.00  0.00    -0.265 OA
ENDBRANCH  28  30
ENDBRANCH   4  26
TORSDOF 5
ENDMDL
MODEL 4
REMARK VINA RESULT:      -6.8      3.916      7.926
REMARK  Name = 
REMARK  8 active torsions:
REMARK  status: ('A' for Active; 'I' for Inactive)
REMARK    1  A    between atoms: C_1  and  N_2
REMARK    2  A    between atoms: N_2  and  C_3
REMARK    3  A    between atoms: C_4  and  C_6
REMARK    4  A    between atoms: C_10  and  N_12
REMARK    5  A    between atoms: C_13  and  C_15
REMARK    6  A    between atoms: C_25  and  N_28
REMARK    7  A    between atoms: C_29  and  C_31
REMARK    8  A    between atoms: N_36  and  C_37
REMARK                            x       y       z     vdW  Elec       q    Type
REMARK                         _______ _______ _______ _____ _____    ______ ____
ROOT
ATOM      1  C   UNL     1       7.458  -4.108  24.880  0.00  0.00    +0.077 C 
ATOM      2  C   UNL     1       6.963  -2.753  25.426  0.00  0.00    +0.037 C 
ATOM      3  C   UNL     1       5.964  -2.021  24.507  0.00  0.00    +0.094 C 
ATOM      4  C   UNL     1       6.502  -1.913  23.052  0.00  0.00    +0.094 C 
ATOM      5  C   UNL     1       6.931  -3.290  22.526  0.00  0.00    +0.025 C 
ATOM      6  C   UNL     1       7.952  -3.979  23.435  0.00  0.00    +0.014 C 
ENDROOT
BRANCH   1   9
ATOM      7  C   UNL     1       5.073  -6.792  26.238  0.00  0.00    +0.131 C 
ATOM      8  N   UNL     1       6.058  -5.722  26.213  0.00  0.00    -0.307 N 
ATOM      9  C   UNL     1       6.374  -5.195  24.966  0.00  0.00    +0.218 C 
ATOM     10  O   UNL     1       5.857  -5.643  23.941  0.00  0.00    -0.275 OA
ATOM     11  C   UNL     1       6.411  -5.091  27.474  0.00  0.00    +0.131 C 
ENDBRANCH   1   9
BRANCH   3  12
ATOM     12  N   UNL     1       5.607  -0.713  25.065  0.00  0.00    -0.305 N 
ATOM     13  H   UNL     1       6.177   0.111  24.898  0.00  0.00    +0.149 HD
ATOM     14  C   UNL     1       4.600  -0.579  26.016  0.00  0.00    +0.269 C 
ATOM     15  O   UNL     1       3.904  -1.537  26.349  0.00  0.00    -0.268 OA
BRANCH  14  16
ATOM     16  C   UNL     1       4.466   0.771  26.564  0.00  0.00    +0.163 A 
ATOM     17  S   UNL     1       5.386   1.255  27.939  0.00  0.00    -0.066 S 
ATOM     18  C   UNL     1       4.684   2.799  27.840  0.00  0.00    +0.027 A 
ATOM     19  C   UNL     1       5.016   3.947  28.742  0.00  0.00    +0.128 C 
ATOM     20  N   UNL     1       4.047   5.065  28.609  0.00  0.00    -0.300 NA
ATOM     21  C   UNL     1       3.698   5.306  27.187  0.00  0.00    +0.090 C 
ATOM     22  C   UNL     1       3.062   4.102  26.450  0.00  0.00    +0.071 C 
ATOM     23  C   UNL     1       2.856   4.841  29.429  0.00  0.00    +0.105 C 
ATOM     24  C   UNL     1       3.809   2.857  26.776  0.00  0.00    +0.055 A 
ATOM     25  N   UNL     1       3.664   1.691  26.050  0.00  0.00    -0.239 NA
ENDBRANCH  14  16
ENDBRANCH   3  12
BRANCH   4  26
ATOM     26  N   UNL     1       7.598  -0.953  22.967  0.00  0.00    -0.303 N 
ATOM     27  H   UNL     1       8.523  -1.216  23.301  0.00  0.00    +0.149 HD
ATOM     28  C   UNL     1       7.421   0.391  22.744  0.00  0.00    +0.300 C 
ATOM     29  O   UNL     1       6.374   0.972  22.493  0.00  0.00    -0.265 OA
BRANCH  28  30
ATOM     30  C   UNL     1       8.730   1.192  22.836  0.00  0.00    +0.304 C 
ATOM     31  N   UNL     1       8.512   2.495  23.221  0.00  0.00    -0.263 N 
ATOM     32  H   UNL     1       7.545   2.747  23.399  0.00  0.00    +0.157 HD
ATOM     33  C   UNL     1       9.518   3.438  23.412  0.00  0.00    +0.125 A 
ATOM     34  C   UNL     1       9.156   4.706  23.862  0.00  0.00    +0.045 A 
ATOM     35  C   UNL     1      10.159   5.654  24.091  0.00  0.00    +0.025 A 
ATOM     36  C   UNL     1      11.484   5.310  23.855  0.00  0.00    +0.059 A 
ATOM     37 CL   UNL     1      12.750   6.434  24.131  0.00  0.00    -0.082 Cl
ATOM     38  C   UNL     1      11.754   4.035  23.393  0.00  0.00    +0.132 A 
ATOM     39  N   UNL     1      10.800   3.105  23.172  0.00  0.00    -0.239 NA
ATOM     40  O   UNL     1       9.771   0.606  22.576  0.00  0.00    -0.265 OA
ENDBRANCH  28  30
ENDBRANCH   4  26
TORSDOF 5
ENDMDL
MODEL 5
REMARK VINA RESULT:      -6.7      3.804      9.536
REMARK  Name = 
REMARK  8 active torsions:
REMARK  status: ('A' for Active; 'I' for Inactive)
REMARK    1  A    between atoms: C_1  and  N_2
REMARK    2  A    between atoms: N_2  and  C_3
REMARK    3  A    between atoms: C_4  and  C_6
REMARK    4  A    between atoms: C_10  and  N_12
REMARK    5  A    between atoms: C_13  and  C_15
REMARK    6  A    between atoms: C_25  and  N_28
REMARK    7  A    between atoms: C_29  and  C_31
REMARK    8  A    between atoms: N_36  and  C_37
REMARK                            x       y       z     vdW  Elec       q    Type
REMARK                         _______ _______ _______ _____ _____    ______ ____
ROOT
ATOM      1  C   UNL     1       1.747  -6.139  24.796  0.00  0.00    +0.077 C 
ATOM      2  C   UNL     1       2.829  -5.071  24.534  0.00  0.00    +0.037 C 
ATOM      3  C   UNL     1       4.245  -5.472  24.996  0.00  0.00    +0.094 C 
ATOM      4  C   UNL     1       4.245  -5.967  26.470  0.00  0.00    +0.094 C 
ATOM      5  C   UNL     1       3.195  -7.068  26.675  0.00  0.00    +0.025 C 
ATOM      6  C   UNL     1       1.791  -6.633  26.246  0.00  0.00    +0.014 C 
ENDROOT
BRANCH   1   9
ATOM      7  C   UNL     1       1.197  -8.517  21.833  0.00  0.00    +0.131 C 
ATOM      8  N   UNL     1       1.094  -7.338  22.680  0.00  0.00    -0.307 N 
ATOM      9  C   UNL     1       1.869  -7.332  23.834  0.00  0.00    +0.218 C 
ATOM     10  O   UNL     1       2.581  -8.296  24.124  0.00  0.00    -0.275 OA
ATOM     11  C   UNL     1       0.443  -6.160  22.133  0.00  0.00    +0.131 C 
ENDBRANCH   1   9
BRANCH   3  12
ATOM     12  N   UNL     1       5.192  -4.373  24.780  0.00  0.00    -0.305 N 
ATOM     13  H   UNL     1       4.988  -3.425  25.085  0.00  0.00    +0.149 HD
ATOM     14  C   UNL     1       6.310  -4.526  23.966  0.00  0.00    +0.269 C 
ATOM     15  O   UNL     1       6.601  -5.618  23.479  0.00  0.00    -0.268 OA
BRANCH  14  16
ATOM     16  C   UNL     1       7.072  -3.296  23.752  0.00  0.00    +0.163 A 
ATOM     17  S   UNL     1       6.345  -1.756  24.018  0.00  0.00    -0.066 S 
ATOM     18  C   UNL     1       7.816  -1.013  23.604  0.00  0.00    +0.027 A 
ATOM     19  C   UNL     1       8.062   0.463  23.627  0.00  0.00    +0.128 C 
ATOM     20  N   UNL     1       9.328   0.833  22.942  0.00  0.00    -0.300 NA
ATOM     21  C   UNL     1      10.418  -0.114  23.283  0.00  0.00    +0.090 C 
ATOM     22  C   UNL     1      10.150  -1.592  22.910  0.00  0.00    +0.071 C 
ATOM     23  C   UNL     1       9.140   0.946  21.496  0.00  0.00    +0.105 C 
ATOM     24  C   UNL     1       8.763  -1.968  23.298  0.00  0.00    +0.055 A 
ATOM     25  N   UNL     1       8.338  -3.281  23.362  0.00  0.00    -0.239 NA
ENDBRANCH  14  16
ENDBRANCH   3  12
BRANCH   4  26
ATOM     26  N   UNL     1       4.035  -4.859  27.397  0.00  0.00    -0.303 N 
ATOM     27  H   UNL     1       3.322  -4.162  27.191  0.00  0.00    +0.149 HD
ATOM     28  C   UNL     1       4.925  -4.510  28.383  0.00  0.00    +0.300 C 
ATOM     29  O   UNL     1       5.949  -5.096  28.704  0.00  0.00    -0.265 OA
BRANCH  28  30
ATOM     30  C   UNL     1       4.521  -3.225  29.126  0.00  0.00    +0.304 C 
ATOM     31  N   UNL     1       4.534  -2.125  28.300  0.00  0.00    -0.263 N 
ATOM     32  H   UNL     1       4.790  -2.302  27.333  0.00  0.00    +0.157 HD
ATOM     33  C   UNL     1       4.186  -0.837  28.697  0.00  0.00    +0.125 A 
ATOM     34  C   UNL     1       4.186   0.172  27.737  0.00  0.00    +0.045 A 
ATOM     35  C   UNL     1       3.806   1.464  28.114  0.00  0.00    +0.025 A 
ATOM     36  C   UNL     1       3.448   1.708  29.434  0.00  0.00    +0.059 A 
ATOM     37 CL   UNL     1       2.963   3.273  29.941  0.00  0.00    -0.082 Cl
ATOM     38  C   UNL     1       3.491   0.653  30.326  0.00  0.00    +0.132 A 
ATOM     39  N   UNL     1       3.850  -0.602  29.979  0.00  0.00    -0.239 NA
ATOM     40  O   UNL     1       4.240  -3.322  30.312  0.00  0.00    -0.265 OA
ENDBRANCH  28  30
ENDBRANCH   4  26
TORSDOF 5
ENDMDL
MODEL 6
REMARK VINA RESULT:      -6.7      3.993      8.782
REMARK  Name = 
REMARK  8 active torsions:
REMARK  status: ('A' for Active; 'I' for Inactive)
REMARK    1  A    between atoms: C_1  and  N_2
REMARK    2  A    between atoms: N_2  and  C_3
REMARK    3  A    between atoms: C_4  and  C_6
REMARK    4  A    between atoms: C_10  and  N_12
REMARK    5  A    between atoms: C_13  and  C_15
REMARK    6  A    between atoms: C_25  and  N_28
REMARK    7  A    between atoms: C_29  and  C_31
REMARK    8  A    between atoms: N_36  and  C_37
REMARK                            x       y       z     vdW  Elec       q    Type
REMARK                         _______ _______ _______ _____ _____    ______ ____
ROOT
ATOM      1  C   UNL     1       5.688  -3.083  23.281  0.00  0.00    +0.077 C 
ATOM      2  C   UNL     1       6.426  -1.733  23.173  0.00  0.00    +0.037 C 
ATOM      3  C   UNL     1       7.115  -1.277  24.474  0.00  0.00    +0.094 C 
ATOM      4  C   UNL     1       6.138  -1.322  25.683  0.00  0.00    +0.094 C 
ATOM      5  C   UNL     1       5.467  -2.699  25.790  0.00  0.00    +0.025 C 
ATOM      6  C   UNL     1       4.757  -3.112  24.498  0.00  0.00    +0.014 C 
ENDROOT
BRANCH   1   9
ATOM      7  C   UNL     1       7.565  -6.319  22.418  0.00  0.00    +0.131 C 
ATOM      8  N   UNL     1       6.672  -5.177  22.288  0.00  0.00    -0.307 N 
ATOM      9  C   UNL     1       6.663  -4.270  23.341  0.00  0.00    +0.218 C 
ATOM     10  O   UNL     1       7.362  -4.454  24.339  0.00  0.00    -0.275 OA
ATOM     11  C   UNL     1       6.093  -4.911  20.981  0.00  0.00    +0.131 C 
ENDBRANCH   1   9
BRANCH   3  12
ATOM     12  N   UNL     1       7.725   0.046  24.303  0.00  0.00    -0.305 N 
ATOM     13  H   UNL     1       7.408   0.690  23.583  0.00  0.00    +0.149 HD
ATOM     14  C   UNL     1       8.894   0.400  24.969  0.00  0.00    +0.269 C 
ATOM     15  O   UNL     1       9.405  -0.346  25.803  0.00  0.00    -0.268 OA
BRANCH  14  16
ATOM     16  C   UNL     1       9.438   1.702  24.581  0.00  0.00    +0.163 A 
ATOM     17  S   UNL     1      10.962   1.814  23.786  0.00  0.00    -0.066 S 
ATOM     18  C   UNL     1      10.773   3.501  23.705  0.00  0.00    +0.027 A 
ATOM     19  C   UNL     1      11.741   4.438  23.055  0.00  0.00    +0.128 C 
ATOM     20  N   UNL     1      11.463   5.858  23.393  0.00  0.00    -0.300 NA
ATOM     21  C   UNL     1      10.007   6.142  23.357  0.00  0.00    +0.090 C 
ATOM     22  C   UNL     1       9.146   5.298  24.328  0.00  0.00    +0.071 C 
ATOM     23  C   UNL     1      12.057   6.228  24.678  0.00  0.00    +0.105 C 
ATOM     24  C   UNL     1       9.573   3.873  24.274  0.00  0.00    +0.055 A 
ATOM     25  N   UNL     1       8.809   2.848  24.797  0.00  0.00    -0.239 NA
ENDBRANCH  14  16
ENDBRANCH   3  12
BRANCH   4  26
ATOM     26  N   UNL     1       5.144  -0.257  25.595  0.00  0.00    -0.303 N 
ATOM     27  H   UNL     1       4.484  -0.250  24.820  0.00  0.00    +0.149 HD
ATOM     28  C   UNL     1       5.211   0.912  26.314  0.00  0.00    +0.300 C 
ATOM     29  O   UNL     1       6.020   1.207  27.181  0.00  0.00    -0.265 OA
BRANCH  28  30
ATOM     30  C   UNL     1       4.110   1.915  25.930  0.00  0.00    +0.304 C 
ATOM     31  N   UNL     1       4.282   2.409  24.659  0.00  0.00    -0.263 N 
ATOM     32  H   UNL     1       5.084   2.049  24.150  0.00  0.00    +0.157 HD
ATOM     33  C   UNL     1       3.421   3.312  24.040  0.00  0.00    +0.125 A 
ATOM     34  C   UNL     1       3.687   3.681  22.724  0.00  0.00    +0.045 A 
ATOM     35  C   UNL     1       2.812   4.562  22.079  0.00  0.00    +0.025 A 
ATOM     36  C   UNL     1       1.710   5.050  22.769  0.00  0.00    +0.059 A 
ATOM     37 CL   UNL     1       0.602   6.122  22.018  0.00  0.00    -0.082 Cl
ATOM     38  C   UNL     1       1.530   4.645  24.079  0.00  0.00    +0.132 A 
ATOM     39  N   UNL     1       2.360   3.791  24.715  0.00  0.00    -0.239 NA
ATOM     40  O   UNL     1       3.240   2.144  26.759  0.00  0.00    -0.265 OA
ENDBRANCH  28  30
ENDBRANCH   4  26
TORSDOF 5
ENDMDL
MODEL 7
REMARK VINA RESULT:      -6.6      3.479      8.607
REMARK  Name = 
REMARK  8 active torsions:
REMARK  status: ('A' for Active; 'I' for Inactive)
REMARK    1  A    between atoms: C_1  and  N_2
REMARK    2  A    between atoms: N_2  and  C_3
REMARK    3  A    between atoms: C_4  and  C_6
REMARK    4  A    between atoms: C_10  and  N_12
REMARK    5  A    between atoms: C_13  and  C_15
REMARK    6  A    between atoms: C_25  and  N_28
REMARK    7  A    between atoms: C_29  and  C_31
REMARK    8  A    between atoms: N_36  and  C_37
REMARK                            x       y       z     vdW  Elec       q    Type
REMARK                         _______ _______ _______ _____ _____    ______ ____
ROOT
ATOM      1  C   UNL     1       5.617  -3.208  23.705  0.00  0.00    +0.077 C 
ATOM      2  C   UNL     1       6.156  -1.764  23.653  0.00  0.00    +0.037 C 
ATOM      3  C   UNL     1       7.433  -1.530  24.485  0.00  0.00    +0.094 C 
ATOM      4  C   UNL     1       7.267  -2.048  25.942  0.00  0.00    +0.094 C 
ATOM      5  C   UNL     1       6.784  -3.505  25.950  0.00  0.00    +0.025 C 
ATOM      6  C   UNL     1       5.494  -3.705  25.150  0.00  0.00    +0.014 C 
ENDROOT
BRANCH   1   9
ATOM      7  C   UNL     1       6.856  -6.338  21.860  0.00  0.00    +0.131 C 
ATOM      8  N   UNL     1       5.972  -5.431  22.576  0.00  0.00    -0.307 N 
ATOM      9  C   UNL     1       6.488  -4.179  22.892  0.00  0.00    +0.218 C 
ATOM     10  O   UNL     1       7.647  -3.880  22.597  0.00  0.00    -0.275 OA
ATOM     11  C   UNL     1       4.561  -5.769  22.645  0.00  0.00    +0.131 C 
ENDBRANCH   1   9
BRANCH   3  12
ATOM     12  N   UNL     1       7.830  -0.119  24.441  0.00  0.00    -0.305 N 
ATOM     13  H   UNL     1       7.148   0.624  24.322  0.00  0.00    +0.149 HD
ATOM     14  C   UNL     1       9.167   0.258  24.345  0.00  0.00    +0.269 C 
ATOM     15  O   UNL     1      10.071  -0.575  24.396  0.00  0.00    -0.268 OA
BRANCH  14  16
ATOM     16  C   UNL     1       9.377   1.695  24.175  0.00  0.00    +0.163 A 
ATOM     17  S   UNL     1      10.926   2.311  23.737  0.00  0.00    -0.066 S 
ATOM     18  C   UNL     1      10.279   3.882  23.734  0.00  0.00    +0.027 A 
ATOM     19  C   UNL     1      11.042   5.118  23.375  0.00  0.00    +0.128 C 
ATOM     20  N   UNL     1      10.310   6.358  23.743  0.00  0.00    -0.300 NA
ATOM     21  C   UNL     1       8.868   6.245  23.413  0.00  0.00    +0.090 C 
ATOM     22  C   UNL     1       8.118   5.086  24.114  0.00  0.00    +0.071 C 
ATOM     23  C   UNL     1      10.520   6.706  25.148  0.00  0.00    +0.105 C 
ATOM     24  C   UNL     1       8.939   3.845  24.055  0.00  0.00    +0.055 A 
ATOM     25  N   UNL     1       8.417   2.596  24.328  0.00  0.00    -0.239 NA
ENDBRANCH  14  16
ENDBRANCH   3  12
BRANCH   4  26
ATOM     26  N   UNL     1       6.366  -1.190  26.706  0.00  0.00    -0.303 N 
ATOM     27  H   UNL     1       5.366  -1.224  26.521  0.00  0.00    +0.149 HD
ATOM     28  C   UNL     1       6.785  -0.117  27.454  0.00  0.00    +0.300 C 
ATOM     29  O   UNL     1       7.935   0.229  27.680  0.00  0.00    -0.265 OA
BRANCH  28  30
ATOM     30  C   UNL     1       5.618   0.692  28.045  0.00  0.00    +0.304 C 
ATOM     31  N   UNL     1       5.336   1.812  27.298  0.00  0.00    -0.263 N 
ATOM     32  H   UNL     1       5.910   1.947  26.471  0.00  0.00    +0.157 HD
ATOM     33  C   UNL     1       4.313   2.712  27.582  0.00  0.00    +0.125 A 
ATOM     34  C   UNL     1       4.102   3.771  26.702  0.00  0.00    +0.045 A 
ATOM     35  C   UNL     1       3.056   4.664  26.957  0.00  0.00    +0.025 A 
ATOM     36  C   UNL     1       2.264   4.477  28.082  0.00  0.00    +0.059 A 
ATOM     37 CL   UNL     1       0.963   5.539  28.431  0.00  0.00    -0.082 Cl
ATOM     38  C   UNL     1       2.553   3.411  28.912  0.00  0.00    +0.132 A 
ATOM     39  N   UNL     1       3.554   2.535  28.679  0.00  0.00    -0.239 NA
ATOM     40  O   UNL     1       5.093   0.266  29.064  0.00  0.00    -0.265 OA
ENDBRANCH  28  30
ENDBRANCH   4  26
TORSDOF 5
ENDMDL
MODEL 8
REMARK VINA RESULT:      -6.4      3.850      7.752
REMARK  Name = 
REMARK  8 active torsions:
REMARK  status: ('A' for Active; 'I' for Inactive)
REMARK    1  A    between atoms: C_1  and  N_2
REMARK    2  A    between atoms: N_2  and  C_3
REMARK    3  A    between atoms: C_4  and  C_6
REMARK    4  A    between atoms: C_10  and  N_12
REMARK    5  A    between atoms: C_13  and  C_15
REMARK    6  A    between atoms: C_25  and  N_28
REMARK    7  A    between atoms: C_29  and  C_31
REMARK    8  A    between atoms: N_36  and  C_37
REMARK                            x       y       z     vdW  Elec       q    Type
REMARK                         _______ _______ _______ _____ _____    ______ ____
ROOT
ATOM      1  C   UNL     1       6.003  -5.226  27.039  0.00  0.00    +0.077 C 
ATOM      2  C   UNL     1       5.639  -3.729  27.106  0.00  0.00    +0.037 C 
ATOM      3  C   UNL     1       4.602  -3.277  26.058  0.00  0.00    +0.094 C 
ATOM      4  C   UNL     1       5.007  -3.725  24.625  0.00  0.00    +0.094 C 
ATOM      5  C   UNL     1       5.306  -5.231  24.589  0.00  0.00    +0.025 C 
ATOM      6  C   UNL     1       6.366  -5.647  25.611  0.00  0.00    +0.014 C 
ENDROOT
BRANCH   1   9
ATOM      7  C   UNL     1       3.666  -7.135  29.412  0.00  0.00    +0.131 C 
ATOM      8  N   UNL     1       4.709  -6.230  28.951  0.00  0.00    -0.307 N 
ATOM      9  C   UNL     1       4.872  -6.119  27.575  0.00  0.00    +0.218 C 
ATOM     10  O   UNL     1       4.180  -6.782  26.800  0.00  0.00    -0.275 OA
ATOM     11  C   UNL     1       5.285  -5.309  29.915  0.00  0.00    +0.131 C 
ENDBRANCH   1   9
BRANCH   3  12
ATOM     12  N   UNL     1       4.373  -1.831  26.142  0.00  0.00    -0.305 N 
ATOM     13  H   UNL     1       4.931  -1.171  25.609  0.00  0.00    +0.149 HD
ATOM     14  C   UNL     1       3.533  -1.283  27.107  0.00  0.00    +0.269 C 
ATOM     15  O   UNL     1       2.872  -1.998  27.860  0.00  0.00    -0.268 OA
BRANCH  14  16
ATOM     16  C   UNL     1       3.524   0.179  27.137  0.00  0.00    +0.163 A 
ATOM     17  S   UNL     1       2.766   1.026  28.433  0.00  0.00    -0.066 S 
ATOM     18  C   UNL     1       3.235   2.495  27.721  0.00  0.00    +0.027 A 
ATOM     19  C   UNL     1       2.974   3.848  28.305  0.00  0.00    +0.128 C 
ATOM     20  N   UNL     1       3.233   4.941  27.331  0.00  0.00    -0.300 NA
ATOM     21  C   UNL     1       4.473   4.685  26.557  0.00  0.00    +0.090 C 
ATOM     22  C   UNL     1       4.479   3.373  25.735  0.00  0.00    +0.071 C 
ATOM     23  C   UNL     1       2.082   5.161  26.456  0.00  0.00    +0.105 C 
ATOM     24  C   UNL     1       3.938   2.258  26.558  0.00  0.00    +0.055 A 
ATOM     25  N   UNL     1       4.091   0.932  26.206  0.00  0.00    -0.239 NA
ENDBRANCH  14  16
ENDBRANCH   3  12
BRANCH   4  26
ATOM     26  N   UNL     1       6.143  -2.951  24.134  0.00  0.00    -0.303 N 
ATOM     27  H   UNL     1       6.695  -2.401  24.788  0.00  0.00    +0.149 HD
ATOM     28  C   UNL     1       6.355  -2.663  22.807  0.00  0.00    +0.300 C 
ATOM     29  O   UNL     1       5.716  -3.068  21.847  0.00  0.00    -0.265 OA
BRANCH  28  30
ATOM     30  C   UNL     1       7.549  -1.720  22.582  0.00  0.00    +0.304 C 
ATOM     31  N   UNL     1       7.405  -0.534  23.264  0.00  0.00    -0.263 N 
ATOM     32  H   UNL     1       6.560  -0.444  23.820  0.00  0.00    +0.157 HD
ATOM     33  C   UNL     1       8.345   0.493  23.265  0.00  0.00    +0.125 A 
ATOM     34  C   UNL     1       8.095   1.615  24.051  0.00  0.00    +0.045 A 
ATOM     35  C   UNL     1       9.047   2.640  24.088  0.00  0.00    +0.025 A 
ATOM     36  C   UNL     1      10.207   2.516  23.336  0.00  0.00    +0.059 A 
ATOM     37 CL   UNL     1      11.408   3.741  23.357  0.00  0.00    -0.082 Cl
ATOM     38  C   UNL     1      10.368   1.377  22.569  0.00  0.00    +0.132 A 
ATOM     39  N   UNL     1       9.464   0.374  22.526  0.00  0.00    -0.239 NA
ATOM     40  O   UNL     1       8.453  -2.116  21.860  0.00  0.00    -0.265 OA
ENDBRANCH  28  30
ENDBRANCH   4  26
TORSDOF 5
ENDMDL
MODEL 9
REMARK VINA RESULT:      -6.1      3.552      8.616
REMARK  Name = 
REMARK  8 active torsions:
REMARK  status: ('A' for Active; 'I' for Inactive)
REMARK    1  A    between atoms: C_1  and  N_2
REMARK    2  A    between atoms: N_2  and  C_3
REMARK    3  A    between atoms: C_4  and  C_6
REMARK    4  A    between atoms: C_10  and  N_12
REMARK    5  A    between atoms: C_13  and  C_15
REMARK    6  A    between atoms: C_25  and  N_28
REMARK    7  A    between atoms: C_29  and  C_31
REMARK    8  A    between atoms: N_36  and  C_37
REMARK                            x       y       z     vdW  Elec       q    Type
REMARK                         _______ _______ _______ _____ _____    ______ ____
ROOT
ATOM      1  C   UNL     1       5.510  -3.464  24.305  0.00  0.00    +0.077 C 
ATOM      2  C   UNL     1       6.025  -2.012  24.221  0.00  0.00    +0.037 C 
ATOM      3  C   UNL     1       7.179  -1.687  25.191  0.00  0.00    +0.094 C 
ATOM      4  C   UNL     1       6.836  -2.111  26.648  0.00  0.00    +0.094 C 
ATOM      5  C   UNL     1       6.383  -3.577  26.696  0.00  0.00    +0.025 C 
ATOM      6  C   UNL     1       5.212  -3.865  25.754  0.00  0.00    +0.014 C 
ENDROOT
BRANCH   1   9
ATOM      7  C   UNL     1       7.322  -5.718  21.780  0.00  0.00    +0.131 C 
ATOM      8  N   UNL     1       6.409  -4.719  22.316  0.00  0.00    -0.307 N 
ATOM      9  C   UNL     1       6.498  -4.462  23.680  0.00  0.00    +0.218 C 
ATOM     10  O   UNL     1       7.295  -5.079  24.389  0.00  0.00    -0.275 OA
ATOM     11  C   UNL     1       5.700  -3.870  21.374  0.00  0.00    +0.131 C 
ENDBRANCH   1   9
BRANCH   3  12
ATOM     12  N   UNL     1       7.553  -0.272  25.099  0.00  0.00    -0.305 N 
ATOM     13  H   UNL     1       6.853   0.460  25.017  0.00  0.00    +0.149 HD
ATOM     14  C   UNL     1       8.874   0.120  24.906  0.00  0.00    +0.269 C 
ATOM     15  O   UNL     1       9.791  -0.700  24.907  0.00  0.00    -0.268 OA
BRANCH  14  16
ATOM     16  C   UNL     1       9.051   1.558  24.701  0.00  0.00    +0.163 A 
ATOM     17  S   UNL     1       7.953   2.686  25.403  0.00  0.00    -0.066 S 
ATOM     18  C   UNL     1       8.865   3.956  24.738  0.00  0.00    +0.027 A 
ATOM     19  C   UNL     1       8.575   5.411  24.937  0.00  0.00    +0.128 C 
ATOM     20  N   UNL     1       9.353   6.272  24.009  0.00  0.00    -0.300 NA
ATOM     21  C   UNL     1      10.753   5.798  23.886  0.00  0.00    +0.090 C 
ATOM     22  C   UNL     1      10.917   4.351  23.360  0.00  0.00    +0.071 C 
ATOM     23  C   UNL     1       8.699   6.380  22.705  0.00  0.00    +0.105 C 
ATOM     24  C   UNL     1       9.941   3.454  24.037  0.00  0.00    +0.055 A 
ATOM     25  N   UNL     1      10.044   2.077  23.995  0.00  0.00    -0.239 NA
ENDBRANCH  14  16
ENDBRANCH   3  12
BRANCH   4  26
ATOM     26  N   UNL     1       5.828  -1.229  27.228  0.00  0.00    -0.303 N 
ATOM     27  H   UNL     1       4.851  -1.347  26.970  0.00  0.00    +0.149 HD
ATOM     28  C   UNL     1       6.123  -0.052  27.873  0.00  0.00    +0.300 C 
ATOM     29  O   UNL     1       7.230   0.390  28.145  0.00  0.00    -0.265 OA
BRANCH  28  30
ATOM     30  C   UNL     1       4.868   0.745  28.267  0.00  0.00    +0.304 C 
ATOM     31  N   UNL     1       4.838   1.986  27.674  0.00  0.00    -0.263 N 
ATOM     32  H   UNL     1       5.619   2.202  27.062  0.00  0.00    +0.157 HD
ATOM     33  C   UNL     1       3.807   2.909  27.830  0.00  0.00    +0.125 A 
ATOM     34  C   UNL     1       3.880   4.104  27.120  0.00  0.00    +0.045 A 
ATOM     35  C   UNL     1       2.835   5.027  27.241  0.00  0.00    +0.025 A 
ATOM     36  C   UNL     1       1.761   4.731  28.070  0.00  0.00    +0.059 A 
ATOM     37 CL   UNL     1       0.452   5.825  28.243  0.00  0.00    -0.082 Cl
ATOM     38  C   UNL     1       1.778   3.529  28.753  0.00  0.00    +0.132 A 
ATOM     39  N   UNL     1       2.774   2.624  28.643  0.00  0.00    -0.239 NA
ATOM     40  O   UNL     1       4.072   0.208  29.024  0.00  0.00    -0.265 OA
ENDBRANCH  28  30
ENDBRANCH   4  26
TORSDOF 5
ENDMDL
