MODEL 1
REMARK VINA RESULT:      -4.5      0.000      0.000
REMARK  Name = 
REMARK  6 active torsions:
REMARK  status: ('A' for Active; 'I' for Inactive)
REMARK    1  A    between atoms: N_1  and  CA_2
REMARK    2  A    between atoms: CA_2  and  CB_4
REMARK    3  A    between atoms: CA_2  and  C_9
REMARK    4  A    between atoms: CB_4  and  CG_5
REMARK    5  A    between atoms: CG_5  and  CD_6
REMARK    6  A    between atoms: C_9  and  O_10
REMARK                            x       y       z     vdW  Elec       q    Type
REMARK                         _______ _______ _______ _____ _____    ______ ____
ROOT
ATOM      1  CA  GLN A   1      11.872   4.960  23.507  0.00  0.00    +0.161 C 
ENDROOT
BRANCH   1   2
ATOM      2  N   GLN A   1      10.778   5.882  23.055  0.00  0.00    -0.318 NA
ATOM      3  H1  GLN A   1      11.171   6.826  22.953  0.00  0.00    +0.119 HD
ATOM      4  H2  GLN A   1      10.534   5.621  22.094  0.00  0.00    +0.119 HD
ENDBRANCH   1   2
BRANCH   1   5
ATOM      5  C   GLN A   1      13.124   5.258  22.652  0.00  0.00    +0.322 C 
ATOM      6  OXT GLN A   1      13.119   5.656  21.499  0.00  0.00    -0.249 OA
BRANCH   5   7
ATOM      7  O   GLN A   1      14.266   4.993  23.339  0.00  0.00    -0.480 OA
ATOM      8  H   GLN A   1      14.000   4.984  24.293  0.00  0.00    +0.295 HD
ENDBRANCH   5   7
ENDBRANCH   1   5
BRANCH   1   9
ATOM      9  CB  GLN A   1      11.396   3.509  23.386  0.00  0.00    +0.039 C 
BRANCH   9  10
ATOM     10  CG  GLN A   1       9.914   3.318  23.710  0.00  0.00    +0.097 C 
BRANCH  10  11
ATOM     11  CD  GLN A   1       9.254   2.343  22.760  0.00  0.00    +0.211 C 
ATOM     12  OE1 GLN A   1       8.188   1.778  22.971  0.00  0.00    -0.276 OA
ATOM     13  NE2 GLN A   1       9.955   2.129  21.611  0.00  0.00    -0.329 N 
ATOM     14 HE21 GLN A   1       9.546   1.526  20.911  0.00  0.00    +0.145 HD
ATOM     15 HE22 GLN A   1      10.804   2.632  21.384  0.00  0.00    +0.145 HD
ENDBRANCH  10  11
ENDBRANCH   9  10
ENDBRANCH   1   9
TORSDOF 6
ENDMDL
MODEL 2
REMARK VINA RESULT:      -4.3      3.022      3.992
REMARK  Name = 
REMARK  6 active torsions:
REMARK  status: ('A' for Active; 'I' for Inactive)
REMARK    1  A    between atoms: N_1  and  CA_2
REMARK    2  A    between atoms: CA_2  and  CB_4
REMARK    3  A    between atoms: CA_2  and  C_9
REMARK    4  A    between atoms: CB_4  and  CG_5
REMARK    5  A    between atoms: CG_5  and  CD_6
REMARK    6  A    between atoms: C_9  and  O_10
REMARK                            x       y       z     vdW  Elec       q    Type
REMARK                         _______ _______ _______ _____ _____    ______ ____
ROOT
ATOM      1  CA  GLN A   1       9.800   1.917  24.114  0.00  0.00    +0.161 C 
ENDROOT
BRANCH   1   2
ATOM      2  N   GLN A   1       8.422   1.681  23.571  0.00  0.00    -0.318 NA
ATOM      3  H1  GLN A   1       7.750   2.195  24.156  0.00  0.00    +0.119 HD
ATOM      4  H2  GLN A   1       8.362   2.161  22.666  0.00  0.00    +0.119 HD
ENDBRANCH   1   2
BRANCH   1   5
ATOM      5  C   GLN A   1      10.585   2.741  23.069  0.00  0.00    +0.322 C 
ATOM      6  OXT GLN A   1      11.344   3.663  23.315  0.00  0.00    -0.249 OA
BRANCH   5   7
ATOM      7  O   GLN A   1      10.307   2.330  21.804  0.00  0.00    -0.480 OA
ATOM      8  H   GLN A   1      10.609   3.068  21.218  0.00  0.00    +0.295 HD
ENDBRANCH   5   7
ENDBRANCH   1   5
BRANCH   1   9
ATOM      9  CB  GLN A   1      10.457   0.571  24.432  0.00  0.00    +0.039 C 
BRANCH   9  10
ATOM     10  CG  GLN A   1       9.576  -0.637  24.111  0.00  0.00    +0.097 C 
BRANCH  10  11
ATOM     11  CD  GLN A   1      10.082  -1.394  22.903  0.00  0.00    +0.211 C 
ATOM     12  OE1 GLN A   1      10.579  -2.512  22.941  0.00  0.00    -0.276 OA
ATOM     13  NE2 GLN A   1       9.940  -0.719  21.728  0.00  0.00    -0.329 N 
ATOM     14 HE21 GLN A   1      10.213  -1.189  20.875  0.00  0.00    +0.145 HD
ATOM     15 HE22 GLN A   1       9.474   0.177  21.661  0.00  0.00    +0.145 HD
ENDBRANCH  10  11
ENDBRANCH   9  10
ENDBRANCH   1   9
TORSDOF 6
ENDMDL
MODEL 3
REMARK VINA RESULT:      -4.3     10.232     10.810
REMARK  Name = 
REMARK  6 active torsions:
REMARK  status: ('A' for Active; 'I' for Inactive)
REMARK    1  A    between atoms: N_1  and  CA_2
REMARK    2  A    between atoms: CA_2  and  CB_4
REMARK    3  A    between atoms: CA_2  and  C_9
REMARK    4  A    between atoms: CB_4  and  CG_5
REMARK    5  A    between atoms: CG_5  and  CD_6
REMARK    6  A    between atoms: C_9  and  O_10
REMARK                            x       y       z     vdW  Elec       q    Type
REMARK                         _______ _______ _______ _____ _____    ______ ____
ROOT
ATOM      1  CA  GLN A   1       8.354  -4.755  24.788  0.00  0.00    +0.161 C 
ENDROOT
BRANCH   1   2
ATOM      2  N   GLN A   1       9.536  -5.657  24.591  0.00  0.00    -0.318 NA
ATOM      3  H1  GLN A   1       9.292  -6.361  23.884  0.00  0.00    +0.119 HD
ATOM      4  H2  GLN A   1      10.270  -5.106  24.134  0.00  0.00    +0.119 HD
ENDBRANCH   1   2
BRANCH   1   5
ATOM      5  C   GLN A   1       7.416  -5.422  25.819  0.00  0.00    +0.322 C 
ATOM      6  OXT GLN A   1       6.206  -5.534  25.711  0.00  0.00    -0.249 OA
BRANCH   5   7
ATOM      7  O   GLN A   1       8.105  -5.859  26.905  0.00  0.00    -0.480 OA
ATOM      8  H   GLN A   1       9.061  -5.777  26.657  0.00  0.00    +0.295 HD
ENDBRANCH   5   7
ENDBRANCH   1   5
BRANCH   1   9
ATOM      9  CB  GLN A   1       7.677  -4.503  23.437  0.00  0.00    +0.039 C 
BRANCH   9  10
ATOM     10  CG  GLN A   1       7.587  -5.746  22.552  0.00  0.00    +0.097 C 
BRANCH  10  11
ATOM     11  CD  GLN A   1       6.197  -5.930  21.983  0.00  0.00    +0.211 C 
ATOM     12  OE1 GLN A   1       5.863  -5.621  20.847  0.00  0.00    -0.276 OA
ATOM     13  NE2 GLN A   1       5.310  -6.484  22.858  0.00  0.00    -0.329 N 
ATOM     14 HE21 GLN A   1       4.376  -6.680  22.526  0.00  0.00    +0.145 HD
ATOM     15 HE22 GLN A   1       5.576  -6.808  23.779  0.00  0.00    +0.145 HD
ENDBRANCH  10  11
ENDBRANCH   9  10
ENDBRANCH   1   9
TORSDOF 6
ENDMDL
MODEL 4
REMARK VINA RESULT:      -4.3      3.835      6.473
REMARK  Name = 
REMARK  6 active torsions:
REMARK  status: ('A' for Active; 'I' for Inactive)
REMARK    1  A    between atoms: N_1  and  CA_2
REMARK    2  A    between atoms: CA_2  and  CB_4
REMARK    3  A    between atoms: CA_2  and  C_9
REMARK    4  A    between atoms: CB_4  and  CG_5
REMARK    5  A    between atoms: CG_5  and  CD_6
REMARK    6  A    between atoms: C_9  and  O_10
REMARK                            x       y       z     vdW  Elec       q    Type
REMARK                         _______ _______ _______ _____ _____    ______ ____
ROOT
ATOM      1  CA  GLN A   1       8.877  -2.132  22.566  0.00  0.00    +0.161 C 
ENDROOT
BRANCH   1   2
ATOM      2  N   GLN A   1       7.597  -1.398  22.841  0.00  0.00    -0.318 NA
ATOM      3  H1  GLN A   1       7.566  -1.165  23.841  0.00  0.00    +0.119 HD
ATOM      4  H2  GLN A   1       7.665  -0.482  22.386  0.00  0.00    +0.119 HD
ENDBRANCH   1   2
BRANCH   1   5
ATOM      5  C   GLN A   1       9.517  -2.490  23.926  0.00  0.00    +0.322 C 
ATOM      6  OXT GLN A   1       9.969  -3.581  24.233  0.00  0.00    -0.249 OA
BRANCH   5   7
ATOM      7  O   GLN A   1       9.495  -1.432  24.778  0.00  0.00    -0.480 OA
ATOM      8  H   GLN A   1       9.133  -1.790  25.628  0.00  0.00    +0.295 HD
ENDBRANCH   5   7
ENDBRANCH   1   5
BRANCH   1   9
ATOM      9  CB  GLN A   1       9.782  -1.261  21.689  0.00  0.00    +0.039 C 
BRANCH   9  10
ATOM     10  CG  GLN A   1       9.263   0.163  21.489  0.00  0.00    +0.097 C 
BRANCH  10  11
ATOM     11  CD  GLN A   1      10.040   1.164  22.314  0.00  0.00    +0.211 C 
ATOM     12  OE1 GLN A   1      10.500   0.943  23.427  0.00  0.00    -0.276 OA
ATOM     13  NE2 GLN A   1      10.197   2.376  21.709  0.00  0.00    -0.329 N 
ATOM     14 HE21 GLN A   1      10.750   3.076  22.186  0.00  0.00    +0.145 HD
ATOM     15 HE22 GLN A   1       9.884   2.564  20.766  0.00  0.00    +0.145 HD
ENDBRANCH  10  11
ENDBRANCH   9  10
ENDBRANCH   1   9
TORSDOF 6
ENDMDL
MODEL 5
REMARK VINA RESULT:      -4.2      3.410      6.184
REMARK  Name = 
REMARK  6 active torsions:
REMARK  status: ('A' for Active; 'I' for Inactive)
REMARK    1  A    between atoms: N_1  and  CA_2
REMARK    2  A    between atoms: CA_2  and  CB_4
REMARK    3  A    between atoms: CA_2  and  C_9
REMARK    4  A    between atoms: CB_4  and  CG_5
REMARK    5  A    between atoms: CG_5  and  CD_6
REMARK    6  A    between atoms: C_9  and  O_10
REMARK                            x       y       z     vdW  Elec       q    Type
REMARK                         _______ _______ _______ _____ _____    ______ ____
ROOT
ATOM      1  CA  GLN A   1      10.209  -1.158  22.942  0.00  0.00    +0.161 C 
ENDROOT
BRANCH   1   2
ATOM      2  N   GLN A   1       9.901  -0.947  21.489  0.00  0.00    -0.318 NA
ATOM      3  H1  GLN A   1       9.452  -1.796  21.126  0.00  0.00    +0.119 HD
ATOM      4  H2  GLN A   1       9.157  -0.243  21.433  0.00  0.00    +0.119 HD
ENDBRANCH   1   2
BRANCH   1   5
ATOM      5  C   GLN A   1       9.571  -2.499  23.370  0.00  0.00    +0.322 C 
ATOM      6  OXT GLN A   1      10.072  -3.315  24.126  0.00  0.00    -0.249 OA
BRANCH   5   7
ATOM      7  O   GLN A   1       8.368  -2.688  22.770  0.00  0.00    -0.480 OA
ATOM      8  H   GLN A   1       8.418  -3.591  22.364  0.00  0.00    +0.295 HD
ENDBRANCH   5   7
ENDBRANCH   1   5
BRANCH   1   9
ATOM      9  CB  GLN A   1       9.690   0.035  23.750  0.00  0.00    +0.039 C 
BRANCH   9  10
ATOM     10  CG  GLN A   1      10.696   1.181  23.871  0.00  0.00    +0.097 C 
BRANCH  10  11
ATOM     11  CD  GLN A   1      10.240   2.409  23.114  0.00  0.00    +0.211 C 
ATOM     12  OE1 GLN A   1       9.970   3.485  23.630  0.00  0.00    -0.276 OA
ATOM     13  NE2 GLN A   1      10.148   2.225  21.766  0.00  0.00    -0.329 N 
ATOM     14 HE21 GLN A   1       9.896   3.020  21.196  0.00  0.00    +0.145 HD
ATOM     15 HE22 GLN A   1      10.427   1.367  21.308  0.00  0.00    +0.145 HD
ENDBRANCH  10  11
ENDBRANCH   9  10
ENDBRANCH   1   9
TORSDOF 6
ENDMDL
MODEL 6
REMARK VINA RESULT:      -4.2      3.344      5.639
REMARK  Name = 
REMARK  6 active torsions:
REMARK  status: ('A' for Active; 'I' for Inactive)
REMARK    1  A    between atoms: N_1  and  CA_2
REMARK    2  A    between atoms: CA_2  and  CB_4
REMARK    3  A    between atoms: CA_2  and  C_9
REMARK    4  A    between atoms: CB_4  and  CG_5
REMARK    5  A    between atoms: CG_5  and  CD_6
REMARK    6  A    between atoms: C_9  and  O_10
REMARK                            x       y       z     vdW  Elec       q    Type
REMARK                         _______ _______ _______ _____ _____    ______ ____
ROOT
ATOM      1  CA  GLN A   1       9.340  -0.682  23.919  0.00  0.00    +0.161 C 
ENDROOT
BRANCH   1   2
ATOM      2  N   GLN A   1       9.000  -1.605  25.051  0.00  0.00    -0.318 NA
ATOM      3  H1  GLN A   1       9.476  -2.502  24.893  0.00  0.00    +0.119 HD
ATOM      4  H2  GLN A   1       9.458  -1.240  25.893  0.00  0.00    +0.119 HD
ENDBRANCH   1   2
BRANCH   1   5
ATOM      5  C   GLN A   1      10.038  -1.517  22.822  0.00  0.00    +0.322 C 
ATOM      6  OXT GLN A   1      10.568  -2.604  22.985  0.00  0.00    -0.249 OA
BRANCH   5   7
ATOM      7  O   GLN A   1      10.022  -0.874  21.626  0.00  0.00    -0.480 OA
ATOM      8  H   GLN A   1      10.451   0.003  21.795  0.00  0.00    +0.295 HD
ENDBRANCH   5   7
ENDBRANCH   1   5
BRANCH   1   9
ATOM      9  CB  GLN A   1      10.210   0.465  24.442  0.00  0.00    +0.039 C 
BRANCH   9  10
ATOM     10  CG  GLN A   1       9.642   1.854  24.147  0.00  0.00    +0.097 C 
BRANCH  10  11
ATOM     11  CD  GLN A   1      10.463   2.586  23.108  0.00  0.00    +0.211 C 
ATOM     12  OE1 GLN A   1      11.318   3.425  23.360  0.00  0.00    -0.276 OA
ATOM     13  NE2 GLN A   1      10.171   2.233  21.823  0.00  0.00    -0.329 N 
ATOM     14 HE21 GLN A   1      10.718   2.649  21.082  0.00  0.00    +0.145 HD
ATOM     15 HE22 GLN A   1       9.516   1.497  21.591  0.00  0.00    +0.145 HD
ENDBRANCH  10  11
ENDBRANCH   9  10
ENDBRANCH   1   9
TORSDOF 6
ENDMDL
MODEL 7
REMARK VINA RESULT:      -4.2      9.105      9.929
REMARK  Name = 
REMARK  6 active torsions:
REMARK  status: ('A' for Active; 'I' for Inactive)
REMARK    1  A    between atoms: N_1  and  CA_2
REMARK    2  A    between atoms: CA_2  and  CB_4
REMARK    3  A    between atoms: CA_2  and  C_9
REMARK    4  A    between atoms: CB_4  and  CG_5
REMARK    5  A    between atoms: CG_5  and  CD_6
REMARK    6  A    between atoms: C_9  and  O_10
REMARK                            x       y       z     vdW  Elec       q    Type
REMARK                         _______ _______ _______ _____ _____    ______ ____
ROOT
ATOM      1  CA  GLN A   1       8.185  -5.474  25.589  0.00  0.00    +0.161 C 
ENDROOT
BRANCH   1   2
ATOM      2  N   GLN A   1       8.099  -5.530  27.086  0.00  0.00    -0.318 NA
ATOM      3  H1  GLN A   1       8.691  -6.302  27.416  0.00  0.00    +0.119 HD
ATOM      4  H2  GLN A   1       8.571  -4.697  27.452  0.00  0.00    +0.119 HD
ENDBRANCH   1   2
BRANCH   1   5
ATOM      5  C   GLN A   1       9.561  -4.878  25.217  0.00  0.00    +0.322 C 
ATOM      6  OXT GLN A   1       9.745  -3.915  24.491  0.00  0.00    -0.249 OA
BRANCH   5   7
ATOM      7  O   GLN A   1      10.575  -5.583  25.783  0.00  0.00    -0.480 OA
ATOM      8  H   GLN A   1      10.687  -6.383  25.210  0.00  0.00    +0.295 HD
ENDBRANCH   5   7
ENDBRANCH   1   5
BRANCH   1   9
ATOM      9  CB  GLN A   1       7.011  -4.657  25.043  0.00  0.00    +0.039 C 
BRANCH   9  10
ATOM     10  CG  GLN A   1       6.301  -5.312  23.858  0.00  0.00    +0.097 C 
BRANCH  10  11
ATOM     11  CD  GLN A   1       7.042  -5.075  22.560  0.00  0.00    +0.211 C 
ATOM     12  OE1 GLN A   1       7.266  -5.935  21.719  0.00  0.00    -0.276 OA
ATOM     13  NE2 GLN A   1       7.458  -3.788  22.388  0.00  0.00    -0.329 N 
ATOM     14 HE21 GLN A   1       7.917  -3.550  21.519  0.00  0.00    +0.145 HD
ATOM     15 HE22 GLN A   1       7.230  -3.045  23.036  0.00  0.00    +0.145 HD
ENDBRANCH  10  11
ENDBRANCH   9  10
ENDBRANCH   1   9
TORSDOF 6
ENDMDL
MODEL 8
REMARK VINA RESULT:      -4.2      7.760      9.703
REMARK  Name = 
REMARK  6 active torsions:
REMARK  status: ('A' for Active; 'I' for Inactive)
REMARK    1  A    between atoms: N_1  and  CA_2
REMARK    2  A    between atoms: CA_2  and  CB_4
REMARK    3  A    between atoms: CA_2  and  C_9
REMARK    4  A    between atoms: CB_4  and  CG_5
REMARK    5  A    between atoms: CG_5  and  CD_6
REMARK    6  A    between atoms: C_9  and  O_10
REMARK                            x       y       z     vdW  Elec       q    Type
REMARK                         _______ _______ _______ _____ _____    ______ ____
ROOT
ATOM      1  CA  GLN A   1       9.085  -4.558  26.243  0.00  0.00    +0.161 C 
ENDROOT
BRANCH   1   2
ATOM      2  N   GLN A   1      10.039  -5.371  25.419  0.00  0.00    -0.318 NA
ATOM      3  H1  GLN A   1      10.961  -5.344  25.871  0.00  0.00    +0.119 HD
ATOM      4  H2  GLN A   1       9.761  -6.355  25.509  0.00  0.00    +0.119 HD
ENDBRANCH   1   2
BRANCH   1   5
ATOM      5  C   GLN A   1       7.796  -5.389  26.431  0.00  0.00    +0.322 C 
ATOM      6  OXT GLN A   1       6.896  -5.500  25.615  0.00  0.00    -0.249 OA
BRANCH   5   7
ATOM      7  O   GLN A   1       7.761  -5.977  27.655  0.00  0.00    -0.480 OA
ATOM      8  H   GLN A   1       8.030  -5.267  28.293  0.00  0.00    +0.295 HD
ENDBRANCH   5   7
ENDBRANCH   1   5
BRANCH   1   9
ATOM      9  CB  GLN A   1       8.834  -3.215  25.550  0.00  0.00    +0.039 C 
BRANCH   9  10
ATOM     10  CG  GLN A   1       9.495  -3.097  24.176  0.00  0.00    +0.097 C 
BRANCH  10  11
ATOM     11  CD  GLN A   1       8.473  -2.909  23.077  0.00  0.00    +0.211 C 
ATOM     12  OE1 GLN A   1       8.541  -2.057  22.201  0.00  0.00    -0.276 OA
ATOM     13  NE2 GLN A   1       7.431  -3.786  23.134  0.00  0.00    -0.329 N 
ATOM     14 HE21 GLN A   1       6.737  -3.746  22.400  0.00  0.00    +0.145 HD
ATOM     15 HE22 GLN A   1       7.383  -4.539  23.808  0.00  0.00    +0.145 HD
ENDBRANCH  10  11
ENDBRANCH   9  10
ENDBRANCH   1   9
TORSDOF 6
ENDMDL
MODEL 9
REMARK VINA RESULT:      -4.1      3.554      4.874
REMARK  Name = 
REMARK  6 active torsions:
REMARK  status: ('A' for Active; 'I' for Inactive)
REMARK    1  A    between atoms: N_1  and  CA_2
REMARK    2  A    between atoms: CA_2  and  CB_4
REMARK    3  A    between atoms: CA_2  and  C_9
REMARK    4  A    between atoms: CB_4  and  CG_5
REMARK    5  A    between atoms: CG_5  and  CD_6
REMARK    6  A    between atoms: C_9  and  O_10
REMARK                            x       y       z     vdW  Elec       q    Type
REMARK                         _______ _______ _______ _____ _____    ______ ____
ROOT
ATOM      1  CA  GLN A   1       9.650   1.031  22.658  0.00  0.00    +0.161 C 
ENDROOT
BRANCH   1   2
ATOM      2  N   GLN A   1       9.810   2.007  21.530  0.00  0.00    -0.318 NA
ATOM      3  H1  GLN A   1      10.586   2.641  21.758  0.00  0.00    +0.119 HD
ATOM      4  H2  GLN A   1      10.160   1.486  20.720  0.00  0.00    +0.119 HD
ENDBRANCH   1   2
BRANCH   1   5
ATOM      5  C   GLN A   1      10.553   1.499  23.820  0.00  0.00    +0.322 C 
ATOM      6  OXT GLN A   1      10.871   0.829  24.789  0.00  0.00    -0.249 OA
BRANCH   5   7
ATOM      7  O   GLN A   1      10.944   2.790  23.654  0.00  0.00    -0.480 OA
ATOM      8  H   GLN A   1      11.841   2.846  24.071  0.00  0.00    +0.295 HD
ENDBRANCH   5   7
ENDBRANCH   1   5
BRANCH   1   9
ATOM      9  CB  GLN A   1       9.995  -0.377  22.162  0.00  0.00    +0.039 C 
BRANCH   9  10
ATOM     10  CG  GLN A   1       9.007  -1.451  22.619  0.00  0.00    +0.097 C 
BRANCH  10  11
ATOM     11  CD  GLN A   1       9.493  -2.171  23.857  0.00  0.00    +0.211 C 
ATOM     12  OE1 GLN A   1      10.237  -3.143  23.850  0.00  0.00    -0.276 OA
ATOM     13  NE2 GLN A   1       9.025  -1.643  25.023  0.00  0.00    -0.329 N 
ATOM     14 HE21 GLN A   1       9.351  -2.047  25.891  0.00  0.00    +0.145 HD
ATOM     15 HE22 GLN A   1       8.462  -0.803  25.060  0.00  0.00    +0.145 HD
ENDBRANCH  10  11
ENDBRANCH   9  10
ENDBRANCH   1   9
TORSDOF 6
ENDMDL
