MODEL 1
REMARK VINA RESULT:      -6.5      0.000      0.000
REMARK  Name = 
REMARK  12 active torsions:
REMARK  status: ('A' for Active; 'I' for Inactive)
REMARK    1  A    between atoms: C_2  and  C_3
REMARK    2  A    between atoms: C_2  and  N_4
REMARK    3  A    between atoms: C_2  and  C_5
REMARK    4  A    between atoms: N_7  and  C_8
REMARK    5  A    between atoms: C_8  and  C_10
REMARK    6  A    between atoms: C_8  and  C_11
REMARK    7  A    between atoms: N_13  and  C_14
REMARK    8  A    between atoms: C_14  and  C_16
REMARK    9  A    between atoms: C_14  and  C_23
REMARK   10  A    between atoms: C_16  and  C_17
REMARK   11  A    between atoms: C_23  and  C_25
REMARK   12  A    between atoms: C_23  and  O_26
REMARK                            x       y       z     vdW  Elec       q    Type
REMARK                         _______ _______ _______ _____ _____    ______ ____
ROOT
ATOM      1  C   UNL     1       8.098  -3.337  25.419  0.00  0.00    +0.233 C 
ATOM      2  N   UNL     1       8.406  -3.419  24.077  0.00  0.00    -0.308 N 
ATOM      3  H   UNL     1       8.760  -4.303  23.735  0.00  0.00    +0.149 HD
ATOM      4  O   UNL     1       7.573  -2.345  25.917  0.00  0.00    -0.274 OA
ENDROOT
BRANCH   1   5
ATOM      5  C   UNL     1       8.497  -4.580  26.256  0.00  0.00    +0.156 C 
ATOM      6  C   UNL     1       9.768  -5.196  25.686  0.00  0.00    +0.038 C 
BRANCH   5   8
ATOM      7  C   UNL     1       6.477  -5.572  27.324  0.00  0.00    +0.230 C 
ATOM      8  N   UNL     1       7.431  -5.577  26.328  0.00  0.00    -0.303 N 
ATOM      9  H   UNL     1       7.339  -6.301  25.617  0.00  0.00    +0.149 HD
ATOM     10  O   UNL     1       6.434  -4.712  28.199  0.00  0.00    -0.274 OA
BRANCH   7  11
ATOM     11  C   UNL     1       5.402  -6.667  27.157  0.00  0.00    +0.135 C 
ATOM     12  C   UNL     1       4.063  -6.067  26.750  0.00  0.00    +0.033 C 
BRANCH  11  13
ATOM     13  N   UNL     1       5.274  -7.465  28.399  0.00  0.00    -0.320 NA
ATOM     14  H   UNL     1       4.436  -8.045  28.321  0.00  0.00    +0.119 HD
ATOM     15  H   UNL     1       6.050  -8.130  28.433  0.00  0.00    +0.119 HD
ENDBRANCH  11  13
ENDBRANCH   7  11
ENDBRANCH   5   8
ENDBRANCH   1   5
BRANCH   2  16
ATOM     16  C   UNL     1       8.066  -2.373  23.109  0.00  0.00    +0.105 C 
BRANCH  16  17
ATOM     17  C   UNL     1       6.988  -2.895  22.118  0.00  0.00    +0.132 C 
ATOM     18  C   UNL     1       6.872  -4.416  22.103  0.00  0.00    +0.039 C 
BRANCH  17  19
ATOM     19  O   UNL     1       5.703  -2.356  22.459  0.00  0.00    -0.390 OA
ATOM     20  H   UNL     1       5.850  -1.410  22.643  0.00  0.00    +0.210 HD
ENDBRANCH  17  19
ENDBRANCH  16  17
BRANCH  16  21
ATOM     21  C   UNL     1       9.339  -1.892  22.381  0.00  0.00    +0.060 C 
BRANCH  21  22
ATOM     22  C   UNL     1       9.800  -0.499  22.745  0.00  0.00    -0.046 A 
ATOM     23  C   UNL     1      10.232  -0.201  24.045  0.00  0.00    +0.004 A 
ATOM     24  C   UNL     1      10.578   1.105  24.394  0.00  0.00    +0.000 A 
ATOM     25  C   UNL     1      10.494   2.126  23.449  0.00  0.00    +0.000 A 
ATOM     26  C   UNL     1      10.073   1.840  22.153  0.00  0.00    +0.000 A 
ATOM     27  C   UNL     1       9.726   0.535  21.802  0.00  0.00    +0.004 A 
ENDBRANCH  21  22
ENDBRANCH  16  21
ENDBRANCH   2  16
TORSDOF 9
ENDMDL
MODEL 2
REMARK VINA RESULT:      -6.2      1.894      2.935
REMARK  Name = 
REMARK  12 active torsions:
REMARK  status: ('A' for Active; 'I' for Inactive)
REMARK    1  A    between atoms: C_2  and  C_3
REMARK    2  A    between atoms: C_2  and  N_4
REMARK    3  A    between atoms: C_2  and  C_5
REMARK    4  A    between atoms: N_7  and  C_8
REMARK    5  A    between atoms: C_8  and  C_10
REMARK    6  A    between atoms: C_8  and  C_11
REMARK    7  A    between atoms: N_13  and  C_14
REMARK    8  A    between atoms: C_14  and  C_16
REMARK    9  A    between atoms: C_14  and  C_23
REMARK   10  A    between atoms: C_16  and  C_17
REMARK   11  A    between atoms: C_23  and  C_25
REMARK   12  A    between atoms: C_23  and  O_26
REMARK                            x       y       z     vdW  Elec       q    Type
REMARK                         _______ _______ _______ _____ _____    ______ ____
ROOT
ATOM      1  C   UNL     1       7.584  -3.697  22.852  0.00  0.00    +0.233 C 
ATOM      2  N   UNL     1       8.530  -2.931  23.499  0.00  0.00    -0.308 N 
ATOM      3  H   UNL     1       9.171  -3.409  24.118  0.00  0.00    +0.149 HD
ATOM      4  O   UNL     1       6.823  -3.234  22.007  0.00  0.00    -0.274 OA
ENDROOT
BRANCH   1   5
ATOM      5  C   UNL     1       7.533  -5.182  23.297  0.00  0.00    +0.156 C 
ATOM      6  C   UNL     1       6.875  -6.021  22.209  0.00  0.00    +0.038 C 
BRANCH   5   8
ATOM      7  C   UNL     1       7.505  -5.344  25.782  0.00  0.00    +0.230 C 
ATOM      8  N   UNL     1       6.843  -5.365  24.572  0.00  0.00    -0.303 N 
ATOM      9  H   UNL     1       5.832  -5.485  24.612  0.00  0.00    +0.149 HD
ATOM     10  O   UNL     1       8.711  -5.136  25.876  0.00  0.00    -0.274 OA
BRANCH   7  11
ATOM     11  C   UNL     1       6.568  -5.476  27.002  0.00  0.00    +0.135 C 
ATOM     12  C   UNL     1       6.065  -4.114  27.460  0.00  0.00    +0.033 C 
BRANCH  11  13
ATOM     13  N   UNL     1       7.248  -6.193  28.106  0.00  0.00    -0.320 NA
ATOM     14  H   UNL     1       6.533  -6.603  28.709  0.00  0.00    +0.119 HD
ATOM     15  H   UNL     1       7.747  -6.991  27.709  0.00  0.00    +0.119 HD
ENDBRANCH  11  13
ENDBRANCH   7  11
ENDBRANCH   5   8
ENDBRANCH   1   5
BRANCH   2  16
ATOM     16  C   UNL     1       8.772  -1.519  23.186  0.00  0.00    +0.105 C 
BRANCH  16  17
ATOM     17  C   UNL     1       9.439  -1.391  21.787  0.00  0.00    +0.132 C 
ATOM     18  C   UNL     1       9.214  -0.028  21.138  0.00  0.00    +0.039 C 
BRANCH  17  19
ATOM     19  O   UNL     1      10.854  -1.602  21.893  0.00  0.00    -0.390 OA
ATOM     20  H   UNL     1      11.125  -1.181  22.729  0.00  0.00    +0.210 HD
ENDBRANCH  17  19
ENDBRANCH  16  17
BRANCH  16  21
ATOM     21  C   UNL     1       9.625  -0.870  24.296  0.00  0.00    +0.060 C 
BRANCH  21  22
ATOM     22  C   UNL     1       9.546   0.638  24.367  0.00  0.00    -0.046 A 
ATOM     23  C   UNL     1       8.377   1.277  24.804  0.00  0.00    +0.004 A 
ATOM     24  C   UNL     1       8.284   2.669  24.790  0.00  0.00    +0.000 A 
ATOM     25  C   UNL     1       9.356   3.436  24.337  0.00  0.00    +0.000 A 
ATOM     26  C   UNL     1      10.525   2.812  23.909  0.00  0.00    +0.000 A 
ATOM     27  C   UNL     1      10.620   1.420  23.922  0.00  0.00    +0.004 A 
ENDBRANCH  21  22
ENDBRANCH  16  21
ENDBRANCH   2  16
TORSDOF 9
ENDMDL
MODEL 3
REMARK VINA RESULT:      -6.1      2.473      3.825
REMARK  Name = 
REMARK  12 active torsions:
REMARK  status: ('A' for Active; 'I' for Inactive)
REMARK    1  A    between atoms: C_2  and  C_3
REMARK    2  A    between atoms: C_2  and  N_4
REMARK    3  A    between atoms: C_2  and  C_5
REMARK    4  A    between atoms: N_7  and  C_8
REMARK    5  A    between atoms: C_8  and  C_10
REMARK    6  A    between atoms: C_8  and  C_11
REMARK    7  A    between atoms: N_13  and  C_14
REMARK    8  A    between atoms: C_14  and  C_16
REMARK    9  A    between atoms: C_14  and  C_23
REMARK   10  A    between atoms: C_16  and  C_17
REMARK   11  A    between atoms: C_23  and  C_25
REMARK   12  A    between atoms: C_23  and  O_26
REMARK                            x       y       z     vdW  Elec       q    Type
REMARK                         _______ _______ _______ _____ _____    ______ ____
ROOT
ATOM      1  C   UNL     1       7.288  -4.852  23.165  0.00  0.00    +0.233 C 
ATOM      2  N   UNL     1       7.753  -3.878  24.023  0.00  0.00    -0.308 N 
ATOM      3  H   UNL     1       7.065  -3.310  24.499  0.00  0.00    +0.149 HD
ATOM      4  O   UNL     1       8.032  -5.657  22.613  0.00  0.00    -0.274 OA
ENDROOT
BRANCH   1   5
ATOM      5  C   UNL     1       5.755  -4.831  22.925  0.00  0.00    +0.156 C 
ATOM      6  C   UNL     1       5.256  -3.391  22.927  0.00  0.00    +0.038 C 
BRANCH   5   8
ATOM      7  C   UNL     1       3.752  -6.114  23.660  0.00  0.00    +0.230 C 
ATOM      8  N   UNL     1       5.020  -5.629  23.903  0.00  0.00    -0.303 N 
ATOM      9  H   UNL     1       5.437  -5.882  24.798  0.00  0.00    +0.149 HD
ATOM     10  O   UNL     1       3.166  -5.941  22.595  0.00  0.00    -0.274 OA
BRANCH   7  11
ATOM     11  C   UNL     1       3.200  -6.999  24.798  0.00  0.00    +0.135 C 
ATOM     12  C   UNL     1       4.145  -7.015  25.992  0.00  0.00    +0.033 C 
BRANCH  11  13
ATOM     13  N   UNL     1       2.936  -8.372  24.309  0.00  0.00    -0.320 NA
ATOM     14  H   UNL     1       2.415  -8.305  23.432  0.00  0.00    +0.119 HD
ATOM     15  H   UNL     1       3.829  -8.798  24.053  0.00  0.00    +0.119 HD
ENDBRANCH  11  13
ENDBRANCH   7  11
ENDBRANCH   5   8
ENDBRANCH   1   5
BRANCH   2  16
ATOM     16  C   UNL     1       9.160  -3.761  24.419  0.00  0.00    +0.105 C 
BRANCH  16  17
ATOM     17  C   UNL     1       9.462  -4.725  25.602  0.00  0.00    +0.132 C 
ATOM     18  C   UNL     1       8.266  -4.932  26.527  0.00  0.00    +0.039 C 
BRANCH  17  19
ATOM     19  O   UNL     1       9.862  -6.008  25.102  0.00  0.00    -0.390 OA
ATOM     20  H   UNL     1      10.825  -5.952  24.961  0.00  0.00    +0.210 HD
ENDBRANCH  17  19
ENDBRANCH  16  17
BRANCH  16  21
ATOM     21  C   UNL     1       9.491  -2.294  24.767  0.00  0.00    +0.060 C 
BRANCH  21  22
ATOM     22  C   UNL     1       9.198  -1.293  23.674  0.00  0.00    -0.046 A 
ATOM     23  C   UNL     1       9.977  -1.251  22.509  0.00  0.00    +0.004 A 
ATOM     24  C   UNL     1       9.751  -0.271  21.541  0.00  0.00    +0.000 A 
ATOM     25  C   UNL     1       8.747   0.677  21.728  0.00  0.00    +0.000 A 
ATOM     26  C   UNL     1       7.962   0.640  22.878  0.00  0.00    +0.000 A 
ATOM     27  C   UNL     1       8.186  -0.338  23.847  0.00  0.00    +0.004 A 
ENDBRANCH  21  22
ENDBRANCH  16  21
ENDBRANCH   2  16
TORSDOF 9
ENDMDL
MODEL 4
REMARK VINA RESULT:      -6.1      2.832      4.649
REMARK  Name = 
REMARK  12 active torsions:
REMARK  status: ('A' for Active; 'I' for Inactive)
REMARK    1  A    between atoms: C_2  and  C_3
REMARK    2  A    between atoms: C_2  and  N_4
REMARK    3  A    between atoms: C_2  and  C_5
REMARK    4  A    between atoms: N_7  and  C_8
REMARK    5  A    between atoms: C_8  and  C_10
REMARK    6  A    between atoms: C_8  and  C_11
REMARK    7  A    between atoms: N_13  and  C_14
REMARK    8  A    between atoms: C_14  and  C_16
REMARK    9  A    between atoms: C_14  and  C_23
REMARK   10  A    between atoms: C_16  and  C_17
REMARK   11  A    between atoms: C_23  and  C_25
REMARK   12  A    between atoms: C_23  and  O_26
REMARK                            x       y       z     vdW  Elec       q    Type
REMARK                         _______ _______ _______ _____ _____    ______ ____
ROOT
ATOM      1  C   UNL     1       9.941  -0.365  24.414  0.00  0.00    +0.233 C 
ATOM      2  N   UNL     1       8.771   0.365  24.397  0.00  0.00    -0.308 N 
ATOM      3  H   UNL     1       7.926  -0.120  24.125  0.00  0.00    +0.149 HD
ATOM      4  O   UNL     1      11.003   0.098  24.821  0.00  0.00    -0.274 OA
ENDROOT
BRANCH   1   5
ATOM      5  C   UNL     1       9.820  -1.804  23.849  0.00  0.00    +0.156 C 
ATOM      6  C   UNL     1       9.460  -1.745  22.370  0.00  0.00    +0.038 C 
BRANCH   5   8
ATOM      7  C   UNL     1       9.090  -3.936  24.909  0.00  0.00    +0.230 C 
ATOM      8  N   UNL     1       8.852  -2.618  24.581  0.00  0.00    -0.303 N 
ATOM      9  H   UNL     1       7.970  -2.224  24.903  0.00  0.00    +0.149 HD
ATOM     10  O   UNL     1      10.143  -4.509  24.641  0.00  0.00    -0.274 OA
BRANCH   7  11
ATOM     11  C   UNL     1       7.966  -4.576  25.752  0.00  0.00    +0.135 C 
ATOM     12  C   UNL     1       7.256  -3.535  26.606  0.00  0.00    +0.033 C 
BRANCH  11  13
ATOM     13  N   UNL     1       8.503  -5.675  26.588  0.00  0.00    -0.320 NA
ATOM     14  H   UNL     1       7.814  -6.430  26.606  0.00  0.00    +0.119 HD
ATOM     15  H   UNL     1       9.315  -6.073  26.110  0.00  0.00    +0.119 HD
ENDBRANCH  11  13
ENDBRANCH   7  11
ENDBRANCH   5   8
ENDBRANCH   1   5
BRANCH   2  16
ATOM     16  C   UNL     1       8.664   1.725  24.933  0.00  0.00    +0.105 C 
BRANCH  16  17
ATOM     17  C   UNL     1       7.412   1.839  25.848  0.00  0.00    +0.132 C 
ATOM     18  C   UNL     1       7.174   0.595  26.698  0.00  0.00    +0.039 C 
BRANCH  17  19
ATOM     19  O   UNL     1       7.548   2.960  26.732  0.00  0.00    -0.390 OA
ATOM     20  H   UNL     1       7.091   3.703  26.295  0.00  0.00    +0.210 HD
ENDBRANCH  17  19
ENDBRANCH  16  17
BRANCH  16  21
ATOM     21  C   UNL     1       8.634   2.748  23.778  0.00  0.00    +0.060 C 
BRANCH  21  22
ATOM     22  C   UNL     1       9.741   3.777  23.803  0.00  0.00    -0.046 A 
ATOM     23  C   UNL     1       9.491   5.092  24.218  0.00  0.00    +0.004 A 
ATOM     24  C   UNL     1      10.498   6.056  24.162  0.00  0.00    +0.000 A 
ATOM     25  C   UNL     1      11.764   5.716  23.688  0.00  0.00    +0.000 A 
ATOM     26  C   UNL     1      12.026   4.411  23.280  0.00  0.00    +0.000 A 
ATOM     27  C   UNL     1      11.020   3.446  23.335  0.00  0.00    +0.004 A 
ENDBRANCH  21  22
ENDBRANCH  16  21
ENDBRANCH   2  16
TORSDOF 9
ENDMDL
MODEL 5
REMARK VINA RESULT:      -6.0      2.407      3.312
REMARK  Name = 
REMARK  12 active torsions:
REMARK  status: ('A' for Active; 'I' for Inactive)
REMARK    1  A    between atoms: C_2  and  C_3
REMARK    2  A    between atoms: C_2  and  N_4
REMARK    3  A    between atoms: C_2  and  C_5
REMARK    4  A    between atoms: N_7  and  C_8
REMARK    5  A    between atoms: C_8  and  C_10
REMARK    6  A    between atoms: C_8  and  C_11
REMARK    7  A    between atoms: N_13  and  C_14
REMARK    8  A    between atoms: C_14  and  C_16
REMARK    9  A    between atoms: C_14  and  C_23
REMARK   10  A    between atoms: C_16  and  C_17
REMARK   11  A    between atoms: C_23  and  C_25
REMARK   12  A    between atoms: C_23  and  O_26
REMARK                            x       y       z     vdW  Elec       q    Type
REMARK                         _______ _______ _______ _____ _____    ______ ____
ROOT
ATOM      1  C   UNL     1       9.074  -3.265  24.268  0.00  0.00    +0.233 C 
ATOM      2  N   UNL     1       8.223  -2.229  23.946  0.00  0.00    -0.308 N 
ATOM      3  H   UNL     1       7.268  -2.295  24.271  0.00  0.00    +0.149 HD
ATOM      4  O   UNL     1      10.274  -3.241  24.008  0.00  0.00    -0.274 OA
ENDROOT
BRANCH   1   5
ATOM      5  C   UNL     1       8.393  -4.478  24.954  0.00  0.00    +0.156 C 
ATOM      6  C   UNL     1       9.456  -5.397  25.544  0.00  0.00    +0.038 C 
BRANCH   5   8
ATOM      7  C   UNL     1       6.165  -4.976  23.959  0.00  0.00    +0.230 C 
ATOM      8  N   UNL     1       7.519  -5.221  24.049  0.00  0.00    -0.303 N 
ATOM      9  H   UNL     1       7.892  -5.933  23.423  0.00  0.00    +0.149 HD
ATOM     10  O   UNL     1       5.604  -4.096  24.607  0.00  0.00    -0.274 OA
BRANCH   7  11
ATOM     11  C   UNL     1       5.454  -5.821  22.881  0.00  0.00    +0.135 C 
ATOM     12  C   UNL     1       6.255  -5.851  21.587  0.00  0.00    +0.033 C 
BRANCH  11  13
ATOM     13  N   UNL     1       4.080  -5.317  22.646  0.00  0.00    -0.320 NA
ATOM     14  H   UNL     1       3.725  -4.934  23.524  0.00  0.00    +0.119 HD
ATOM     15  H   UNL     1       4.138  -4.515  22.014  0.00  0.00    +0.119 HD
ENDBRANCH  11  13
ENDBRANCH   7  11
ENDBRANCH   5   8
ENDBRANCH   1   5
BRANCH   2  16
ATOM     16  C   UNL     1       8.678  -0.974  23.340  0.00  0.00    +0.105 C 
BRANCH  16  17
ATOM     17  C   UNL     1       9.214  -1.239  21.905  0.00  0.00    +0.132 C 
ATOM     18  C   UNL     1       9.003  -0.060  20.959  0.00  0.00    +0.039 C 
BRANCH  17  19
ATOM     19  O   UNL     1      10.618  -1.527  21.948  0.00  0.00    -0.390 OA
ATOM     20  H   UNL     1      11.023  -0.988  21.243  0.00  0.00    +0.210 HD
ENDBRANCH  17  19
ENDBRANCH  16  17
BRANCH  16  21
ATOM     21  C   UNL     1       9.738  -0.306  24.241  0.00  0.00    +0.060 C 
BRANCH  21  22
ATOM     22  C   UNL     1       9.709   1.205  24.254  0.00  0.00    -0.046 A 
ATOM     23  C   UNL     1       8.648   1.899  24.853  0.00  0.00    +0.004 A 
ATOM     24  C   UNL     1       8.588   3.292  24.790  0.00  0.00    +0.000 A 
ATOM     25  C   UNL     1       9.585   4.005  24.126  0.00  0.00    +0.000 A 
ATOM     26  C   UNL     1      10.647   3.326  23.534  0.00  0.00    +0.000 A 
ATOM     27  C   UNL     1      10.709   1.934  23.596  0.00  0.00    +0.004 A 
ENDBRANCH  21  22
ENDBRANCH  16  21
ENDBRANCH   2  16
TORSDOF 9
ENDMDL
MODEL 6
REMARK VINA RESULT:      -6.0      2.379      3.694
REMARK  Name = 
REMARK  12 active torsions:
REMARK  status: ('A' for Active; 'I' for Inactive)
REMARK    1  A    between atoms: C_2  and  C_3
REMARK    2  A    between atoms: C_2  and  N_4
REMARK    3  A    between atoms: C_2  and  C_5
REMARK    4  A    between atoms: N_7  and  C_8
REMARK    5  A    between atoms: C_8  and  C_10
REMARK    6  A    between atoms: C_8  and  C_11
REMARK    7  A    between atoms: N_13  and  C_14
REMARK    8  A    between atoms: C_14  and  C_16
REMARK    9  A    between atoms: C_14  and  C_23
REMARK   10  A    between atoms: C_16  and  C_17
REMARK   11  A    between atoms: C_23  and  C_25
REMARK   12  A    between atoms: C_23  and  O_26
REMARK                            x       y       z     vdW  Elec       q    Type
REMARK                         _______ _______ _______ _____ _____    ______ ____
ROOT
ATOM      1  C   UNL     1       8.822  -3.221  24.054  0.00  0.00    +0.233 C 
ATOM      2  N   UNL     1       8.497  -1.957  24.499  0.00  0.00    -0.308 N 
ATOM      3  H   UNL     1       7.572  -1.611  24.278  0.00  0.00    +0.149 HD
ATOM      4  O   UNL     1       9.878  -3.774  24.350  0.00  0.00    -0.274 OA
ENDROOT
BRANCH   1   5
ATOM      5  C   UNL     1       7.768  -3.877  23.124  0.00  0.00    +0.156 C 
ATOM      6  C   UNL     1       7.256  -2.848  22.124  0.00  0.00    +0.038 C 
BRANCH   5   8
ATOM      7  C   UNL     1       5.993  -5.597  23.424  0.00  0.00    +0.230 C 
ATOM      8  N   UNL     1       6.656  -4.471  23.863  0.00  0.00    -0.303 N 
ATOM      9  H   UNL     1       6.349  -4.083  24.754  0.00  0.00    +0.149 HD
ATOM     10  O   UNL     1       6.311  -6.201  22.403  0.00  0.00    -0.274 OA
BRANCH   7  11
ATOM     11  C   UNL     1       4.907  -6.096  24.401  0.00  0.00    +0.135 C 
ATOM     12  C   UNL     1       5.413  -6.090  25.837  0.00  0.00    +0.033 C 
BRANCH  11  13
ATOM     13  N   UNL     1       4.431  -7.443  24.009  0.00  0.00    -0.320 NA
ATOM     14  H   UNL     1       5.158  -8.121  24.247  0.00  0.00    +0.119 HD
ATOM     15  H   UNL     1       3.638  -7.688  24.604  0.00  0.00    +0.119 HD
ENDBRANCH  11  13
ENDBRANCH   7  11
ENDBRANCH   5   8
ENDBRANCH   1   5
BRANCH   2  16
ATOM     16  C   UNL     1       9.334  -1.191  25.426  0.00  0.00    +0.105 C 
BRANCH  16  17
ATOM     17  C   UNL     1       8.448  -0.518  26.513  0.00  0.00    +0.132 C 
ATOM     18  C   UNL     1       7.156  -1.281  26.790  0.00  0.00    +0.039 C 
BRANCH  17  19
ATOM     19  O   UNL     1       9.174  -0.415  27.745  0.00  0.00    -0.390 OA
ATOM     20  H   UNL     1       8.601   0.089  28.352  0.00  0.00    +0.210 HD
ENDBRANCH  17  19
ENDBRANCH  16  17
BRANCH  16  21
ATOM     21  C   UNL     1      10.179  -0.160  24.646  0.00  0.00    +0.060 C 
BRANCH  21  22
ATOM     22  C   UNL     1       9.417   0.655  23.627  0.00  0.00    -0.046 A 
ATOM     23  C   UNL     1       9.503   0.359  22.259  0.00  0.00    +0.004 A 
ATOM     24  C   UNL     1       8.862   1.165  21.318  0.00  0.00    +0.000 A 
ATOM     25  C   UNL     1       8.131   2.277  21.733  0.00  0.00    +0.000 A 
ATOM     26  C   UNL     1       8.032   2.576  23.089  0.00  0.00    +0.000 A 
ATOM     27  C   UNL     1       8.673   1.772  24.032  0.00  0.00    +0.004 A 
ENDBRANCH  21  22
ENDBRANCH  16  21
ENDBRANCH   2  16
TORSDOF 9
ENDMDL
MODEL 7
REMARK VINA RESULT:      -6.0      2.674      6.726
REMARK  Name = 
REMARK  12 active torsions:
REMARK  status: ('A' for Active; 'I' for Inactive)
REMARK    1  A    between atoms: C_2  and  C_3
REMARK    2  A    between atoms: C_2  and  N_4
REMARK    3  A    between atoms: C_2  and  C_5
REMARK    4  A    between atoms: N_7  and  C_8
REMARK    5  A    between atoms: C_8  and  C_10
REMARK    6  A    between atoms: C_8  and  C_11
REMARK    7  A    between atoms: N_13  and  C_14
REMARK    8  A    between atoms: C_14  and  C_16
REMARK    9  A    between atoms: C_14  and  C_23
REMARK   10  A    between atoms: C_16  and  C_17
REMARK   11  A    between atoms: C_23  and  C_25
REMARK   12  A    between atoms: C_23  and  O_26
REMARK                            x       y       z     vdW  Elec       q    Type
REMARK                         _______ _______ _______ _____ _____    ______ ____
ROOT
ATOM      1  C   UNL     1       9.353  -2.168  23.806  0.00  0.00    +0.233 C 
ATOM      2  N   UNL     1       8.092  -2.684  23.596  0.00  0.00    -0.308 N 
ATOM      3  H   UNL     1       7.317  -2.214  24.045  0.00  0.00    +0.149 HD
ATOM      4  O   UNL     1      10.349  -2.601  23.233  0.00  0.00    -0.274 OA
ENDROOT
BRANCH   1   5
ATOM      5  C   UNL     1       9.423  -1.020  24.847  0.00  0.00    +0.156 C 
ATOM      6  C   UNL     1       8.316  -1.197  25.879  0.00  0.00    +0.038 C 
BRANCH   5   8
ATOM      7  C   UNL     1      10.445   1.124  24.099  0.00  0.00    +0.230 C 
ATOM      8  N   UNL     1       9.345   0.304  24.233  0.00  0.00    -0.303 N 
ATOM      9  H   UNL     1       8.468   0.656  23.852  0.00  0.00    +0.149 HD
ATOM     10  O   UNL     1      11.572   0.788  24.453  0.00  0.00    -0.274 OA
BRANCH   7  11
ATOM     11  C   UNL     1      10.148   2.440  23.350  0.00  0.00    +0.135 C 
ATOM     12  C   UNL     1       8.833   3.054  23.813  0.00  0.00    +0.033 C 
BRANCH  11  13
ATOM     13  N   UNL     1      10.145   2.217  21.885  0.00  0.00    -0.320 NA
ATOM     14  H   UNL     1      11.106   2.036  21.587  0.00  0.00    +0.119 HD
ATOM     15  H   UNL     1       9.643   1.347  21.695  0.00  0.00    +0.119 HD
ENDBRANCH  11  13
ENDBRANCH   7  11
ENDBRANCH   5   8
ENDBRANCH   1   5
BRANCH   2  16
ATOM     16  C   UNL     1       7.807  -3.736  22.617  0.00  0.00    +0.105 C 
BRANCH  16  17
ATOM     17  C   UNL     1       6.526  -3.380  21.810  0.00  0.00    +0.132 C 
ATOM     18  C   UNL     1       5.680  -4.601  21.457  0.00  0.00    +0.039 C 
BRANCH  17  19
ATOM     19  O   UNL     1       5.706  -2.475  22.562  0.00  0.00    -0.390 OA
ATOM     20  H   UNL     1       5.044  -3.029  23.016  0.00  0.00    +0.210 HD
ENDBRANCH  17  19
ENDBRANCH  16  17
BRANCH  16  21
ATOM     21  C   UNL     1       7.685  -5.101  23.327  0.00  0.00    +0.060 C 
BRANCH  21  22
ATOM     22  C   UNL     1       7.259  -5.035  24.776  0.00  0.00    -0.046 A 
ATOM     23  C   UNL     1       8.198  -5.175  25.808  0.00  0.00    +0.004 A 
ATOM     24  C   UNL     1       7.786  -5.194  27.141  0.00  0.00    +0.000 A 
ATOM     25  C   UNL     1       6.434  -5.077  27.456  0.00  0.00    +0.000 A 
ATOM     26  C   UNL     1       5.494  -4.931  26.440  0.00  0.00    +0.000 A 
ATOM     27  C   UNL     1       5.903  -4.911  25.106  0.00  0.00    +0.004 A 
ENDBRANCH  21  22
ENDBRANCH  16  21
ENDBRANCH   2  16
TORSDOF 9
ENDMDL
MODEL 8
REMARK VINA RESULT:      -5.9      2.940      4.703
REMARK  Name = 
REMARK  12 active torsions:
REMARK  status: ('A' for Active; 'I' for Inactive)
REMARK    1  A    between atoms: C_2  and  C_3
REMARK    2  A    between atoms: C_2  and  N_4
REMARK    3  A    between atoms: C_2  and  C_5
REMARK    4  A    between atoms: N_7  and  C_8
REMARK    5  A    between atoms: C_8  and  C_10
REMARK    6  A    between atoms: C_8  and  C_11
REMARK    7  A    between atoms: N_13  and  C_14
REMARK    8  A    between atoms: C_14  and  C_16
REMARK    9  A    between atoms: C_14  and  C_23
REMARK   10  A    between atoms: C_16  and  C_17
REMARK   11  A    between atoms: C_23  and  C_25
REMARK   12  A    between atoms: C_23  and  O_26
REMARK                            x       y       z     vdW  Elec       q    Type
REMARK                         _______ _______ _______ _____ _____    ______ ____
ROOT
ATOM      1  C   UNL     1       9.358  -1.617  22.563  0.00  0.00    +0.233 C 
ATOM      2  N   UNL     1       8.885  -0.333  22.737  0.00  0.00    -0.308 N 
ATOM      3  H   UNL     1       7.952  -0.229  23.115  0.00  0.00    +0.149 HD
ATOM      4  O   UNL     1      10.508  -1.855  22.205  0.00  0.00    -0.274 OA
ENDROOT
BRANCH   1   5
ATOM      5  C   UNL     1       8.315  -2.736  22.821  0.00  0.00    +0.156 C 
ATOM      6  C   UNL     1       6.919  -2.129  22.890  0.00  0.00    +0.038 C 
BRANCH   5   8
ATOM      7  C   UNL     1       8.335  -4.854  24.130  0.00  0.00    +0.230 C 
ATOM      8  N   UNL     1       8.600  -3.505  24.030  0.00  0.00    -0.303 N 
ATOM      9  H   UNL     1       9.038  -3.069  24.840  0.00  0.00    +0.149 HD
ATOM     10  O   UNL     1       7.874  -5.511  23.201  0.00  0.00    -0.274 OA
BRANCH   7  11
ATOM     11  C   UNL     1       8.791  -5.477  25.466  0.00  0.00    +0.135 C 
ATOM     12  C   UNL     1       8.287  -4.667  26.653  0.00  0.00    +0.033 C 
BRANCH  11  13
ATOM     13  N   UNL     1      10.266  -5.613  25.501  0.00  0.00    -0.320 NA
ATOM     14  H   UNL     1      10.502  -6.592  25.329  0.00  0.00    +0.119 HD
ATOM     15  H   UNL     1      10.653  -5.105  24.703  0.00  0.00    +0.119 HD
ENDBRANCH  11  13
ENDBRANCH   7  11
ENDBRANCH   5   8
ENDBRANCH   1   5
BRANCH   2  16
ATOM     16  C   UNL     1       9.725   0.859  22.593  0.00  0.00    +0.105 C 
BRANCH  16  17
ATOM     17  C   UNL     1      10.016   1.479  23.989  0.00  0.00    +0.132 C 
ATOM     18  C   UNL     1       9.025   1.035  25.061  0.00  0.00    +0.039 C 
BRANCH  17  19
ATOM     19  O   UNL     1      11.332   1.115  24.426  0.00  0.00    -0.390 OA
ATOM     20  H   UNL     1      11.370   1.334  25.375  0.00  0.00    +0.210 HD
ENDBRANCH  17  19
ENDBRANCH  16  17
BRANCH  16  21
ATOM     21  C   UNL     1       9.051   1.869  21.639  0.00  0.00    +0.060 C 
BRANCH  21  22
ATOM     22  C   UNL     1       7.877   2.620  22.224  0.00  0.00    -0.046 A 
ATOM     23  C   UNL     1       8.030   3.924  22.714  0.00  0.00    +0.004 A 
ATOM     24  C   UNL     1       6.962   4.581  23.326  0.00  0.00    +0.000 A 
ATOM     25  C   UNL     1       5.731   3.939  23.457  0.00  0.00    +0.000 A 
ATOM     26  C   UNL     1       5.566   2.647  22.967  0.00  0.00    +0.000 A 
ATOM     27  C   UNL     1       6.633   1.988  22.355  0.00  0.00    +0.004 A 
ENDBRANCH  21  22
ENDBRANCH  16  21
ENDBRANCH   2  16
TORSDOF 9
ENDMDL
MODEL 9
REMARK VINA RESULT:      -5.9      2.692      4.020
REMARK  Name = 
REMARK  12 active torsions:
REMARK  status: ('A' for Active; 'I' for Inactive)
REMARK    1  A    between atoms: C_2  and  C_3
REMARK    2  A    between atoms: C_2  and  N_4
REMARK    3  A    between atoms: C_2  and  C_5
REMARK    4  A    between atoms: N_7  and  C_8
REMARK    5  A    between atoms: C_8  and  C_10
REMARK    6  A    between atoms: C_8  and  C_11
REMARK    7  A    between atoms: N_13  and  C_14
REMARK    8  A    between atoms: C_14  and  C_16
REMARK    9  A    between atoms: C_14  and  C_23
REMARK   10  A    between atoms: C_16  and  C_17
REMARK   11  A    between atoms: C_23  and  C_25
REMARK   12  A    between atoms: C_23  and  O_26
REMARK                            x       y       z     vdW  Elec       q    Type
REMARK                         _______ _______ _______ _____ _____    ______ ____
ROOT
ATOM      1  C   UNL     1       7.869  -1.284  24.074  0.00  0.00    +0.233 C 
ATOM      2  N   UNL     1       9.039  -0.645  23.721  0.00  0.00    -0.308 N 
ATOM      3  H   UNL     1       9.864  -1.219  23.604  0.00  0.00    +0.149 HD
ATOM      4  O   UNL     1       6.793  -0.698  24.146  0.00  0.00    -0.274 OA
ENDROOT
BRANCH   1   5
ATOM      5  C   UNL     1       8.024  -2.791  24.406  0.00  0.00    +0.156 C 
ATOM      6  C   UNL     1       9.497  -3.176  24.366  0.00  0.00    +0.038 C 
BRANCH   5   8
ATOM      7  C   UNL     1       6.692  -4.840  23.929  0.00  0.00    +0.230 C 
ATOM      8  N   UNL     1       7.246  -3.648  23.514  0.00  0.00    -0.303 N 
ATOM      9  H   UNL     1       7.059  -3.373  22.551  0.00  0.00    +0.149 HD
ATOM     10  O   UNL     1       6.784  -5.250  25.083  0.00  0.00    -0.274 OA
BRANCH   7  11
ATOM     11  C   UNL     1       5.844  -5.539  22.845  0.00  0.00    +0.135 C 
ATOM     12  C   UNL     1       6.697  -5.931  21.646  0.00  0.00    +0.033 C 
BRANCH  11  13
ATOM     13  N   UNL     1       4.711  -4.679  22.434  0.00  0.00    -0.320 NA
ATOM     14  H   UNL     1       4.526  -4.844  21.443  0.00  0.00    +0.119 HD
ATOM     15  H   UNL     1       3.870  -5.005  22.916  0.00  0.00    +0.119 HD
ENDBRANCH  11  13
ENDBRANCH   7  11
ENDBRANCH   5   8
ENDBRANCH   1   5
BRANCH   2  16
ATOM     16  C   UNL     1       9.098   0.764  23.321  0.00  0.00    +0.105 C 
BRANCH  16  17
ATOM     17  C   UNL     1       9.452   0.875  21.811  0.00  0.00    +0.132 C 
ATOM     18  C   UNL     1       9.472  -0.473  21.098  0.00  0.00    +0.039 C 
BRANCH  17  19
ATOM     19  O   UNL     1       8.501   1.715  21.143  0.00  0.00    -0.390 OA
ATOM     20  H   UNL     1       7.832   1.115  20.766  0.00  0.00    +0.210 HD
ENDBRANCH  17  19
ENDBRANCH  16  17
BRANCH  16  21
ATOM     21  C   UNL     1      10.104   1.525  24.211  0.00  0.00    +0.060 C 
BRANCH  21  22
ATOM     22  C   UNL     1      10.158   3.018  23.986  0.00  0.00    -0.046 A 
ATOM     23  C   UNL     1      11.326   3.633  23.513  0.00  0.00    +0.004 A 
ATOM     24  C   UNL     1      11.394   5.020  23.386  0.00  0.00    +0.000 A 
ATOM     25  C   UNL     1      10.298   5.808  23.732  0.00  0.00    +0.000 A 
ATOM     26  C   UNL     1       9.130   5.208  24.196  0.00  0.00    +0.000 A 
ATOM     27  C   UNL     1       9.060   3.821  24.324  0.00  0.00    +0.004 A 
ENDBRANCH  21  22
ENDBRANCH  16  21
ENDBRANCH   2  16
TORSDOF 9
ENDMDL
