MODEL 1
REMARK VINA RESULT:      -5.0      0.000      0.000
REMARK  Name = 
REMARK  11 active torsions:
REMARK  status: ('A' for Active; 'I' for Inactive)
REMARK    1  A    between atoms: C_1  and  C_2
REMARK    2  A    between atoms: C_2  and  C_3
REMARK    3  A    between atoms: C_3  and  C_4
REMARK    4  A    between atoms: C_4  and  C_5
REMARK    5  A    between atoms: C_5  and  C_6
REMARK    6  A    between atoms: C_6  and  C_7
REMARK    7  A    between atoms: C_7  and  C_8
REMARK    8  A    between atoms: C_8  and  C_9
REMARK    9  A    between atoms: C_9  and  C_10
REMARK   10  A    between atoms: C_10  and  N_11
REMARK   11  A    between atoms: N_14  and  C_15
REMARK                            x       y       z     vdW  Elec       q    Type
REMARK                         _______ _______ _______ _____ _____    ______ ____
ROOT
ATOM      1  N   UNL     1       6.213  -0.546  23.571  0.00  0.00    -0.299 N 
ATOM      2  H   UNL     1       7.022  -0.647  22.975  0.00  0.00    +0.150 HD
ATOM      3  C   UNL     1       5.807  -1.731  24.145  0.00  0.00    +0.300 C 
ATOM      4  N   UNL     1       6.060  -2.813  23.346  0.00  0.00    -0.297 N 
ATOM      5  H   UNL     1       6.036  -2.619  22.355  0.00  0.00    +0.151 HD
ATOM      6  O   UNL     1       5.310  -1.814  25.262  0.00  0.00    -0.253 OA
ENDROOT
BRANCH   4   7
ATOM      7  C   UNL     1       5.653  -4.144  23.792  0.00  0.00    +0.074 C 
ATOM      8  C   UNL     1       6.826  -4.908  24.403  0.00  0.00    +0.022 C 
ATOM      9  C   UNL     1       7.865  -5.319  23.363  0.00  0.00    +0.002 C 
ATOM     10  C   UNL     1       7.257  -6.042  22.164  0.00  0.00    +0.000 C 
ATOM     11  C   UNL     1       6.016  -5.364  21.590  0.00  0.00    +0.002 C 
ATOM     12  C   UNL     1       5.009  -4.957  22.663  0.00  0.00    +0.022 C 
ENDBRANCH   4   7
BRANCH   1  13
ATOM     13  C   UNL     1       6.194   0.602  24.450  0.00  0.00    +0.106 C 
BRANCH  13  14
ATOM     14  C   UNL     1       7.564   1.184  24.779  0.00  0.00    +0.019 C 
BRANCH  14  15
ATOM     15  C   UNL     1       8.318   0.292  25.779  0.00  0.00    +0.002 C 
BRANCH  15  16
ATOM     16  C   UNL     1       9.558  -0.350  25.160  0.00  0.00    +0.000 C 
BRANCH  16  17
ATOM     17  C   UNL     1       9.390  -1.837  24.863  0.00  0.00    +0.000 C 
BRANCH  17  18
ATOM     18  C   UNL     1       9.625  -2.083  23.370  0.00  0.00    -0.000 C 
BRANCH  18  19
ATOM     19  C   UNL     1      10.231  -0.867  22.681  0.00  0.00    -0.000 C 
BRANCH  19  20
ATOM     20  C   UNL     1       9.433  -0.509  21.427  0.00  0.00    -0.000 C 
BRANCH  20  22
ATOM     21  C   UNL     1      10.079   1.820  22.118  0.00  0.00    +0.004 C 
ATOM     22  C   UNL     1       9.027   0.962  21.436  0.00  0.00    -0.003 C 
ENDBRANCH  20  22
ENDBRANCH  19  20
ENDBRANCH  18  19
ENDBRANCH  17  18
ENDBRANCH  16  17
ENDBRANCH  15  16
ENDBRANCH  14  15
ENDBRANCH  13  14
ENDBRANCH   1  13
TORSDOF 10
ENDMDL
MODEL 2
REMARK VINA RESULT:      -5.0      2.764      4.420
REMARK  Name = 
REMARK  11 active torsions:
REMARK  status: ('A' for Active; 'I' for Inactive)
REMARK    1  A    between atoms: C_1  and  C_2
REMARK    2  A    between atoms: C_2  and  C_3
REMARK    3  A    between atoms: C_3  and  C_4
REMARK    4  A    between atoms: C_4  and  C_5
REMARK    5  A    between atoms: C_5  and  C_6
REMARK    6  A    between atoms: C_6  and  C_7
REMARK    7  A    between atoms: C_7  and  C_8
REMARK    8  A    between atoms: C_8  and  C_9
REMARK    9  A    between atoms: C_9  and  C_10
REMARK   10  A    between atoms: C_10  and  N_11
REMARK   11  A    between atoms: N_14  and  C_15
REMARK                            x       y       z     vdW  Elec       q    Type
REMARK                         _______ _______ _______ _____ _____    ______ ____
ROOT
ATOM      1  N   UNL     1       8.645  -1.248  23.400  0.00  0.00    -0.299 N 
ATOM      2  H   UNL     1       7.853  -1.116  22.787  0.00  0.00    +0.150 HD
ATOM      3  C   UNL     1       8.936  -2.573  23.637  0.00  0.00    +0.300 C 
ATOM      4  N   UNL     1       7.820  -3.366  23.619  0.00  0.00    -0.297 N 
ATOM      5  H   UNL     1       6.972  -2.904  23.914  0.00  0.00    +0.151 HD
ATOM      6  O   UNL     1      10.071  -3.003  23.808  0.00  0.00    -0.253 OA
ENDROOT
BRANCH   4   7
ATOM      7  C   UNL     1       7.952  -4.796  23.894  0.00  0.00    +0.074 C 
ATOM      8  C   UNL     1       7.540  -5.633  22.685  0.00  0.00    +0.022 C 
ATOM      9  C   UNL     1       6.038  -5.585  22.421  0.00  0.00    +0.002 C 
ATOM     10  C   UNL     1       5.202  -5.896  23.661  0.00  0.00    +0.000 C 
ATOM     11  C   UNL     1       5.652  -5.156  24.918  0.00  0.00    +0.002 C 
ATOM     12  C   UNL     1       7.162  -5.217  25.138  0.00  0.00    +0.022 C 
ENDBRANCH   4   7
BRANCH   1  13
ATOM     13  C   UNL     1       9.791  -0.396  23.171  0.00  0.00    +0.106 C 
BRANCH  13  14
ATOM     14  C   UNL     1       9.728   0.441  21.899  0.00  0.00    +0.019 C 
BRANCH  14  15
ATOM     15  C   UNL     1      10.153   1.893  22.171  0.00  0.00    +0.002 C 
BRANCH  15  16
ATOM     16  C   UNL     1       9.475   2.470  23.413  0.00  0.00    +0.000 C 
BRANCH  16  17
ATOM     17  C   UNL     1       8.924   3.878  23.209  0.00  0.00    +0.000 C 
BRANCH  17  18
ATOM     18  C   UNL     1       9.513   4.809  24.271  0.00  0.00    -0.000 C 
BRANCH  18  19
ATOM     19  C   UNL     1      10.226   6.003  23.649  0.00  0.00    -0.000 C 
BRANCH  19  20
ATOM     20  C   UNL     1      11.695   6.029  24.069  0.00  0.00    -0.000 C 
BRANCH  20  22
ATOM     21  C   UNL     1      13.189   5.566  22.101  0.00  0.00    +0.004 C 
ATOM     22  C   UNL     1      12.500   4.972  23.318  0.00  0.00    -0.003 C 
ENDBRANCH  20  22
ENDBRANCH  19  20
ENDBRANCH  18  19
ENDBRANCH  17  18
ENDBRANCH  16  17
ENDBRANCH  15  16
ENDBRANCH  14  15
ENDBRANCH  13  14
ENDBRANCH   1  13
TORSDOF 10
ENDMDL
MODEL 3
REMARK VINA RESULT:      -4.9      2.227      3.495
REMARK  Name = 
REMARK  11 active torsions:
REMARK  status: ('A' for Active; 'I' for Inactive)
REMARK    1  A    between atoms: C_1  and  C_2
REMARK    2  A    between atoms: C_2  and  C_3
REMARK    3  A    between atoms: C_3  and  C_4
REMARK    4  A    between atoms: C_4  and  C_5
REMARK    5  A    between atoms: C_5  and  C_6
REMARK    6  A    between atoms: C_6  and  C_7
REMARK    7  A    between atoms: C_7  and  C_8
REMARK    8  A    between atoms: C_8  and  C_9
REMARK    9  A    between atoms: C_9  and  C_10
REMARK   10  A    between atoms: C_10  and  N_11
REMARK   11  A    between atoms: N_14  and  C_15
REMARK                            x       y       z     vdW  Elec       q    Type
REMARK                         _______ _______ _______ _____ _____    ______ ____
ROOT
ATOM      1  N   UNL     1       8.936  -1.841  23.397  0.00  0.00    -0.299 N 
ATOM      2  H   UNL     1       8.480  -1.626  22.522  0.00  0.00    +0.150 HD
ATOM      3  C   UNL     1       8.887  -3.179  23.724  0.00  0.00    +0.300 C 
ATOM      4  N   UNL     1       7.752  -3.789  23.263  0.00  0.00    -0.297 N 
ATOM      5  H   UNL     1       6.945  -3.185  23.201  0.00  0.00    +0.151 HD
ATOM      6  O   UNL     1       9.777  -3.768  24.326  0.00  0.00    -0.253 OA
ENDROOT
BRANCH   4   7
ATOM      7  C   UNL     1       7.527  -5.202  23.560  0.00  0.00    +0.074 C 
ATOM      8  C   UNL     1       7.291  -6.007  22.283  0.00  0.00    +0.022 C 
ATOM      9  C   UNL     1       5.949  -5.690  21.629  0.00  0.00    +0.002 C 
ATOM     10  C   UNL     1       4.774  -5.776  22.600  0.00  0.00    +0.000 C 
ATOM     11  C   UNL     1       5.014  -5.072  23.933  0.00  0.00    +0.002 C 
ATOM     12  C   UNL     1       6.372  -5.405  24.547  0.00  0.00    +0.022 C 
ENDBRANCH   4   7
BRANCH   1  13
ATOM     13  C   UNL     1      10.206  -1.193  23.644  0.00  0.00    +0.106 C 
BRANCH  13  14
ATOM     14  C   UNL     1      10.192  -0.156  24.761  0.00  0.00    +0.019 C 
BRANCH  14  15
ATOM     15  C   UNL     1      10.926   1.126  24.333  0.00  0.00    +0.002 C 
BRANCH  15  16
ATOM     16  C   UNL     1       9.980   2.154  23.716  0.00  0.00    +0.000 C 
BRANCH  16  17
ATOM     17  C   UNL     1      10.009   2.170  22.190  0.00  0.00    +0.000 C 
BRANCH  17  18
ATOM     18  C   UNL     1       8.742   1.498  21.655  0.00  0.00    -0.000 C 
BRANCH  18  19
ATOM     19  C   UNL     1       7.524   1.813  22.514  0.00  0.00    -0.000 C 
BRANCH  19  20
ATOM     20  C   UNL     1       6.775   3.024  21.958  0.00  0.00    -0.000 C 
BRANCH  20  22
ATOM     21  C   UNL     1       7.409   5.450  22.134  0.00  0.00    +0.004 C 
ATOM     22  C   UNL     1       6.911   4.228  22.886  0.00  0.00    -0.003 C 
ENDBRANCH  20  22
ENDBRANCH  19  20
ENDBRANCH  18  19
ENDBRANCH  17  18
ENDBRANCH  16  17
ENDBRANCH  15  16
ENDBRANCH  14  15
ENDBRANCH  13  14
ENDBRANCH   1  13
TORSDOF 10
ENDMDL
MODEL 4
REMARK VINA RESULT:      -4.9      2.242      6.019
REMARK  Name = 
REMARK  11 active torsions:
REMARK  status: ('A' for Active; 'I' for Inactive)
REMARK    1  A    between atoms: C_1  and  C_2
REMARK    2  A    between atoms: C_2  and  C_3
REMARK    3  A    between atoms: C_3  and  C_4
REMARK    4  A    between atoms: C_4  and  C_5
REMARK    5  A    between atoms: C_5  and  C_6
REMARK    6  A    between atoms: C_6  and  C_7
REMARK    7  A    between atoms: C_7  and  C_8
REMARK    8  A    between atoms: C_8  and  C_9
REMARK    9  A    between atoms: C_9  and  C_10
REMARK   10  A    between atoms: C_10  and  N_11
REMARK   11  A    between atoms: N_14  and  C_15
REMARK                            x       y       z     vdW  Elec       q    Type
REMARK                         _______ _______ _______ _____ _____    ______ ____
ROOT
ATOM      1  N   UNL     1       8.360  -2.826  25.377  0.00  0.00    -0.299 N 
ATOM      2  H   UNL     1       8.101  -2.120  26.051  0.00  0.00    +0.150 HD
ATOM      3  C   UNL     1       9.365  -2.424  24.524  0.00  0.00    +0.300 C 
ATOM      4  N   UNL     1       9.333  -1.079  24.275  0.00  0.00    -0.297 N 
ATOM      5  H   UNL     1       8.412  -0.667  24.308  0.00  0.00    +0.151 HD
ATOM      6  O   UNL     1      10.217  -3.179  24.070  0.00  0.00    -0.253 OA
ENDROOT
BRANCH   4   7
ATOM      7  C   UNL     1      10.310  -0.497  23.356  0.00  0.00    +0.074 C 
ATOM      8  C   UNL     1      10.876   0.811  23.904  0.00  0.00    +0.022 C 
ATOM      9  C   UNL     1       9.852   1.942  23.901  0.00  0.00    +0.002 C 
ATOM     10  C   UNL     1       9.164   2.123  22.550  0.00  0.00    +0.000 C 
ATOM     11  C   UNL     1       8.677   0.821  21.919  0.00  0.00    +0.002 C 
ATOM     12  C   UNL     1       9.726  -0.288  21.954  0.00  0.00    +0.022 C 
ENDBRANCH   4   7
BRANCH   1  13
ATOM     13  C   UNL     1       8.474  -4.181  25.869  0.00  0.00    +0.106 C 
BRANCH  13  14
ATOM     14  C   UNL     1       7.217  -5.029  25.717  0.00  0.00    +0.019 C 
BRANCH  14  15
ATOM     15  C   UNL     1       5.953  -4.154  25.747  0.00  0.00    +0.002 C 
BRANCH  15  16
ATOM     16  C   UNL     1       4.704  -4.928  25.331  0.00  0.00    +0.000 C 
BRANCH  16  17
ATOM     17  C   UNL     1       5.009  -6.210  24.561  0.00  0.00    +0.000 C 
BRANCH  17  18
ATOM     18  C   UNL     1       4.763  -5.973  23.069  0.00  0.00    -0.000 C 
BRANCH  18  19
ATOM     19  C   UNL     1       6.035  -6.139  22.248  0.00  0.00    -0.000 C 
BRANCH  19  20
ATOM     20  C   UNL     1       6.280  -4.903  21.383  0.00  0.00    -0.000 C 
BRANCH  20  22
ATOM     21  C   UNL     1       6.175  -2.618  22.423  0.00  0.00    +0.004 C 
ATOM     22  C   UNL     1       7.045  -3.834  22.157  0.00  0.00    -0.003 C 
ENDBRANCH  20  22
ENDBRANCH  19  20
ENDBRANCH  18  19
ENDBRANCH  17  18
ENDBRANCH  16  17
ENDBRANCH  15  16
ENDBRANCH  14  15
ENDBRANCH  13  14
ENDBRANCH   1  13
TORSDOF 10
ENDMDL
MODEL 5
REMARK VINA RESULT:      -4.8      2.286      6.351
REMARK  Name = 
REMARK  11 active torsions:
REMARK  status: ('A' for Active; 'I' for Inactive)
REMARK    1  A    between atoms: C_1  and  C_2
REMARK    2  A    between atoms: C_2  and  C_3
REMARK    3  A    between atoms: C_3  and  C_4
REMARK    4  A    between atoms: C_4  and  C_5
REMARK    5  A    between atoms: C_5  and  C_6
REMARK    6  A    between atoms: C_6  and  C_7
REMARK    7  A    between atoms: C_7  and  C_8
REMARK    8  A    between atoms: C_8  and  C_9
REMARK    9  A    between atoms: C_9  and  C_10
REMARK   10  A    between atoms: C_10  and  N_11
REMARK   11  A    between atoms: N_14  and  C_15
REMARK                            x       y       z     vdW  Elec       q    Type
REMARK                         _______ _______ _______ _____ _____    ______ ____
ROOT
ATOM      1  N   UNL     1       8.457  -2.891  24.245  0.00  0.00    -0.299 N 
ATOM      2  H   UNL     1       7.974  -2.388  24.976  0.00  0.00    +0.150 HD
ATOM      3  C   UNL     1       9.498  -2.181  23.689  0.00  0.00    +0.300 C 
ATOM      4  N   UNL     1       9.270  -0.831  23.690  0.00  0.00    -0.297 N 
ATOM      5  H   UNL     1       8.297  -0.569  23.623  0.00  0.00    +0.151 HD
ATOM      6  O   UNL     1      10.530  -2.694  23.274  0.00  0.00    -0.253 OA
ENDROOT
BRANCH   4   7
ATOM      7  C   UNL     1      10.262   0.064  23.098  0.00  0.00    +0.074 C 
ATOM      8  C   UNL     1      10.654   1.178  24.067  0.00  0.00    +0.022 C 
ATOM      9  C   UNL     1       9.531   2.188  24.285  0.00  0.00    +0.002 C 
ATOM     10  C   UNL     1       8.947   2.726  22.981  0.00  0.00    +0.000 C 
ATOM     11  C   UNL     1       8.642   1.648  21.944  0.00  0.00    +0.002 C 
ATOM     12  C   UNL     1       9.784   0.650  21.765  0.00  0.00    +0.022 C 
ENDBRANCH   4   7
BRANCH   1  13
ATOM     13  C   UNL     1       8.728  -4.291  24.491  0.00  0.00    +0.106 C 
BRANCH  13  14
ATOM     14  C   UNL     1       8.904  -4.664  25.959  0.00  0.00    +0.019 C 
BRANCH  14  15
ATOM     15  C   UNL     1       7.637  -5.334  26.515  0.00  0.00    +0.002 C 
BRANCH  15  16
ATOM     16  C   UNL     1       6.502  -4.334  26.731  0.00  0.00    +0.000 C 
BRANCH  16  17
ATOM     17  C   UNL     1       5.267  -4.622  25.883  0.00  0.00    +0.000 C 
BRANCH  17  18
ATOM     18  C   UNL     1       5.351  -6.049  25.336  0.00  0.00    -0.000 C 
BRANCH  18  19
ATOM     19  C   UNL     1       5.282  -6.081  23.815  0.00  0.00    -0.000 C 
BRANCH  19  20
ATOM     20  C   UNL     1       5.187  -4.663  23.253  0.00  0.00    -0.000 C 
BRANCH  20  22
ATOM     21  C   UNL     1       6.725  -5.819  21.636  0.00  0.00    +0.004 C 
ATOM     22  C   UNL     1       6.014  -4.521  21.978  0.00  0.00    -0.003 C 
ENDBRANCH  20  22
ENDBRANCH  19  20
ENDBRANCH  18  19
ENDBRANCH  17  18
ENDBRANCH  16  17
ENDBRANCH  15  16
ENDBRANCH  14  15
ENDBRANCH  13  14
ENDBRANCH   1  13
TORSDOF 10
ENDMDL
MODEL 6
REMARK VINA RESULT:      -4.8      1.717      3.818
REMARK  Name = 
REMARK  11 active torsions:
REMARK  status: ('A' for Active; 'I' for Inactive)
REMARK    1  A    between atoms: C_1  and  C_2
REMARK    2  A    between atoms: C_2  and  C_3
REMARK    3  A    between atoms: C_3  and  C_4
REMARK    4  A    between atoms: C_4  and  C_5
REMARK    5  A    between atoms: C_5  and  C_6
REMARK    6  A    between atoms: C_6  and  C_7
REMARK    7  A    between atoms: C_7  and  C_8
REMARK    8  A    between atoms: C_8  and  C_9
REMARK    9  A    between atoms: C_9  and  C_10
REMARK   10  A    between atoms: C_10  and  N_11
REMARK   11  A    between atoms: N_14  and  C_15
REMARK                            x       y       z     vdW  Elec       q    Type
REMARK                         _______ _______ _______ _____ _____    ______ ____
ROOT
ATOM      1  N   UNL     1       8.404  -1.440  22.153  0.00  0.00    -0.299 N 
ATOM      2  H   UNL     1       7.837  -1.510  21.320  0.00  0.00    +0.150 HD
ATOM      3  C   UNL     1       8.603  -2.650  22.782  0.00  0.00    +0.300 C 
ATOM      4  N   UNL     1       7.542  -3.501  22.626  0.00  0.00    -0.297 N 
ATOM      5  H   UNL     1       6.646  -3.044  22.534  0.00  0.00    +0.151 HD
ATOM      6  O   UNL     1       9.629  -2.947  23.381  0.00  0.00    -0.253 OA
ENDROOT
BRANCH   4   7
ATOM      7  C   UNL     1       7.577  -4.814  23.267  0.00  0.00    +0.074 C 
ATOM      8  C   UNL     1       7.392  -5.935  22.246  0.00  0.00    +0.022 C 
ATOM      9  C   UNL     1       5.974  -5.988  21.684  0.00  0.00    +0.002 C 
ATOM     10  C   UNL     1       4.900  -6.002  22.768  0.00  0.00    +0.000 C 
ATOM     11  C   UNL     1       5.110  -4.963  23.867  0.00  0.00    +0.002 C 
ATOM     12  C   UNL     1       6.543  -4.932  24.393  0.00  0.00    +0.022 C 
ENDBRANCH   4   7
BRANCH   1  13
ATOM     13  C   UNL     1       9.570  -0.587  22.075  0.00  0.00    +0.106 C 
BRANCH  13  14
ATOM     14  C   UNL     1       9.324   0.784  21.455  0.00  0.00    +0.019 C 
BRANCH  14  15
ATOM     15  C   UNL     1      10.198   1.857  22.125  0.00  0.00    +0.002 C 
BRANCH  15  16
ATOM     16  C   UNL     1       9.382   2.788  23.021  0.00  0.00    +0.000 C 
BRANCH  16  17
ATOM     17  C   UNL     1       9.453   2.425  24.501  0.00  0.00    +0.000 C 
BRANCH  17  18
ATOM     18  C   UNL     1       8.042   2.126  25.015  0.00  0.00    -0.000 C 
BRANCH  18  19
ATOM     19  C   UNL     1       7.778   0.629  25.118  0.00  0.00    -0.000 C 
BRANCH  19  20
ATOM     20  C   UNL     1       9.031  -0.104  25.599  0.00  0.00    -0.000 C 
BRANCH  20  22
ATOM     21  C   UNL     1       7.971  -2.220  26.445  0.00  0.00    +0.004 C 
ATOM     22  C   UNL     1       8.729  -0.960  26.826  0.00  0.00    -0.003 C 
ENDBRANCH  20  22
ENDBRANCH  19  20
ENDBRANCH  18  19
ENDBRANCH  17  18
ENDBRANCH  16  17
ENDBRANCH  15  16
ENDBRANCH  14  15
ENDBRANCH  13  14
ENDBRANCH   1  13
TORSDOF 10
ENDMDL
MODEL 7
REMARK VINA RESULT:      -4.8      2.159      4.190
REMARK  Name = 
REMARK  11 active torsions:
REMARK  status: ('A' for Active; 'I' for Inactive)
REMARK    1  A    between atoms: C_1  and  C_2
REMARK    2  A    between atoms: C_2  and  C_3
REMARK    3  A    between atoms: C_3  and  C_4
REMARK    4  A    between atoms: C_4  and  C_5
REMARK    5  A    between atoms: C_5  and  C_6
REMARK    6  A    between atoms: C_6  and  C_7
REMARK    7  A    between atoms: C_7  and  C_8
REMARK    8  A    between atoms: C_8  and  C_9
REMARK    9  A    between atoms: C_9  and  C_10
REMARK   10  A    between atoms: C_10  and  N_11
REMARK   11  A    between atoms: N_14  and  C_15
REMARK                            x       y       z     vdW  Elec       q    Type
REMARK                         _______ _______ _______ _____ _____    ______ ____
ROOT
ATOM      1  N   UNL     1       9.855  -0.542  24.696  0.00  0.00    -0.299 N 
ATOM      2  H   UNL     1       9.000  -0.180  25.091  0.00  0.00    +0.150 HD
ATOM      3  C   UNL     1       9.652  -1.582  23.815  0.00  0.00    +0.300 C 
ATOM      4  N   UNL     1       8.559  -2.338  24.141  0.00  0.00    -0.297 N 
ATOM      5  H   UNL     1       8.354  -2.376  25.129  0.00  0.00    +0.151 HD
ATOM      6  O   UNL     1      10.348  -1.785  22.827  0.00  0.00    -0.253 OA
ENDROOT
BRANCH   4   7
ATOM      7  C   UNL     1       8.228  -3.507  23.328  0.00  0.00    +0.074 C 
ATOM      8  C   UNL     1       7.174  -3.169  22.275  0.00  0.00    +0.022 C 
ATOM      9  C   UNL     1       5.798  -2.910  22.882  0.00  0.00    +0.002 C 
ATOM     10  C   UNL     1       5.344  -4.018  23.829  0.00  0.00    +0.000 C 
ATOM     11  C   UNL     1       6.409  -4.458  24.830  0.00  0.00    +0.002 C 
ATOM     12  C   UNL     1       7.773  -4.693  24.186  0.00  0.00    +0.022 C 
ENDBRANCH   4   7
BRANCH   1  13
ATOM     13  C   UNL     1      10.843   0.431  24.283  0.00  0.00    +0.106 C 
BRANCH  13  14
ATOM     14  C   UNL     1      10.272   1.740  23.749  0.00  0.00    +0.019 C 
BRANCH  14  15
ATOM     15  C   UNL     1      10.236   1.740  22.212  0.00  0.00    +0.002 C 
BRANCH  15  16
ATOM     16  C   UNL     1       8.826   1.522  21.667  0.00  0.00    +0.000 C 
BRANCH  16  17
ATOM     17  C   UNL     1       7.854   2.643  22.023  0.00  0.00    +0.000 C 
BRANCH  17  18
ATOM     18  C   UNL     1       6.533   2.034  22.499  0.00  0.00    -0.000 C 
BRANCH  18  19
ATOM     19  C   UNL     1       6.735   0.671  23.147  0.00  0.00    -0.000 C 
BRANCH  19  20
ATOM     20  C   UNL     1       6.646   0.783  24.669  0.00  0.00    -0.000 C 
BRANCH  20  22
ATOM     21  C   UNL     1       6.257  -0.889  26.505  0.00  0.00    +0.004 C 
ATOM     22  C   UNL     1       5.693  -0.263  25.242  0.00  0.00    -0.003 C 
ENDBRANCH  20  22
ENDBRANCH  19  20
ENDBRANCH  18  19
ENDBRANCH  17  18
ENDBRANCH  16  17
ENDBRANCH  15  16
ENDBRANCH  14  15
ENDBRANCH  13  14
ENDBRANCH   1  13
TORSDOF 10
ENDMDL
MODEL 8
REMARK VINA RESULT:      -4.7      2.279      6.909
REMARK  Name = 
REMARK  11 active torsions:
REMARK  status: ('A' for Active; 'I' for Inactive)
REMARK    1  A    between atoms: C_1  and  C_2
REMARK    2  A    between atoms: C_2  and  C_3
REMARK    3  A    between atoms: C_3  and  C_4
REMARK    4  A    between atoms: C_4  and  C_5
REMARK    5  A    between atoms: C_5  and  C_6
REMARK    6  A    between atoms: C_6  and  C_7
REMARK    7  A    between atoms: C_7  and  C_8
REMARK    8  A    between atoms: C_8  and  C_9
REMARK    9  A    between atoms: C_9  and  C_10
REMARK   10  A    between atoms: C_10  and  N_11
REMARK   11  A    between atoms: N_14  and  C_15
REMARK                            x       y       z     vdW  Elec       q    Type
REMARK                         _______ _______ _______ _____ _____    ______ ____
ROOT
ATOM      1  N   UNL     1       8.257  -2.849  24.108  0.00  0.00    -0.299 N 
ATOM      2  H   UNL     1       7.735  -2.329  24.798  0.00  0.00    +0.150 HD
ATOM      3  C   UNL     1       9.357  -2.172  23.630  0.00  0.00    +0.300 C 
ATOM      4  N   UNL     1       9.168  -0.816  23.610  0.00  0.00    -0.297 N 
ATOM      5  H   UNL     1       8.211  -0.527  23.468  0.00  0.00    +0.151 HD
ATOM      6  O   UNL     1      10.403  -2.716  23.296  0.00  0.00    -0.253 OA
ENDROOT
BRANCH   4   7
ATOM      7  C   UNL     1      10.228   0.047  23.092  0.00  0.00    +0.074 C 
ATOM      8  C   UNL     1      10.643   1.096  24.122  0.00  0.00    +0.022 C 
ATOM      9  C   UNL     1       9.568   2.156  24.347  0.00  0.00    +0.002 C 
ATOM     10  C   UNL     1       9.062   2.780  23.049  0.00  0.00    +0.000 C 
ATOM     11  C   UNL     1       8.737   1.766  21.955  0.00  0.00    +0.002 C 
ATOM     12  C   UNL     1       9.829   0.716  21.771  0.00  0.00    +0.022 C 
ENDBRANCH   4   7
BRANCH   1  13
ATOM     13  C   UNL     1       8.469  -4.255  24.378  0.00  0.00    +0.106 C 
BRANCH  13  14
ATOM     14  C   UNL     1       7.831  -5.207  23.373  0.00  0.00    +0.019 C 
BRANCH  14  15
ATOM     15  C   UNL     1       6.506  -4.638  22.838  0.00  0.00    +0.002 C 
BRANCH  15  16
ATOM     16  C   UNL     1       5.540  -5.739  22.402  0.00  0.00    +0.000 C 
BRANCH  16  17
ATOM     17  C   UNL     1       4.275  -5.812  23.252  0.00  0.00    +0.000 C 
BRANCH  17  18
ATOM     18  C   UNL     1       4.438  -6.909  24.307  0.00  0.00    -0.000 C 
BRANCH  18  19
ATOM     19  C   UNL     1       4.347  -6.356  25.723  0.00  0.00    -0.000 C 
BRANCH  19  20
ATOM     20  C   UNL     1       5.740  -6.043  26.267  0.00  0.00    -0.000 C 
BRANCH  20  22
ATOM     21  C   UNL     1       5.161  -3.600  26.142  0.00  0.00    +0.004 C 
ATOM     22  C   UNL     1       5.755  -4.703  27.000  0.00  0.00    -0.003 C 
ENDBRANCH  20  22
ENDBRANCH  19  20
ENDBRANCH  18  19
ENDBRANCH  17  18
ENDBRANCH  16  17
ENDBRANCH  15  16
ENDBRANCH  14  15
ENDBRANCH  13  14
ENDBRANCH   1  13
TORSDOF 10
ENDMDL
MODEL 9
REMARK VINA RESULT:      -4.7      1.359      2.495
REMARK  Name = 
REMARK  11 active torsions:
REMARK  status: ('A' for Active; 'I' for Inactive)
REMARK    1  A    between atoms: C_1  and  C_2
REMARK    2  A    between atoms: C_2  and  C_3
REMARK    3  A    between atoms: C_3  and  C_4
REMARK    4  A    between atoms: C_4  and  C_5
REMARK    5  A    between atoms: C_5  and  C_6
REMARK    6  A    between atoms: C_6  and  C_7
REMARK    7  A    between atoms: C_7  and  C_8
REMARK    8  A    between atoms: C_8  and  C_9
REMARK    9  A    between atoms: C_9  and  C_10
REMARK   10  A    between atoms: C_10  and  N_11
REMARK   11  A    between atoms: N_14  and  C_15
REMARK                            x       y       z     vdW  Elec       q    Type
REMARK                         _______ _______ _______ _____ _____    ______ ____
ROOT
ATOM      1  N   UNL     1       6.654  -1.412  25.587  0.00  0.00    -0.299 N 
ATOM      2  H   UNL     1       6.445  -1.086  24.654  0.00  0.00    +0.150 HD
ATOM      3  C   UNL     1       7.050  -2.731  25.628  0.00  0.00    +0.300 C 
ATOM      4  N   UNL     1       6.463  -3.485  24.648  0.00  0.00    -0.297 N 
ATOM      5  H   UNL     1       5.543  -3.172  24.371  0.00  0.00    +0.151 HD
ATOM      6  O   UNL     1       7.868  -3.174  26.426  0.00  0.00    -0.253 OA
ENDROOT
BRANCH   4   7
ATOM      7  C   UNL     1       6.747  -4.917  24.578  0.00  0.00    +0.074 C 
ATOM      8  C   UNL     1       7.772  -5.226  23.489  0.00  0.00    +0.022 C 
ATOM      9  C   UNL     1       7.212  -5.032  22.082  0.00  0.00    +0.002 C 
ATOM     10  C   UNL     1       5.886  -5.756  21.861  0.00  0.00    +0.000 C 
ATOM     11  C   UNL     1       4.872  -5.557  22.984  0.00  0.00    +0.002 C 
ATOM     12  C   UNL     1       5.474  -5.747  24.374  0.00  0.00    +0.022 C 
ENDBRANCH   4   7
BRANCH   1  13
ATOM     13  C   UNL     1       7.408  -0.516  26.435  0.00  0.00    +0.106 C 
BRANCH  13  14
ATOM     14  C   UNL     1       8.651   0.087  25.789  0.00  0.00    +0.019 C 
BRANCH  14  15
ATOM     15  C   UNL     1       8.314   1.399  25.061  0.00  0.00    +0.002 C 
BRANCH  15  16
ATOM     16  C   UNL     1       9.554   2.064  24.466  0.00  0.00    +0.000 C 
BRANCH  16  17
ATOM     17  C   UNL     1       9.356   2.554  23.035  0.00  0.00    +0.000 C 
BRANCH  17  18
ATOM     18  C   UNL     1       9.982   1.548  22.066  0.00  0.00    -0.000 C 
BRANCH  18  19
ATOM     19  C   UNL     1       8.937   0.632  21.442  0.00  0.00    -0.000 C 
BRANCH  19  20
ATOM     20  C   UNL     1       9.408  -0.822  21.478  0.00  0.00    -0.000 C 
BRANCH  20  22
ATOM     21  C   UNL     1      10.010  -2.277  23.437  0.00  0.00    +0.004 C 
ATOM     22  C   UNL     1      10.390  -1.052  22.624  0.00  0.00    -0.003 C 
ENDBRANCH  20  22
ENDBRANCH  19  20
ENDBRANCH  18  19
ENDBRANCH  17  18
ENDBRANCH  16  17
ENDBRANCH  15  16
ENDBRANCH  14  15
ENDBRANCH  13  14
ENDBRANCH   1  13
TORSDOF 10
ENDMDL
