MODEL 1
REMARK VINA RESULT:      -6.4      0.000      0.000
REMARK  Name = 
REMARK  5 active torsions:
REMARK  status: ('A' for Active; 'I' for Inactive)
REMARK    1  A    between atoms: N_1  and  C_2
REMARK    2  A    between atoms: N_6  and  C1*_7
REMARK    3  A    between atoms: C3*_10  and  O3*_12
REMARK    4  A    between atoms: C4*_13  and  C5*_15
REMARK    5  A    between atoms: C5*_15  and  O5*_16
REMARK                            x       y       z     vdW  Elec       q    Type
REMARK                         _______ _______ _______ _____ _____    ______ ____
ROOT
ATOM      1  C   UNL     1       8.762  -4.953  25.221  0.00  0.00    +0.149 A 
ATOM      2  N   UNL     1       7.492  -5.276  25.545  0.00  0.00    -0.201 NA
ATOM      3  C   UNL     1       6.520  -4.402  25.215  0.00  0.00    +0.226 A 
ATOM      4 CL   UNL     1       4.934  -4.860  25.671  0.00  0.00    -0.041 Cl
ATOM      5  N   UNL     1       6.615  -3.215  24.584  0.00  0.00    -0.198 NA
ATOM      6  C   UNL     1       7.894  -2.953  24.271  0.00  0.00    +0.169 A 
ATOM      7  N   UNL     1       8.394  -1.843  23.641  0.00  0.00    -0.288 N 
ATOM      8  C   UNL     1       9.746  -2.024  23.514  0.00  0.00    +0.203 A 
ATOM      9  N   UNL     1      10.147  -3.158  24.051  0.00  0.00    -0.231 NA
ATOM     10  C   UNL     1       9.000  -3.746  24.537  0.00  0.00    +0.147 A 
ENDROOT
BRANCH   7  11
ATOM     11  C1* UNL     1       7.603  -0.712  23.203  0.00  0.00    +0.225 C 
ATOM     12  O4* UNL     1       8.332   0.059  22.222  0.00  0.00    -0.348 OA
ATOM     13  C4* UNL     1       7.937   1.450  22.371  0.00  0.00    +0.175 C 
ATOM     14  C3* UNL     1       6.964   1.523  23.547  0.00  0.00    +0.150 C 
ATOM     15  C2* UNL     1       7.264   0.265  24.320  0.00  0.00    +0.088 C 
BRANCH  14  16
ATOM     16  O3* UNL     1       5.622   1.448  23.061  0.00  0.00    -0.389 OA
ATOM     17  H3* UNL     1       5.300   2.360  22.932  0.00  0.00    +0.210 HD
ENDBRANCH  14  16
BRANCH  13  18
ATOM     18  C5* UNL     1       9.210   2.268  22.604  0.00  0.00    +0.190 C 
BRANCH  18  19
ATOM     19  O5* UNL     1      10.039   2.220  21.443  0.00  0.00    -0.392 OA
ATOM     20  H5* UNL     1       9.461   1.976  20.696  0.00  0.00    +0.210 HD
ENDBRANCH  18  19
ENDBRANCH  13  18
ENDBRANCH   7  11
BRANCH   1  21
ATOM     21  N   UNL     1       9.774  -5.835  25.572  0.00  0.00    -0.341 N 
ATOM     22  H   UNL     1      10.255  -6.224  24.772  0.00  0.00    +0.144 HD
ATOM     23  H   UNL     1      10.335  -5.528  26.360  0.00  0.00    +0.144 HD
ENDBRANCH   1  21
TORSDOF 5
ENDMDL
MODEL 2
REMARK VINA RESULT:      -6.2      2.161      2.652
REMARK  Name = 
REMARK  5 active torsions:
REMARK  status: ('A' for Active; 'I' for Inactive)
REMARK    1  A    between atoms: N_1  and  C_2
REMARK    2  A    between atoms: N_6  and  C1*_7
REMARK    3  A    between atoms: C3*_10  and  O3*_12
REMARK    4  A    between atoms: C4*_13  and  C5*_15
REMARK    5  A    between atoms: C5*_15  and  O5*_16
REMARK                            x       y       z     vdW  Elec       q    Type
REMARK                         _______ _______ _______ _____ _____    ______ ____
ROOT
ATOM      1  C   UNL     1       6.775  -5.153  24.768  0.00  0.00    +0.149 A 
ATOM      2  N   UNL     1       6.438  -5.659  23.563  0.00  0.00    -0.201 NA
ATOM      3  C   UNL     1       6.767  -4.945  22.469  0.00  0.00    +0.226 A 
ATOM      4 CL   UNL     1       6.295  -5.631  20.973  0.00  0.00    -0.041 Cl
ATOM      5  N   UNL     1       7.411  -3.764  22.381  0.00  0.00    -0.198 NA
ATOM      6  C   UNL     1       7.736  -3.316  23.604  0.00  0.00    +0.169 A 
ATOM      7  N   UNL     1       8.381  -2.151  23.928  0.00  0.00    -0.288 N 
ATOM      8  C   UNL     1       8.517  -2.128  25.291  0.00  0.00    +0.203 A 
ATOM      9  N   UNL     1       7.973  -3.184  25.861  0.00  0.00    -0.231 NA
ATOM     10  C   UNL     1       7.472  -3.932  24.818  0.00  0.00    +0.147 A 
ENDROOT
BRANCH   7  11
ATOM     11  C1* UNL     1       8.824  -1.156  22.973  0.00  0.00    +0.225 C 
ATOM     12  O4* UNL     1      10.152  -0.695  23.310  0.00  0.00    -0.348 OA
ATOM     13  C4* UNL     1      10.254   0.696  22.899  0.00  0.00    +0.175 C 
ATOM     14  C3* UNL     1       8.891   1.107  22.343  0.00  0.00    +0.150 C 
ATOM     15  C2* UNL     1       7.954   0.093  22.945  0.00  0.00    +0.088 C 
BRANCH  14  16
ATOM     16  O3* UNL     1       8.887   0.943  20.923  0.00  0.00    -0.389 OA
ATOM     17  H3* UNL     1       9.700   0.466  20.675  0.00  0.00    +0.210 HD
ENDBRANCH  14  16
BRANCH  13  18
ATOM     18  C5* UNL     1      10.661   1.510  24.130  0.00  0.00    +0.190 C 
BRANCH  18  19
ATOM     19  O5* UNL     1      10.652   0.678  25.289  0.00  0.00    -0.392 OA
ATOM     20  H5* UNL     1      11.396   0.971  25.849  0.00  0.00    +0.210 HD
ENDBRANCH  18  19
ENDBRANCH  13  18
ENDBRANCH   7  11
BRANCH   1  21
ATOM     21  N   UNL     1       6.423  -5.870  25.904  0.00  0.00    -0.341 N 
ATOM     22  H   UNL     1       7.103  -5.791  26.647  0.00  0.00    +0.144 HD
ATOM     23  H   UNL     1       5.441  -5.799  26.149  0.00  0.00    +0.144 HD
ENDBRANCH   1  21
TORSDOF 5
ENDMDL
MODEL 3
REMARK VINA RESULT:      -6.2      1.966      2.786
REMARK  Name = 
REMARK  5 active torsions:
REMARK  status: ('A' for Active; 'I' for Inactive)
REMARK    1  A    between atoms: N_1  and  C_2
REMARK    2  A    between atoms: N_6  and  C1*_7
REMARK    3  A    between atoms: C3*_10  and  O3*_12
REMARK    4  A    between atoms: C4*_13  and  C5*_15
REMARK    5  A    between atoms: C5*_15  and  O5*_16
REMARK                            x       y       z     vdW  Elec       q    Type
REMARK                         _______ _______ _______ _____ _____    ______ ____
ROOT
ATOM      1  C   UNL     1       5.946  -5.523  23.843  0.00  0.00    +0.149 A 
ATOM      2  N   UNL     1       6.019  -5.767  25.169  0.00  0.00    -0.201 NA
ATOM      3  C   UNL     1       6.641  -4.855  25.941  0.00  0.00    +0.226 A 
ATOM      4 CL   UNL     1       6.717  -5.232  27.609  0.00  0.00    -0.041 Cl
ATOM      5  N   UNL     1       7.219  -3.689  25.589  0.00  0.00    -0.198 NA
ATOM      6  C   UNL     1       7.102  -3.489  24.267  0.00  0.00    +0.169 A 
ATOM      7  N   UNL     1       7.572  -2.431  23.532  0.00  0.00    -0.288 N 
ATOM      8  C   UNL     1       7.200  -2.644  22.231  0.00  0.00    +0.203 A 
ATOM      9  N   UNL     1       6.553  -3.782  22.080  0.00  0.00    -0.231 NA
ATOM     10  C   UNL     1       6.493  -4.326  23.345  0.00  0.00    +0.147 A 
ENDROOT
BRANCH   7  11
ATOM     11  C1* UNL     1       8.318  -1.313  24.073  0.00  0.00    +0.225 C 
ATOM     12  O4* UNL     1       8.149  -0.148  23.236  0.00  0.00    -0.348 OA
ATOM     13  C4* UNL     1       9.376   0.629  23.307  0.00  0.00    +0.175 C 
ATOM     14  C3* UNL     1      10.355  -0.148  24.186  0.00  0.00    +0.150 C 
ATOM     15  C2* UNL     1       9.820  -1.556  24.137  0.00  0.00    +0.088 C 
BRANCH  14  16
ATOM     16  O3* UNL     1      10.267   0.325  25.531  0.00  0.00    -0.389 OA
ATOM     17  H3* UNL     1       9.323   0.377  25.768  0.00  0.00    +0.210 HD
ENDBRANCH  14  16
BRANCH  13  18
ATOM     18  C5* UNL     1       9.885   0.816  21.876  0.00  0.00    +0.190 C 
BRANCH  18  19
ATOM     19  O5* UNL     1       9.808   2.193  21.508  0.00  0.00    -0.392 OA
ATOM     20  H5* UNL     1       9.612   2.217  20.552  0.00  0.00    +0.210 HD
ENDBRANCH  18  19
ENDBRANCH  13  18
ENDBRANCH   7  11
BRANCH   1  21
ATOM     21  N   UNL     1       5.325  -6.466  23.035  0.00  0.00    -0.341 N 
ATOM     22  H   UNL     1       5.979  -7.085  22.576  0.00  0.00    +0.144 HD
ATOM     23  H   UNL     1       4.490  -6.874  23.443  0.00  0.00    +0.144 HD
ENDBRANCH   1  21
TORSDOF 5
ENDMDL
MODEL 4
REMARK VINA RESULT:      -6.2      2.020      2.285
REMARK  Name = 
REMARK  5 active torsions:
REMARK  status: ('A' for Active; 'I' for Inactive)
REMARK    1  A    between atoms: N_1  and  C_2
REMARK    2  A    between atoms: N_6  and  C1*_7
REMARK    3  A    between atoms: C3*_10  and  O3*_12
REMARK    4  A    between atoms: C4*_13  and  C5*_15
REMARK    5  A    between atoms: C5*_15  and  O5*_16
REMARK                            x       y       z     vdW  Elec       q    Type
REMARK                         _______ _______ _______ _____ _____    ______ ____
ROOT
ATOM      1  C   UNL     1       7.657  -4.532  25.256  0.00  0.00    +0.149 A 
ATOM      2  N   UNL     1       7.340  -5.222  24.140  0.00  0.00    -0.201 NA
ATOM      3  C   UNL     1       7.498  -4.602  22.954  0.00  0.00    +0.226 A 
ATOM      4 CL   UNL     1       7.061  -5.523  21.579  0.00  0.00    -0.041 Cl
ATOM      5  N   UNL     1       7.945  -3.357  22.693  0.00  0.00    -0.198 NA
ATOM      6  C   UNL     1       8.260  -2.725  23.834  0.00  0.00    +0.169 A 
ATOM      7  N   UNL     1       8.733  -1.446  23.983  0.00  0.00    -0.288 N 
ATOM      8  C   UNL     1       8.934  -1.242  25.322  0.00  0.00    +0.203 A 
ATOM      9  N   UNL     1       8.590  -2.291  26.041  0.00  0.00    -0.231 NA
ATOM     10  C   UNL     1       8.158  -3.224  25.123  0.00  0.00    +0.147 A 
ENDROOT
BRANCH   7  11
ATOM     11  C1* UNL     1       8.966  -0.517  22.896  0.00  0.00    +0.225 C 
ATOM     12  O4* UNL     1      10.251   0.126  23.055  0.00  0.00    -0.348 OA
ATOM     13  C4* UNL     1      10.145   1.466  22.502  0.00  0.00    +0.175 C 
ATOM     14  C3* UNL     1       8.699   1.656  22.044  0.00  0.00    +0.150 C 
ATOM     15  C2* UNL     1       7.949   0.613  22.831  0.00  0.00    +0.088 C 
BRANCH  14  16
ATOM     16  O3* UNL     1       8.594   1.339  20.654  0.00  0.00    -0.389 OA
ATOM     17  H3* UNL     1       7.647   1.301  20.427  0.00  0.00    +0.210 HD
ENDBRANCH  14  16
BRANCH  13  18
ATOM     18  C5* UNL     1      10.552   2.450  23.601  0.00  0.00    +0.190 C 
BRANCH  18  19
ATOM     19  O5* UNL     1      11.000   3.674  23.017  0.00  0.00    -0.392 OA
ATOM     20  H5* UNL     1      11.915   3.812  23.325  0.00  0.00    +0.210 HD
ENDBRANCH  18  19
ENDBRANCH  13  18
ENDBRANCH   7  11
BRANCH   1  21
ATOM     21  N   UNL     1       7.480  -5.153  26.485  0.00  0.00    -0.341 N 
ATOM     22  H   UNL     1       8.153  -4.856  27.178  0.00  0.00    +0.144 HD
ATOM     23  H   UNL     1       6.509  -5.236  26.770  0.00  0.00    +0.144 HD
ENDBRANCH   1  21
TORSDOF 5
ENDMDL
MODEL 5
REMARK VINA RESULT:      -6.1      3.553      6.001
REMARK  Name = 
REMARK  5 active torsions:
REMARK  status: ('A' for Active; 'I' for Inactive)
REMARK    1  A    between atoms: N_1  and  C_2
REMARK    2  A    between atoms: N_6  and  C1*_7
REMARK    3  A    between atoms: C3*_10  and  O3*_12
REMARK    4  A    between atoms: C4*_13  and  C5*_15
REMARK    5  A    between atoms: C5*_15  and  O5*_16
REMARK                            x       y       z     vdW  Elec       q    Type
REMARK                         _______ _______ _______ _____ _____    ______ ____
ROOT
ATOM      1  C   UNL     1       9.157   1.518  22.161  0.00  0.00    +0.149 A 
ATOM      2  N   UNL     1       7.997   2.185  22.338  0.00  0.00    -0.201 NA
ATOM      3  C   UNL     1       6.951   1.502  22.843  0.00  0.00    +0.226 A 
ATOM      4 CL   UNL     1       5.505   2.399  23.024  0.00  0.00    -0.041 Cl
ATOM      5  N   UNL     1       6.877   0.210  23.221  0.00  0.00    -0.198 NA
ATOM      6  C   UNL     1       8.060  -0.399  23.041  0.00  0.00    +0.169 A 
ATOM      7  N   UNL     1       8.377  -1.709  23.294  0.00  0.00    -0.288 N 
ATOM      8  C   UNL     1       9.701  -1.873  22.981  0.00  0.00    +0.203 A 
ATOM      9  N   UNL     1      10.240  -0.765  22.514  0.00  0.00    -0.231 NA
ATOM     10  C   UNL     1       9.222   0.163  22.538  0.00  0.00    +0.147 A 
ENDROOT
BRANCH   7  11
ATOM     11  C1* UNL     1       7.453  -2.702  23.801  0.00  0.00    +0.225 C 
ATOM     12  O4* UNL     1       7.586  -2.822  25.235  0.00  0.00    -0.348 OA
ATOM     13  C4* UNL     1       7.293  -4.200  25.592  0.00  0.00    +0.175 C 
ATOM     14  C3* UNL     1       7.032  -4.961  24.293  0.00  0.00    +0.150 C 
ATOM     15  C2* UNL     1       7.698  -4.100  23.251  0.00  0.00    +0.088 C 
BRANCH  14  16
ATOM     16  O3* UNL     1       5.627  -4.988  24.030  0.00  0.00    -0.389 OA
ATOM     17  H3* UNL     1       5.317  -5.903  24.160  0.00  0.00    +0.210 HD
ENDBRANCH  14  16
BRANCH  13  18
ATOM     18  C5* UNL     1       8.499  -4.742  26.364  0.00  0.00    +0.190 C 
BRANCH  18  19
ATOM     19  O5* UNL     1       8.110  -5.872  27.144  0.00  0.00    -0.392 OA
ATOM     20  H5* UNL     1       8.752  -5.941  27.875  0.00  0.00    +0.210 HD
ENDBRANCH  18  19
ENDBRANCH  13  18
ENDBRANCH   7  11
BRANCH   1  21
ATOM     21  N   UNL     1      10.236   2.206  21.623  0.00  0.00    -0.341 N 
ATOM     22  H   UNL     1       9.959   2.923  20.966  0.00  0.00    +0.144 HD
ATOM     23  H   UNL     1      10.959   2.434  22.298  0.00  0.00    +0.144 HD
ENDBRANCH   1  21
TORSDOF 5
ENDMDL
MODEL 6
REMARK VINA RESULT:      -6.0      3.708      5.954
REMARK  Name = 
REMARK  5 active torsions:
REMARK  status: ('A' for Active; 'I' for Inactive)
REMARK    1  A    between atoms: N_1  and  C_2
REMARK    2  A    between atoms: N_6  and  C1*_7
REMARK    3  A    between atoms: C3*_10  and  O3*_12
REMARK    4  A    between atoms: C4*_13  and  C5*_15
REMARK    5  A    between atoms: C5*_15  and  O5*_16
REMARK                            x       y       z     vdW  Elec       q    Type
REMARK                         _______ _______ _______ _____ _____    ______ ____
ROOT
ATOM      1  C   UNL     1       9.100   1.579  22.039  0.00  0.00    +0.149 A 
ATOM      2  N   UNL     1       8.057   2.325  22.464  0.00  0.00    -0.201 NA
ATOM      3  C   UNL     1       6.994   1.679  22.982  0.00  0.00    +0.226 A 
ATOM      4 CL   UNL     1       5.699   2.678  23.484  0.00  0.00    -0.041 Cl
ATOM      5  N   UNL     1       6.800   0.356  23.157  0.00  0.00    -0.198 NA
ATOM      6  C   UNL     1       7.872  -0.334  22.734  0.00  0.00    +0.169 A 
ATOM      7  N   UNL     1       8.048  -1.694  22.734  0.00  0.00    -0.288 N 
ATOM      8  C   UNL     1       9.300  -1.939  22.235  0.00  0.00    +0.203 A 
ATOM      9  N   UNL     1       9.921  -0.831  21.886  0.00  0.00    -0.231 NA
ATOM     10  C   UNL     1       9.035   0.181  22.184  0.00  0.00    +0.147 A 
ENDROOT
BRANCH   7  11
ATOM     11  C1* UNL     1       7.067  -2.657  23.190  0.00  0.00    +0.225 C 
ATOM     12  O4* UNL     1       7.668  -3.966  23.306  0.00  0.00    -0.348 OA
ATOM     13  C4* UNL     1       6.642  -4.951  23.009  0.00  0.00    +0.175 C 
ATOM     14  C3* UNL     1       5.373  -4.187  22.633  0.00  0.00    +0.150 C 
ATOM     15  C2* UNL     1       5.894  -2.831  22.235  0.00  0.00    +0.088 C 
BRANCH  14  16
ATOM     16  O3* UNL     1       4.547  -4.035  23.790  0.00  0.00    -0.389 OA
ATOM     17  H3* UNL     1       3.828  -3.416  23.565  0.00  0.00    +0.210 HD
ENDBRANCH  14  16
BRANCH  13  18
ATOM     18  C5* UNL     1       7.163  -5.830  21.870  0.00  0.00    +0.190 C 
BRANCH  18  19
ATOM     19  O5* UNL     1       6.068  -6.392  21.148  0.00  0.00    -0.392 OA
ATOM     20  H5* UNL     1       5.471  -6.790  21.810  0.00  0.00    +0.210 HD
ENDBRANCH  18  19
ENDBRANCH  13  18
ENDBRANCH   7  11
BRANCH   1  21
ATOM     21  N   UNL     1      10.192   2.233  21.485  0.00  0.00    -0.341 N 
ATOM     22  H   UNL     1      11.057   1.721  21.596  0.00  0.00    +0.144 HD
ATOM     23  H   UNL     1      10.005   2.659  20.583  0.00  0.00    +0.144 HD
ENDBRANCH   1  21
TORSDOF 5
ENDMDL
MODEL 7
REMARK VINA RESULT:      -5.9      5.430      6.484
REMARK  Name = 
REMARK  5 active torsions:
REMARK  status: ('A' for Active; 'I' for Inactive)
REMARK    1  A    between atoms: N_1  and  C_2
REMARK    2  A    between atoms: N_6  and  C1*_7
REMARK    3  A    between atoms: C3*_10  and  O3*_12
REMARK    4  A    between atoms: C4*_13  and  C5*_15
REMARK    5  A    between atoms: C5*_15  and  O5*_16
REMARK                            x       y       z     vdW  Elec       q    Type
REMARK                         _______ _______ _______ _____ _____    ______ ____
ROOT
ATOM      1  C   UNL     1       8.877  -5.358  25.248  0.00  0.00    +0.149 A 
ATOM      2  N   UNL     1       8.633  -5.348  23.921  0.00  0.00    -0.201 NA
ATOM      3  C   UNL     1       7.346  -5.338  23.520  0.00  0.00    +0.226 A 
ATOM      4 CL   UNL     1       7.104  -5.345  21.825  0.00  0.00    -0.041 Cl
ATOM      5  N   UNL     1       6.220  -5.330  24.261  0.00  0.00    -0.198 NA
ATOM      6  C   UNL     1       6.521  -5.323  25.569  0.00  0.00    +0.169 A 
ATOM      7  N   UNL     1       5.653  -5.329  26.630  0.00  0.00    -0.288 N 
ATOM      8  C   UNL     1       6.409  -5.294  27.772  0.00  0.00    +0.203 A 
ATOM      9  N   UNL     1       7.701  -5.302  27.512  0.00  0.00    -0.231 NA
ATOM     10  C   UNL     1       7.785  -5.329  26.137  0.00  0.00    +0.147 A 
ENDROOT
BRANCH   7  11
ATOM     11  C1* UNL     1       4.209  -5.361  26.520  0.00  0.00    +0.225 C 
ATOM     12  O4* UNL     1       3.770  -6.668  26.088  0.00  0.00    -0.348 OA
ATOM     13  C4* UNL     1       2.565  -6.489  25.294  0.00  0.00    +0.175 C 
ATOM     14  C3* UNL     1       2.306  -4.986  25.194  0.00  0.00    +0.150 C 
ATOM     15  C2* UNL     1       3.654  -4.384  25.492  0.00  0.00    +0.088 C 
BRANCH  14  16
ATOM     16  O3* UNL     1       1.394  -4.591  26.220  0.00  0.00    -0.389 OA
ATOM     17  H3* UNL     1       1.506  -3.633  26.367  0.00  0.00    +0.210 HD
ENDBRANCH  14  16
BRANCH  13  18
ATOM     18  C5* UNL     1       2.812  -7.140  23.931  0.00  0.00    +0.190 C 
BRANCH  18  19
ATOM     19  O5* UNL     1       4.183  -7.517  23.812  0.00  0.00    -0.392 OA
ATOM     20  H5* UNL     1       4.214  -8.489  23.894  0.00  0.00    +0.210 HD
ENDBRANCH  18  19
ENDBRANCH  13  18
ENDBRANCH   7  11
BRANCH   1  21
ATOM     21  N   UNL     1      10.198  -5.388  25.673  0.00  0.00    -0.341 N 
ATOM     22  H   UNL     1      10.413  -4.663  26.346  0.00  0.00    +0.144 HD
ATOM     23  H   UNL     1      10.553  -6.321  25.851  0.00  0.00    +0.144 HD
ENDBRANCH   1  21
TORSDOF 5
ENDMDL
MODEL 8
REMARK VINA RESULT:      -5.9      5.088      7.666
REMARK  Name = 
REMARK  5 active torsions:
REMARK  status: ('A' for Active; 'I' for Inactive)
REMARK    1  A    between atoms: N_1  and  C_2
REMARK    2  A    between atoms: N_6  and  C1*_7
REMARK    3  A    between atoms: C3*_10  and  O3*_12
REMARK    4  A    between atoms: C4*_13  and  C5*_15
REMARK    5  A    between atoms: C5*_15  and  O5*_16
REMARK                            x       y       z     vdW  Elec       q    Type
REMARK                         _______ _______ _______ _____ _____    ______ ____
ROOT
ATOM      1  C   UNL     1       7.757   5.824  22.310  0.00  0.00    +0.149 A 
ATOM      2  N   UNL     1       8.687   6.500  23.019  0.00  0.00    -0.201 NA
ATOM      3  C   UNL     1       9.459   5.797  23.871  0.00  0.00    +0.226 A 
ATOM      4 CL   UNL     1      10.603   6.714  24.754  0.00  0.00    -0.041 Cl
ATOM      5  N   UNL     1       9.456   4.475  24.135  0.00  0.00    -0.198 NA
ATOM      6  C   UNL     1       8.527   3.852  23.393  0.00  0.00    +0.169 A 
ATOM      7  N   UNL     1       8.212   2.517  23.388  0.00  0.00    -0.288 N 
ATOM      8  C   UNL     1       7.223   2.338  22.457  0.00  0.00    +0.203 A 
ATOM      9  N   UNL     1       6.861   3.472  21.893  0.00  0.00    -0.231 NA
ATOM     10  C   UNL     1       7.663   4.430  22.475  0.00  0.00    +0.147 A 
ENDROOT
BRANCH   7  11
ATOM     11  C1* UNL     1       8.839   1.515  24.225  0.00  0.00    +0.225 C 
ATOM     12  O4* UNL     1       9.753   0.712  23.445  0.00  0.00    -0.348 OA
ATOM     13  C4* UNL     1       9.759  -0.626  24.013  0.00  0.00    +0.175 C 
ATOM     14  C3* UNL     1       8.747  -0.640  25.157  0.00  0.00    +0.150 C 
ATOM     15  C2* UNL     1       7.853   0.531  24.840  0.00  0.00    +0.088 C 
BRANCH  14  16
ATOM     16  O3* UNL     1       9.418  -0.377  26.391  0.00  0.00    -0.389 OA
ATOM     17  H3* UNL     1       8.755  -0.411  27.105  0.00  0.00    +0.210 HD
ENDBRANCH  14  16
BRANCH  13  18
ATOM     18  C5* UNL     1       9.399  -1.604  22.892  0.00  0.00    +0.190 C 
BRANCH  18  19
ATOM     19  O5* UNL     1      10.439  -1.630  21.916  0.00  0.00    -0.392 OA
ATOM     20  H5* UNL     1      10.145  -1.064  21.178  0.00  0.00    +0.210 HD
ENDBRANCH  18  19
ENDBRANCH  13  18
ENDBRANCH   7  11
BRANCH   1  21
ATOM     21  N   UNL     1       6.943   6.540  21.444  0.00  0.00    -0.341 N 
ATOM     22  H   UNL     1       5.958   6.430  21.645  0.00  0.00    +0.144 HD
ATOM     23  H   UNL     1       7.283   7.473  21.233  0.00  0.00    +0.144 HD
ENDBRANCH   1  21
TORSDOF 5
ENDMDL
MODEL 9
REMARK VINA RESULT:      -5.8      5.497      7.347
REMARK  Name = 
REMARK  5 active torsions:
REMARK  status: ('A' for Active; 'I' for Inactive)
REMARK    1  A    between atoms: N_1  and  C_2
REMARK    2  A    between atoms: N_6  and  C1*_7
REMARK    3  A    between atoms: C3*_10  and  O3*_12
REMARK    4  A    between atoms: C4*_13  and  C5*_15
REMARK    5  A    between atoms: C5*_15  and  O5*_16
REMARK                            x       y       z     vdW  Elec       q    Type
REMARK                         _______ _______ _______ _____ _____    ______ ____
ROOT
ATOM      1  C   UNL     1       8.877  -5.350  25.293  0.00  0.00    +0.149 A 
ATOM      2  N   UNL     1       8.649  -5.198  23.971  0.00  0.00    -0.201 NA
ATOM      3  C   UNL     1       7.367  -5.190  23.553  0.00  0.00    +0.226 A 
ATOM      4 CL   UNL     1       7.145  -5.013  21.865  0.00  0.00    -0.041 Cl
ATOM      5  N   UNL     1       6.233  -5.308  24.272  0.00  0.00    -0.198 NA
ATOM      6  C   UNL     1       6.518  -5.439  25.577  0.00  0.00    +0.169 A 
ATOM      7  N   UNL     1       5.639  -5.597  26.617  0.00  0.00    -0.288 N 
ATOM      8  C   UNL     1       6.380  -5.665  27.768  0.00  0.00    +0.203 A 
ATOM      9  N   UNL     1       7.674  -5.596  27.529  0.00  0.00    -0.231 NA
ATOM     10  C   UNL     1       7.775  -5.463  26.161  0.00  0.00    +0.147 A 
ENDROOT
BRANCH   7  11
ATOM     11  C1* UNL     1       4.198  -5.669  26.481  0.00  0.00    +0.225 C 
ATOM     12  O4* UNL     1       3.566  -5.526  27.773  0.00  0.00    -0.348 OA
ATOM     13  C4* UNL     1       2.343  -6.311  27.755  0.00  0.00    +0.175 C 
ATOM     14  C3* UNL     1       2.272  -7.012  26.398  0.00  0.00    +0.150 C 
ATOM     15  C2* UNL     1       3.704  -6.999  25.930  0.00  0.00    +0.088 C 
BRANCH  14  16
ATOM     16  O3* UNL     1       1.491  -6.226  25.496  0.00  0.00    -0.389 OA
ATOM     17  H3* UNL     1       1.164  -6.816  24.792  0.00  0.00    +0.210 HD
ENDBRANCH  14  16
BRANCH  13  18
ATOM     18  C5* UNL     1       2.409  -7.294  28.926  0.00  0.00    +0.190 C 
BRANCH  18  19
ATOM     19  O5* UNL     1       3.771  -7.570  29.253  0.00  0.00    -0.392 OA
ATOM     20  H5* UNL     1       3.806  -7.693  30.221  0.00  0.00    +0.210 HD
ENDBRANCH  18  19
ENDBRANCH  13  18
ENDBRANCH   7  11
BRANCH   1  21
ATOM     21  N   UNL     1      10.193  -5.380  25.732  0.00  0.00    -0.341 N 
ATOM     22  H   UNL     1      10.586  -4.458  25.867  0.00  0.00    +0.144 HD
ATOM     23  H   UNL     1      10.376  -6.083  26.442  0.00  0.00    +0.144 HD
ENDBRANCH   1  21
TORSDOF 5
ENDMDL
