MODEL 1
REMARK VINA RESULT:      -6.4      0.000      0.000
REMARK  Name = 
REMARK  8 active torsions:
REMARK  status: ('A' for Active; 'I' for Inactive)
REMARK    1  A    between atoms: O_1  and  C_2
REMARK    2  A    between atoms: C_2  and  C_3
REMARK    3  A    between atoms: C_6  and  O_8
REMARK    4  A    between atoms: O_8  and  C_9
REMARK    5  A    between atoms: C_12  and  N_15
REMARK    6  A    between atoms: C_18  and  O_20
REMARK    7  A    between atoms: C_21  and  O_23
REMARK    8  A    between atoms: C_24  and  O_26
REMARK                            x       y       z     vdW  Elec       q    Type
REMARK                         _______ _______ _______ _____ _____    ______ ____
ROOT
ATOM      1  C   UNL     1       6.262  -4.728  24.374  0.00  0.00    +0.179 C 
ATOM      2  C   UNL     1       6.389  -5.702  25.552  0.00  0.00    +0.177 C 
ATOM      3  C   UNL     1       7.378  -5.145  26.582  0.00  0.00    +0.180 C 
ATOM      4  C   UNL     1       8.709  -4.745  25.939  0.00  0.00    +0.214 C 
ATOM      5  C   UNL     1       8.425  -3.799  24.750  0.00  0.00    +0.339 C 
ATOM      6  O   UNL     1       7.557  -4.458  23.816  0.00  0.00    -0.331 OA
ENDROOT
BRANCH   2   7
ATOM      7  O   UNL     1       5.098  -5.894  26.141  0.00  0.00    -0.386 OA
ATOM      8  H   UNL     1       4.428  -5.659  25.473  0.00  0.00    +0.210 HD
ENDBRANCH   2   7
BRANCH   3   9
ATOM      9  O   UNL     1       7.592  -6.112  27.619  0.00  0.00    -0.386 OA
ATOM     10  H   UNL     1       6.980  -6.853  27.428  0.00  0.00    +0.210 HD
ENDBRANCH   3   9
BRANCH   4  11
ATOM     11  O   UNL     1       9.520  -4.154  26.972  0.00  0.00    -0.383 OA
ATOM     12  H   UNL     1       8.943  -3.879  27.706  0.00  0.00    +0.210 HD
ENDBRANCH   4  11
BRANCH   1  13
ATOM     13  C   UNL     1       5.337  -5.314  23.293  0.00  0.00    +0.190 C 
BRANCH  13  14
ATOM     14  O   UNL     1       5.271  -6.731  23.417  0.00  0.00    -0.392 OA
ATOM     15  H   UNL     1       4.720  -6.910  24.199  0.00  0.00    +0.210 HD
ENDBRANCH  13  14
ENDBRANCH   1  13
BRANCH   5  16
ATOM     16  O   UNL     1       9.673  -3.455  24.132  0.00  0.00    -0.461 OA
BRANCH  16  17
ATOM     17  C   UNL     1       9.755  -2.165  23.675  0.00  0.00    +0.124 A 
ATOM     18  C   UNL     1       9.837  -1.802  22.328  0.00  0.00    +0.052 A 
ATOM     19  C   UNL     1       9.836  -0.456  21.955  0.00  0.00    +0.088 A 
ATOM     20  C   UNL     1       9.775   0.539  22.940  0.00  0.00    +0.273 A 
ATOM     21  C   UNL     1       9.753   0.185  24.297  0.00  0.00    +0.088 A 
ATOM     22  C   UNL     1       9.752  -1.169  24.659  0.00  0.00    +0.052 A 
BRANCH  20  23
ATOM     23  N   UNL     1       9.710   1.955  22.545  0.00  0.00    +0.080 N 
ATOM     24  O   UNL     1       8.764   2.311  21.825  0.00  0.00    +0.041 OA
ATOM     25  O   UNL     1      10.592   2.713  22.964  0.00  0.00    -0.576 OA
ENDBRANCH  20  23
ENDBRANCH  16  17
ENDBRANCH   5  16
TORSDOF 8
ENDMDL
MODEL 2
REMARK VINA RESULT:      -6.3      1.768      2.309
REMARK  Name = 
REMARK  8 active torsions:
REMARK  status: ('A' for Active; 'I' for Inactive)
REMARK    1  A    between atoms: O_1  and  C_2
REMARK    2  A    between atoms: C_2  and  C_3
REMARK    3  A    between atoms: C_6  and  O_8
REMARK    4  A    between atoms: O_8  and  C_9
REMARK    5  A    between atoms: C_12  and  N_15
REMARK    6  A    between atoms: C_18  and  O_20
REMARK    7  A    between atoms: C_21  and  O_23
REMARK    8  A    between atoms: C_24  and  O_26
REMARK                            x       y       z     vdW  Elec       q    Type
REMARK                         _______ _______ _______ _____ _____    ______ ____
ROOT
ATOM      1  C   UNL     1       6.913  -4.021  26.251  0.00  0.00    +0.179 C 
ATOM      2  C   UNL     1       7.916  -5.170  26.085  0.00  0.00    +0.177 C 
ATOM      3  C   UNL     1       9.247  -4.625  25.555  0.00  0.00    +0.180 C 
ATOM      4  C   UNL     1       9.053  -3.761  24.305  0.00  0.00    +0.214 C 
ATOM      5  C   UNL     1       7.994  -2.676  24.606  0.00  0.00    +0.339 C 
ATOM      6  O   UNL     1       6.771  -3.307  25.013  0.00  0.00    -0.331 OA
ENDROOT
BRANCH   2   7
ATOM      7  O   UNL     1       8.100  -5.815  27.350  0.00  0.00    -0.386 OA
ATOM      8  H   UNL     1       9.055  -5.818  27.547  0.00  0.00    +0.210 HD
ENDBRANCH   2   7
BRANCH   3   9
ATOM      9  O   UNL     1      10.140  -5.713  25.279  0.00  0.00    -0.386 OA
ATOM     10  H   UNL     1       9.607  -6.387  24.809  0.00  0.00    +0.210 HD
ENDBRANCH   3   9
BRANCH   4  11
ATOM     11  O   UNL     1      10.345  -3.230  23.951  0.00  0.00    -0.383 OA
ATOM     12  H   UNL     1      10.648  -3.662  23.132  0.00  0.00    +0.210 HD
ENDBRANCH   4  11
BRANCH   1  13
ATOM     13  C   UNL     1       5.547  -4.565  26.702  0.00  0.00    +0.190 C 
BRANCH  13  14
ATOM     14  O   UNL     1       5.416  -5.934  26.333  0.00  0.00    -0.392 OA
ATOM     15  H   UNL     1       4.461  -6.102  26.248  0.00  0.00    +0.210 HD
ENDBRANCH  13  14
ENDBRANCH   1  13
BRANCH   5  16
ATOM     16  O   UNL     1       7.794  -1.892  23.422  0.00  0.00    -0.461 OA
BRANCH  16  17
ATOM     17  C   UNL     1       8.436  -0.681  23.415  0.00  0.00    +0.124 A 
ATOM     18  C   UNL     1       9.051  -0.112  22.297  0.00  0.00    +0.052 A 
ATOM     19  C   UNL     1       9.611   1.166  22.368  0.00  0.00    +0.088 A 
ATOM     20  C   UNL     1       9.577   1.874  23.577  0.00  0.00    +0.273 A 
ATOM     21  C   UNL     1       9.017   1.286  24.720  0.00  0.00    +0.088 A 
ATOM     22  C   UNL     1       8.454   0.005  24.636  0.00  0.00    +0.052 A 
BRANCH  20  23
ATOM     23  N   UNL     1      10.111   3.243  23.636  0.00  0.00    +0.080 N 
ATOM     24  O   UNL     1       9.339   4.149  23.986  0.00  0.00    +0.041 OA
ATOM     25  O   UNL     1      11.302   3.413  23.349  0.00  0.00    -0.576 OA
ENDBRANCH  20  23
ENDBRANCH  16  17
ENDBRANCH   5  16
TORSDOF 8
ENDMDL
MODEL 3
REMARK VINA RESULT:      -6.0      2.957      7.008
REMARK  Name = 
REMARK  8 active torsions:
REMARK  status: ('A' for Active; 'I' for Inactive)
REMARK    1  A    between atoms: O_1  and  C_2
REMARK    2  A    between atoms: C_2  and  C_3
REMARK    3  A    between atoms: C_6  and  O_8
REMARK    4  A    between atoms: O_8  and  C_9
REMARK    5  A    between atoms: C_12  and  N_15
REMARK    6  A    between atoms: C_18  and  O_20
REMARK    7  A    between atoms: C_21  and  O_23
REMARK    8  A    between atoms: C_24  and  O_26
REMARK                            x       y       z     vdW  Elec       q    Type
REMARK                         _______ _______ _______ _____ _____    ______ ____
ROOT
ATOM      1  C   UNL     1       7.059   0.083  23.695  0.00  0.00    +0.179 C 
ATOM      2  C   UNL     1       7.967   1.087  22.973  0.00  0.00    +0.177 C 
ATOM      3  C   UNL     1       8.852   0.352  21.960  0.00  0.00    +0.180 C 
ATOM      4  C   UNL     1       9.587  -0.831  22.596  0.00  0.00    +0.214 C 
ATOM      5  C   UNL     1       8.557  -1.732  23.316  0.00  0.00    +0.339 C 
ATOM      6  O   UNL     1       7.849  -0.955  24.294  0.00  0.00    -0.331 OA
ENDROOT
BRANCH   2   7
ATOM      7  O   UNL     1       7.153   2.066  22.319  0.00  0.00    -0.386 OA
ATOM      8  H   UNL     1       6.307   1.643  22.085  0.00  0.00    +0.210 HD
ENDBRANCH   2   7
BRANCH   3   9
ATOM      9  O   UNL     1       9.787   1.271  21.379  0.00  0.00    -0.386 OA
ATOM     10  H   UNL     1      10.219   0.788  20.644  0.00  0.00    +0.210 HD
ENDBRANCH   3   9
BRANCH   4  11
ATOM     11  O   UNL     1      10.309  -1.499  21.544  0.00  0.00    -0.383 OA
ATOM     12  H   UNL     1      10.909  -2.154  21.941  0.00  0.00    +0.210 HD
ENDBRANCH   4  11
BRANCH   1  13
ATOM     13  C   UNL     1       6.225   0.796  24.774  0.00  0.00    +0.190 C 
BRANCH  13  14
ATOM     14  O   UNL     1       5.022   1.306  24.209  0.00  0.00    -0.392 OA
ATOM     15  H   UNL     1       4.748   2.048  24.776  0.00  0.00    +0.210 HD
ENDBRANCH  13  14
ENDBRANCH   1  13
BRANCH   5  16
ATOM     16  O   UNL     1       9.256  -2.820  23.936  0.00  0.00    -0.461 OA
BRANCH  16  17
ATOM     17  C   UNL     1       8.457  -3.729  24.579  0.00  0.00    +0.124 A 
ATOM     18  C   UNL     1       8.555  -4.058  25.933  0.00  0.00    +0.052 A 
ATOM     19  C   UNL     1       7.641  -4.938  26.518  0.00  0.00    +0.088 A 
ATOM     20  C   UNL     1       6.632  -5.514  25.735  0.00  0.00    +0.273 A 
ATOM     21  C   UNL     1       6.563  -5.237  24.362  0.00  0.00    +0.088 A 
ATOM     22  C   UNL     1       7.483  -4.350  23.788  0.00  0.00    +0.052 A 
BRANCH  20  23
ATOM     23  N   UNL     1       5.632  -6.392  26.363  0.00  0.00    +0.080 N 
ATOM     24  O   UNL     1       4.719  -6.831  25.648  0.00  0.00    +0.041 OA
ATOM     25  O   UNL     1       5.767  -6.656  27.564  0.00  0.00    -0.576 OA
ENDBRANCH  20  23
ENDBRANCH  16  17
ENDBRANCH   5  16
TORSDOF 8
ENDMDL
MODEL 4
REMARK VINA RESULT:      -5.9      1.806      2.509
REMARK  Name = 
REMARK  8 active torsions:
REMARK  status: ('A' for Active; 'I' for Inactive)
REMARK    1  A    between atoms: O_1  and  C_2
REMARK    2  A    between atoms: C_2  and  C_3
REMARK    3  A    between atoms: C_6  and  O_8
REMARK    4  A    between atoms: O_8  and  C_9
REMARK    5  A    between atoms: C_12  and  N_15
REMARK    6  A    between atoms: C_18  and  O_20
REMARK    7  A    between atoms: C_21  and  O_23
REMARK    8  A    between atoms: C_24  and  O_26
REMARK                            x       y       z     vdW  Elec       q    Type
REMARK                         _______ _______ _______ _____ _____    ______ ____
ROOT
ATOM      1  C   UNL     1       6.025  -3.598  24.077  0.00  0.00    +0.179 C 
ATOM      2  C   UNL     1       6.924  -4.810  24.349  0.00  0.00    +0.177 C 
ATOM      3  C   UNL     1       8.364  -4.345  24.589  0.00  0.00    +0.180 C 
ATOM      4  C   UNL     1       8.860  -3.421  23.473  0.00  0.00    +0.214 C 
ATOM      5  C   UNL     1       7.842  -2.273  23.285  0.00  0.00    +0.339 C 
ATOM      6  O   UNL     1       6.551  -2.827  22.986  0.00  0.00    -0.331 OA
ENDROOT
BRANCH   2   7
ATOM      7  O   UNL     1       6.423  -5.517  25.489  0.00  0.00    -0.386 OA
ATOM      8  H   UNL     1       5.461  -5.363  25.537  0.00  0.00    +0.210 HD
ENDBRANCH   2   7
BRANCH   3   9
ATOM      9  O   UNL     1       9.225  -5.485  24.716  0.00  0.00    -0.386 OA
ATOM     10  H   UNL     1      10.136  -5.152  24.577  0.00  0.00    +0.210 HD
ENDBRANCH   3   9
BRANCH   4  11
ATOM     11  O   UNL     1      10.178  -2.975  23.844  0.00  0.00    -0.383 OA
ATOM     12  H   UNL     1      10.189  -2.789  24.800  0.00  0.00    +0.210 HD
ENDBRANCH   4  11
BRANCH   1  13
ATOM     13  C   UNL     1       4.593  -4.056  23.752  0.00  0.00    +0.190 C 
BRANCH  13  14
ATOM     14  O   UNL     1       4.618  -5.311  23.080  0.00  0.00    -0.392 OA
ATOM     15  H   UNL     1       5.390  -5.286  22.487  0.00  0.00    +0.210 HD
ENDBRANCH  13  14
ENDBRANCH   1  13
BRANCH   5  16
ATOM     16  O   UNL     1       8.295  -1.431  22.217  0.00  0.00    -0.461 OA
BRANCH  16  17
ATOM     17  C   UNL     1       8.738  -0.193  22.605  0.00  0.00    +0.124 A 
ATOM     18  C   UNL     1       8.608   0.331  23.894  0.00  0.00    +0.052 A 
ATOM     19  C   UNL     1       9.163   1.571  24.216  0.00  0.00    +0.088 A 
ATOM     20  C   UNL     1       9.837   2.308  23.233  0.00  0.00    +0.273 A 
ATOM     21  C   UNL     1       9.921   1.818  21.921  0.00  0.00    +0.088 A 
ATOM     22  C   UNL     1       9.363   0.570  21.611  0.00  0.00    +0.052 A 
BRANCH  20  23
ATOM     23  N   UNL     1      10.477   3.585  23.586  0.00  0.00    +0.080 N 
ATOM     24  O   UNL     1       9.758   4.477  24.062  0.00  0.00    +0.041 OA
ATOM     25  O   UNL     1      11.695   3.691  23.405  0.00  0.00    -0.576 OA
ENDBRANCH  20  23
ENDBRANCH  16  17
ENDBRANCH   5  16
TORSDOF 8
ENDMDL
MODEL 5
REMARK VINA RESULT:      -5.9      3.203      7.449
REMARK  Name = 
REMARK  8 active torsions:
REMARK  status: ('A' for Active; 'I' for Inactive)
REMARK    1  A    between atoms: O_1  and  C_2
REMARK    2  A    between atoms: C_2  and  C_3
REMARK    3  A    between atoms: C_6  and  O_8
REMARK    4  A    between atoms: O_8  and  C_9
REMARK    5  A    between atoms: C_12  and  N_15
REMARK    6  A    between atoms: C_18  and  O_20
REMARK    7  A    between atoms: C_21  and  O_23
REMARK    8  A    between atoms: C_24  and  O_26
REMARK                            x       y       z     vdW  Elec       q    Type
REMARK                         _______ _______ _______ _____ _____    ______ ____
ROOT
ATOM      1  C   UNL     1       8.074   2.212  24.247  0.00  0.00    +0.179 C 
ATOM      2  C   UNL     1       9.176   2.809  23.364  0.00  0.00    +0.177 C 
ATOM      3  C   UNL     1       9.450   1.882  22.175  0.00  0.00    +0.180 C 
ATOM      4  C   UNL     1       9.702   0.439  22.622  0.00  0.00    +0.214 C 
ATOM      5  C   UNL     1       8.536  -0.014  23.530  0.00  0.00    +0.339 C 
ATOM      6  O   UNL     1       8.430   0.880  24.648  0.00  0.00    -0.331 OA
ENDROOT
BRANCH   2   7
ATOM      7  O   UNL     1       8.763   4.104  22.912  0.00  0.00    -0.386 OA
ATOM      8  H   UNL     1       8.063   3.977  22.246  0.00  0.00    +0.210 HD
ENDBRANCH   2   7
BRANCH   3   9
ATOM      9  O   UNL     1      10.566   2.376  21.422  0.00  0.00    -0.386 OA
ATOM     10  H   UNL     1      11.142   2.839  22.066  0.00  0.00    +0.210 HD
ENDBRANCH   3   9
BRANCH   4  11
ATOM     11  O   UNL     1       9.854  -0.356  21.430  0.00  0.00    -0.383 OA
ATOM     12  H   UNL     1      10.794  -0.582  21.321  0.00  0.00    +0.210 HD
ENDBRANCH   4  11
BRANCH   1  13
ATOM     13  C   UNL     1       7.847   3.090  25.489  0.00  0.00    +0.190 C 
BRANCH  13  14
ATOM     14  O   UNL     1       6.953   4.155  25.182  0.00  0.00    -0.392 OA
ATOM     15  H   UNL     1       7.192   4.462  24.289  0.00  0.00    +0.210 HD
ENDBRANCH  13  14
ENDBRANCH   1  13
BRANCH   5  16
ATOM     16  O   UNL     1       8.795  -1.355  23.971  0.00  0.00    -0.461 OA
BRANCH  16  17
ATOM     17  C   UNL     1       7.918  -2.297  23.502  0.00  0.00    +0.124 A 
ATOM     18  C   UNL     1       6.708  -2.011  22.864  0.00  0.00    +0.052 A 
ATOM     19  C   UNL     1       5.918  -3.040  22.347  0.00  0.00    +0.088 A 
ATOM     20  C   UNL     1       6.329  -4.372  22.489  0.00  0.00    +0.273 A 
ATOM     21  C   UNL     1       7.512  -4.673  23.181  0.00  0.00    +0.088 A 
ATOM     22  C   UNL     1       8.298  -3.632  23.692  0.00  0.00    +0.052 A 
BRANCH  20  23
ATOM     23  N   UNL     1       5.529  -5.452  21.890  0.00  0.00    +0.080 N 
ATOM     24  O   UNL     1       6.002  -6.043  20.907  0.00  0.00    +0.041 OA
ATOM     25  O   UNL     1       4.439  -5.720  22.410  0.00  0.00    -0.576 OA
ENDBRANCH  20  23
ENDBRANCH  16  17
ENDBRANCH   5  16
TORSDOF 8
ENDMDL
MODEL 6
REMARK VINA RESULT:      -5.9      3.032      7.114
REMARK  Name = 
REMARK  8 active torsions:
REMARK  status: ('A' for Active; 'I' for Inactive)
REMARK    1  A    between atoms: O_1  and  C_2
REMARK    2  A    between atoms: C_2  and  C_3
REMARK    3  A    between atoms: C_6  and  O_8
REMARK    4  A    between atoms: O_8  and  C_9
REMARK    5  A    between atoms: C_12  and  N_15
REMARK    6  A    between atoms: C_18  and  O_20
REMARK    7  A    between atoms: C_21  and  O_23
REMARK    8  A    between atoms: C_24  and  O_26
REMARK                            x       y       z     vdW  Elec       q    Type
REMARK                         _______ _______ _______ _____ _____    ______ ____
ROOT
ATOM      1  C   UNL     1       6.939   0.253  23.500  0.00  0.00    +0.179 C 
ATOM      2  C   UNL     1       7.997   1.207  22.930  0.00  0.00    +0.177 C 
ATOM      3  C   UNL     1       8.862   0.468  21.902  0.00  0.00    +0.180 C 
ATOM      4  C   UNL     1       9.420  -0.844  22.462  0.00  0.00    +0.214 C 
ATOM      5  C   UNL     1       8.253  -1.681  23.033  0.00  0.00    +0.339 C 
ATOM      6  O   UNL     1       7.570  -0.918  24.040  0.00  0.00    -0.331 OA
ENDROOT
BRANCH   2   7
ATOM      7  O   UNL     1       7.340   2.327  22.328  0.00  0.00    -0.386 OA
ATOM      8  H   UNL     1       6.671   2.654  22.957  0.00  0.00    +0.210 HD
ENDBRANCH   2   7
BRANCH   3   9
ATOM      9  O   UNL     1       9.928   1.322  21.465  0.00  0.00    -0.386 OA
ATOM     10  H   UNL     1       9.522   1.969  20.852  0.00  0.00    +0.210 HD
ENDBRANCH   3   9
BRANCH   4  11
ATOM     11  O   UNL     1      10.133  -1.493  21.392  0.00  0.00    -0.383 OA
ATOM     12  H   UNL     1      10.892  -1.973  21.767  0.00  0.00    +0.210 HD
ENDBRANCH   4  11
BRANCH   1  13
ATOM     13  C   UNL     1       6.118   0.957  24.594  0.00  0.00    +0.190 C 
BRANCH  13  14
ATOM     14  O   UNL     1       4.962   1.565  24.027  0.00  0.00    -0.392 OA
ATOM     15  H   UNL     1       4.214   1.306  24.594  0.00  0.00    +0.210 HD
ENDBRANCH  13  14
ENDBRANCH   1  13
BRANCH   5  16
ATOM     16  O   UNL     1       8.787  -2.892  23.585  0.00  0.00    -0.461 OA
BRANCH  16  17
ATOM     17  C   UNL     1       7.855  -3.745  24.117  0.00  0.00    +0.124 A 
ATOM     18  C   UNL     1       6.766  -4.271  23.417  0.00  0.00    +0.052 A 
ATOM     19  C   UNL     1       5.913  -5.198  24.022  0.00  0.00    +0.088 A 
ATOM     20  C   UNL     1       6.139  -5.586  25.350  0.00  0.00    +0.273 A 
ATOM     21  C   UNL     1       7.193  -5.018  26.080  0.00  0.00    +0.088 A 
ATOM     22  C   UNL     1       8.043  -4.092  25.461  0.00  0.00    +0.052 A 
BRANCH  20  23
ATOM     23  N   UNL     1       5.279  -6.608  25.967  0.00  0.00    +0.080 N 
ATOM     24  O   UNL     1       5.482  -6.890  27.158  0.00  0.00    +0.041 OA
ATOM     25  O   UNL     1       4.394  -7.117  25.270  0.00  0.00    -0.576 OA
ENDBRANCH  20  23
ENDBRANCH  16  17
ENDBRANCH   5  16
TORSDOF 8
ENDMDL
MODEL 7
REMARK VINA RESULT:      -5.9      2.416      3.812
REMARK  Name = 
REMARK  8 active torsions:
REMARK  status: ('A' for Active; 'I' for Inactive)
REMARK    1  A    between atoms: O_1  and  C_2
REMARK    2  A    between atoms: C_2  and  C_3
REMARK    3  A    between atoms: C_6  and  O_8
REMARK    4  A    between atoms: O_8  and  C_9
REMARK    5  A    between atoms: C_12  and  N_15
REMARK    6  A    between atoms: C_18  and  O_20
REMARK    7  A    between atoms: C_21  and  O_23
REMARK    8  A    between atoms: C_24  and  O_26
REMARK                            x       y       z     vdW  Elec       q    Type
REMARK                         _______ _______ _______ _____ _____    ______ ____
ROOT
ATOM      1  C   UNL     1       8.899  -3.714  24.857  0.00  0.00    +0.179 C 
ATOM      2  C   UNL     1       7.722  -4.330  24.091  0.00  0.00    +0.177 C 
ATOM      3  C   UNL     1       7.150  -3.305  23.105  0.00  0.00    +0.180 C 
ATOM      4  C   UNL     1       6.840  -1.969  23.786  0.00  0.00    +0.214 C 
ATOM      5  C   UNL     1       8.098  -1.491  24.547  0.00  0.00    +0.339 C 
ATOM      6  O   UNL     1       8.490  -2.495  25.495  0.00  0.00    -0.331 OA
ENDROOT
BRANCH   2   7
ATOM      7  O   UNL     1       8.174  -5.499  23.400  0.00  0.00    -0.386 OA
ATOM      8  H   UNL     1       8.797  -5.970  23.985  0.00  0.00    +0.210 HD
ENDBRANCH   2   7
BRANCH   3   9
ATOM      9  O   UNL     1       5.972  -3.837  22.483  0.00  0.00    -0.386 OA
ATOM     10  H   UNL     1       5.225  -3.598  23.070  0.00  0.00    +0.210 HD
ENDBRANCH   3   9
BRANCH   4  11
ATOM     11  O   UNL     1       6.400  -1.060  22.759  0.00  0.00    -0.383 OA
ATOM     12  H   UNL     1       5.994  -1.573  22.038  0.00  0.00    +0.210 HD
ENDBRANCH   4  11
BRANCH   1  13
ATOM     13  C   UNL     1       9.429  -4.704  25.909  0.00  0.00    +0.190 C 
BRANCH  13  14
ATOM     14  O   UNL     1      10.300  -5.651  25.299  0.00  0.00    -0.392 OA
ATOM     15  H   UNL     1       9.966  -5.783  24.394  0.00  0.00    +0.210 HD
ENDBRANCH  13  14
ENDBRANCH   1  13
BRANCH   5  16
ATOM     16  O   UNL     1       7.789  -0.256  25.209  0.00  0.00    -0.461 OA
BRANCH  16  17
ATOM     17  C   UNL     1       8.591   0.800  24.864  0.00  0.00    +0.124 A 
ATOM     18  C   UNL     1       9.883   0.683  24.343  0.00  0.00    +0.052 A 
ATOM     19  C   UNL     1      10.594   1.817  23.945  0.00  0.00    +0.088 A 
ATOM     20  C   UNL     1      10.017   3.086  24.091  0.00  0.00    +0.273 A 
ATOM     21  C   UNL     1       8.746   3.219  24.670  0.00  0.00    +0.088 A 
ATOM     22  C   UNL     1       8.041   2.073  25.062  0.00  0.00    +0.052 A 
BRANCH  20  23
ATOM     23  N   UNL     1      10.740   4.276  23.615  0.00  0.00    +0.080 N 
ATOM     24  O   UNL     1      10.165   5.372  23.699  0.00  0.00    +0.041 OA
ATOM     25  O   UNL     1      11.885   4.119  23.174  0.00  0.00    -0.576 OA
ENDBRANCH  20  23
ENDBRANCH  16  17
ENDBRANCH   5  16
TORSDOF 8
ENDMDL
MODEL 8
REMARK VINA RESULT:      -5.9      1.762      3.324
REMARK  Name = 
REMARK  8 active torsions:
REMARK  status: ('A' for Active; 'I' for Inactive)
REMARK    1  A    between atoms: O_1  and  C_2
REMARK    2  A    between atoms: C_2  and  C_3
REMARK    3  A    between atoms: C_6  and  O_8
REMARK    4  A    between atoms: O_8  and  C_9
REMARK    5  A    between atoms: C_12  and  N_15
REMARK    6  A    between atoms: C_18  and  O_20
REMARK    7  A    between atoms: C_21  and  O_23
REMARK    8  A    between atoms: C_24  and  O_26
REMARK                            x       y       z     vdW  Elec       q    Type
REMARK                         _______ _______ _______ _____ _____    ______ ____
ROOT
ATOM      1  C   UNL     1       6.190  -5.343  26.077  0.00  0.00    +0.179 C 
ATOM      2  C   UNL     1       5.001  -6.273  25.804  0.00  0.00    +0.177 C 
ATOM      3  C   UNL     1       5.088  -6.821  24.375  0.00  0.00    +0.180 C 
ATOM      4  C   UNL     1       5.275  -5.703  23.344  0.00  0.00    +0.214 C 
ATOM      5  C   UNL     1       6.477  -4.828  23.767  0.00  0.00    +0.339 C 
ATOM      6  O   UNL     1       6.245  -4.307  25.084  0.00  0.00    -0.331 OA
ENDROOT
BRANCH   2   7
ATOM      7  O   UNL     1       5.015  -7.340  26.757  0.00  0.00    -0.386 OA
ATOM      8  H   UNL     1       5.424  -7.004  27.576  0.00  0.00    +0.210 HD
ENDBRANCH   2   7
BRANCH   3   9
ATOM      9  O   UNL     1       3.913  -7.587  24.078  0.00  0.00    -0.386 OA
ATOM     10  H   UNL     1       4.222  -8.377  23.588  0.00  0.00    +0.210 HD
ENDBRANCH   3   9
BRANCH   4  11
ATOM     11  O   UNL     1       5.436  -6.332  22.059  0.00  0.00    -0.383 OA
ATOM     12  H   UNL     1       4.942  -5.821  21.394  0.00  0.00    +0.210 HD
ENDBRANCH   4  11
BRANCH   1  13
ATOM     13  C   UNL     1       6.071  -4.720  27.478  0.00  0.00    +0.190 C 
BRANCH  13  14
ATOM     14  O   UNL     1       6.748  -5.527  28.435  0.00  0.00    -0.392 OA
ATOM     15  H   UNL     1       6.072  -5.818  29.073  0.00  0.00    +0.210 HD
ENDBRANCH  13  14
ENDBRANCH   1  13
BRANCH   5  16
ATOM     16  O   UNL     1       6.625  -3.765  22.816  0.00  0.00    -0.461 OA
BRANCH  16  17
ATOM     17  C   UNL     1       7.549  -2.811  23.154  0.00  0.00    +0.124 A 
ATOM     18  C   UNL     1       8.873  -3.077  23.511  0.00  0.00    +0.052 A 
ATOM     19  C   UNL     1       9.765  -2.032  23.762  0.00  0.00    +0.088 A 
ATOM     20  C   UNL     1       9.322  -0.705  23.677  0.00  0.00    +0.273 A 
ATOM     21  C   UNL     1       7.980  -0.429  23.378  0.00  0.00    +0.088 A 
ATOM     22  C   UNL     1       7.096  -1.486  23.125  0.00  0.00    +0.052 A 
BRANCH  20  23
ATOM     23  N   UNL     1      10.276   0.397  23.879  0.00  0.00    +0.080 N 
ATOM     24  O   UNL     1      10.346   1.268  22.999  0.00  0.00    +0.041 OA
ATOM     25  O   UNL     1      10.941   0.402  24.921  0.00  0.00    -0.576 OA
ENDBRANCH  20  23
ENDBRANCH  16  17
ENDBRANCH   5  16
TORSDOF 8
ENDMDL
MODEL 9
REMARK VINA RESULT:      -5.7      2.829      7.234
REMARK  Name = 
REMARK  8 active torsions:
REMARK  status: ('A' for Active; 'I' for Inactive)
REMARK    1  A    between atoms: O_1  and  C_2
REMARK    2  A    between atoms: C_2  and  C_3
REMARK    3  A    between atoms: C_6  and  O_8
REMARK    4  A    between atoms: O_8  and  C_9
REMARK    5  A    between atoms: C_12  and  N_15
REMARK    6  A    between atoms: C_18  and  O_20
REMARK    7  A    between atoms: C_21  and  O_23
REMARK    8  A    between atoms: C_24  and  O_26
REMARK                            x       y       z     vdW  Elec       q    Type
REMARK                         _______ _______ _______ _____ _____    ______ ____
ROOT
ATOM      1  C   UNL     1       8.677   0.909  23.675  0.00  0.00    +0.179 C 
ATOM      2  C   UNL     1       9.671   0.441  22.604  0.00  0.00    +0.177 C 
ATOM      3  C   UNL     1       9.599  -1.084  22.461  0.00  0.00    +0.180 C 
ATOM      4  C   UNL     1       9.735  -1.792  23.812  0.00  0.00    +0.214 C 
ATOM      5  C   UNL     1       8.703  -1.194  24.796  0.00  0.00    +0.339 C 
ATOM      6  O   UNL     1       8.920   0.220  24.910  0.00  0.00    -0.331 OA
ENDROOT
BRANCH   2   7
ATOM      7  O   UNL     1       9.358   1.082  21.363  0.00  0.00    -0.386 OA
ATOM      8  H   UNL     1       8.563   1.629  21.502  0.00  0.00    +0.210 HD
ENDBRANCH   2   7
BRANCH   3   9
ATOM      9  O   UNL     1      10.616  -1.532  21.555  0.00  0.00    -0.386 OA
ATOM     10  H   UNL     1      10.230  -1.458  20.657  0.00  0.00    +0.210 HD
ENDBRANCH   3   9
BRANCH   4  11
ATOM     11  O   UNL     1       9.561  -3.202  23.573  0.00  0.00    -0.383 OA
ATOM     12  H   UNL     1       9.241  -3.329  22.662  0.00  0.00    +0.210 HD
ENDBRANCH   4  11
BRANCH   1  13
ATOM     13  C   UNL     1       8.798   2.428  23.889  0.00  0.00    +0.190 C 
BRANCH  13  14
ATOM     14  O   UNL     1      10.139   2.851  23.665  0.00  0.00    -0.392 OA
ATOM     15  H   UNL     1      10.084   3.764  23.332  0.00  0.00    +0.210 HD
ENDBRANCH  13  14
ENDBRANCH   1  13
BRANCH   5  16
ATOM     16  O   UNL     1       8.858  -1.839  26.068  0.00  0.00    -0.461 OA
BRANCH  16  17
ATOM     17  C   UNL     1       8.000  -2.884  26.294  0.00  0.00    +0.124 A 
ATOM     18  C   UNL     1       6.606  -2.791  26.262  0.00  0.00    +0.052 A 
ATOM     19  C   UNL     1       5.814  -3.930  26.426  0.00  0.00    +0.088 A 
ATOM     20  C   UNL     1       6.422  -5.173  26.647  0.00  0.00    +0.273 A 
ATOM     21  C   UNL     1       7.818  -5.267  26.742  0.00  0.00    +0.088 A 
ATOM     22  C   UNL     1       8.602  -4.117  26.572  0.00  0.00    +0.052 A 
BRANCH  20  23
ATOM     23  N   UNL     1       5.591  -6.382  26.758  0.00  0.00    +0.080 N 
ATOM     24  O   UNL     1       4.935  -6.724  25.762  0.00  0.00    +0.041 OA
ATOM     25  O   UNL     1       5.606  -6.998  27.830  0.00  0.00    -0.576 OA
ENDBRANCH  20  23
ENDBRANCH  16  17
ENDBRANCH   5  16
TORSDOF 8
ENDMDL
