MODEL 1
REMARK VINA RESULT:      -6.5      0.000      0.000
REMARK  Name = 
REMARK  7 active torsions:
REMARK  status: ('A' for Active; 'I' for Inactive)
REMARK    1  A    between atoms: C_1  and  C_2
REMARK    2  A    between atoms: C_10  and  C_33
REMARK    3  A    between atoms: C_12  and  C_19
REMARK    4  A    between atoms: C_14  and  C_16
REMARK    5  A    between atoms: C_16  and  O_17
REMARK    6  A    between atoms: N_21  and  C_22
REMARK    7  A    between atoms: C_25  and  C_28
REMARK                            x       y       z     vdW  Elec       q    Type
REMARK                         _______ _______ _______ _____ _____    ______ ____
ROOT
ATOM      1  C   UNL     1      11.799   3.920  23.126  0.00  0.00    +0.044 C 
ATOM      2  C   UNL     1      10.568   3.066  23.248  0.00  0.00    -0.050 A 
ATOM      3  C   UNL     1       9.793   3.136  24.414  0.00  0.00    +0.015 A 
ATOM      4  C   UNL     1       8.676   2.322  24.496  0.00  0.00    +0.032 A 
ATOM      5  C   UNL     1       8.320   1.457  23.473  0.00  0.00    +0.031 A 
ATOM      6  C   UNL     1       7.110   0.718  23.843  0.00  0.00    +0.204 C 
ATOM      7  C   UNL     1       6.693   1.145  25.247  0.00  0.00    +0.208 C 
ATOM      8  C   UNL     1       6.662  -0.064  26.161  0.00  0.00    +0.159 C 
ATOM      9  C   UNL     1       5.223  -0.187  26.613  0.00  0.00    +0.126 C 
ATOM     10  C   UNL     1       4.489   1.031  26.069  0.00  0.00    +0.163 C 
ATOM     11  O   UNL     1       5.390   1.719  25.195  0.00  0.00    -0.348 OA
ATOM     12  O   UNL     1       6.535  -0.111  23.155  0.00  0.00    -0.288 OA
ATOM     13  C   UNL     1       9.060   1.371  22.310  0.00  0.00    +0.012 A 
ATOM     14  C   UNL     1       7.711   2.231  25.588  0.00  0.00    +0.204 C 
ATOM     15  O   UNL     1       7.703   2.945  26.571  0.00  0.00    -0.288 OA
ATOM     16  C   UNL     1      10.193   2.188  22.204  0.00  0.00    +0.004 A 
ENDROOT
BRANCH  10  17
ATOM     17  C   UNL     1       3.999   1.929  27.190  0.00  0.00    -0.017 A 
ATOM     18  C   UNL     1       4.130   3.325  27.056  0.00  0.00    +0.027 A 
ATOM     19  C   UNL     1       3.639   4.195  28.035  0.00  0.00    +0.060 A 
ATOM     20 CL   UNL     1       3.800   5.890  27.753  0.00  0.00    -0.082 Cl
ATOM     21  C   UNL     1       3.030   3.675  29.179  0.00  0.00    +0.059 A 
ATOM     22 CL   UNL     1       2.367   4.681  30.415  0.00  0.00    -0.082 Cl
ATOM     23  C   UNL     1       2.935   2.291  29.344  0.00  0.00    +0.022 A 
ATOM     24  C   UNL     1       3.421   1.424  28.361  0.00  0.00    +0.008 A 
ENDBRANCH  10  17
BRANCH   9  25
ATOM     25  C   UNL     1       4.568  -1.461  26.122  0.00  0.00    +0.224 C 
ATOM     26  N   UNL     1       5.387  -2.369  25.475  0.00  0.00    -0.285 N 
ATOM     27  H   UNL     1       6.388  -2.357  25.676  0.00  0.00    +0.155 HD
ATOM     28  O   UNL     1       3.375  -1.634  26.369  0.00  0.00    -0.275 OA
BRANCH  26  29
ATOM     29  C   UNL     1       4.877  -3.601  25.019  0.00  0.00    +0.033 A 
ATOM     30  C   UNL     1       4.780  -4.646  25.933  0.00  0.00    +0.024 A 
ATOM     31  C   UNL     1       4.076  -5.802  25.588  0.00  0.00    +0.012 A 
ATOM     32  C   UNL     1       3.523  -5.949  24.306  0.00  0.00    +0.003 A 
ATOM     33  C   UNL     1       3.733  -4.937  23.360  0.00  0.00    +0.012 A 
ATOM     34  C   UNL     1       4.403  -3.767  23.716  0.00  0.00    +0.024 A 
BRANCH  32  35
ATOM     35  C   UNL     1       2.678  -7.082  23.961  0.00  0.00    +0.102 A 
ATOM     36  N   UNL     1       2.752  -8.273  24.678  0.00  0.00    -0.141 NA
ATOM     37  N   UNL     1       1.943  -9.197  24.191  0.00  0.00    -0.110 NA
ATOM     38  S   UNL     1       1.063  -8.659  22.877  0.00  0.00    +0.029 S 
ATOM     39  C   UNL     1       1.772  -7.097  22.915  0.00  0.00    +0.097 A 
ENDBRANCH  32  35
ENDBRANCH  26  29
ENDBRANCH   9  25
BRANCH   8  40
ATOM     40  C   UNL     1       7.698   0.006  27.254  0.00  0.00    +0.312 C 
ATOM     41  O   UNL     1       8.786  -0.540  27.110  0.00  0.00    -0.251 OA
BRANCH  40  42
ATOM     42  O   UNL     1       7.422   0.747  28.337  0.00  0.00    -0.480 OA
ATOM     43  H   UNL     1       7.101   1.660  28.215  0.00  0.00    +0.295 HD
ENDBRANCH  40  42
ENDBRANCH   8  40
TORSDOF 6
ENDMDL
MODEL 2
REMARK VINA RESULT:      -6.2      3.272      4.111
REMARK  Name = 
REMARK  7 active torsions:
REMARK  status: ('A' for Active; 'I' for Inactive)
REMARK    1  A    between atoms: C_1  and  C_2
REMARK    2  A    between atoms: C_10  and  C_33
REMARK    3  A    between atoms: C_12  and  C_19
REMARK    4  A    between atoms: C_14  and  C_16
REMARK    5  A    between atoms: C_16  and  O_17
REMARK    6  A    between atoms: N_21  and  C_22
REMARK    7  A    between atoms: C_25  and  C_28
REMARK                            x       y       z     vdW  Elec       q    Type
REMARK                         _______ _______ _______ _____ _____    ______ ____
ROOT
ATOM      1  C   UNL     1      12.440   6.003  23.245  0.00  0.00    +0.044 C 
ATOM      2  C   UNL     1      11.385   4.945  23.415  0.00  0.00    -0.050 A 
ATOM      3  C   UNL     1      10.055   5.328  23.633  0.00  0.00    +0.015 A 
ATOM      4  C   UNL     1       9.115   4.326  23.803  0.00  0.00    +0.032 A 
ATOM      5  C   UNL     1       9.458   2.983  23.766  0.00  0.00    +0.031 A 
ATOM      6  C   UNL     1       8.267   2.159  23.988  0.00  0.00    +0.204 C 
ATOM      7  C   UNL     1       7.075   3.082  24.217  0.00  0.00    +0.208 C 
ATOM      8  C   UNL     1       6.459   2.797  25.573  0.00  0.00    +0.159 C 
ATOM      9  C   UNL     1       5.050   2.330  25.282  0.00  0.00    +0.126 C 
ATOM     10  C   UNL     1       4.836   2.492  23.783  0.00  0.00    +0.163 C 
ATOM     11  O   UNL     1       6.097   2.845  23.206  0.00  0.00    -0.348 OA
ATOM     12  O   UNL     1       8.230   0.938  24.003  0.00  0.00    -0.288 OA
ATOM     13  C   UNL     1      10.758   2.576  23.546  0.00  0.00    +0.012 A 
ATOM     14  C   UNL     1       7.678   4.470  24.021  0.00  0.00    +0.204 C 
ATOM     15  O   UNL     1       7.073   5.525  23.994  0.00  0.00    -0.288 OA
ATOM     16  C   UNL     1      11.726   3.573  23.369  0.00  0.00    +0.004 A 
ENDROOT
BRANCH  10  17
ATOM     17  C   UNL     1       3.771   3.531  23.484  0.00  0.00    -0.017 A 
ATOM     18  C   UNL     1       4.127   4.689  22.766  0.00  0.00    +0.027 A 
ATOM     19  C   UNL     1       3.168   5.645  22.415  0.00  0.00    +0.060 A 
ATOM     20 CL   UNL     1       3.694   7.002  21.486  0.00  0.00    -0.082 Cl
ATOM     21  C   UNL     1       1.839   5.467  22.804  0.00  0.00    +0.059 A 
ATOM     22 CL   UNL     1       0.592   6.582  22.379  0.00  0.00    -0.082 Cl
ATOM     23  C   UNL     1       1.483   4.345  23.556  0.00  0.00    +0.022 A 
ATOM     24  C   UNL     1       2.442   3.388  23.899  0.00  0.00    +0.008 A 
ENDBRANCH  10  17
BRANCH   9  25
ATOM     25  C   UNL     1       4.819   0.891  25.695  0.00  0.00    +0.224 C 
ATOM     26  N   UNL     1       5.795  -0.022  25.336  0.00  0.00    -0.285 N 
ATOM     27  H   UNL     1       6.746   0.316  25.176  0.00  0.00    +0.155 HD
ATOM     28  O   UNL     1       3.817   0.630  26.360  0.00  0.00    -0.275 OA
BRANCH  26  29
ATOM     29  C   UNL     1       5.690  -1.375  25.712  0.00  0.00    +0.033 A 
ATOM     30  C   UNL     1       6.705  -1.916  26.495  0.00  0.00    +0.024 A 
ATOM     31  C   UNL     1       6.533  -3.175  27.076  0.00  0.00    +0.012 A 
ATOM     32  C   UNL     1       5.375  -3.928  26.824  0.00  0.00    +0.003 A 
ATOM     33  C   UNL     1       4.416  -3.418  25.939  0.00  0.00    +0.012 A 
ATOM     34  C   UNL     1       4.571  -2.146  25.389  0.00  0.00    +0.024 A 
BRANCH  32  35
ATOM     35  C   UNL     1       5.110  -5.181  27.515  0.00  0.00    +0.102 A 
ATOM     36  N   UNL     1       6.133  -6.094  27.754  0.00  0.00    -0.141 NA
ATOM     37  N   UNL     1       5.693  -7.188  28.351  0.00  0.00    -0.110 NA
ATOM     38  S   UNL     1       4.051  -7.142  28.656  0.00  0.00    +0.029 S 
ATOM     39  C   UNL     1       3.864  -5.584  27.962  0.00  0.00    +0.097 A 
ENDBRANCH  32  35
ENDBRANCH  26  29
ENDBRANCH   9  25
BRANCH   8  40
ATOM     40  C   UNL     1       6.590   3.957  26.527  0.00  0.00    +0.312 C 
ATOM     41  O   UNL     1       7.568   4.046  27.261  0.00  0.00    -0.251 OA
BRANCH  40  42
ATOM     42  O   UNL     1       5.656   4.917  26.484  0.00  0.00    -0.480 OA
ATOM     43  H   UNL     1       5.369   5.336  27.317  0.00  0.00    +0.295 HD
ENDBRANCH  40  42
ENDBRANCH   8  40
TORSDOF 6
ENDMDL
MODEL 3
REMARK VINA RESULT:      -5.2      4.220      6.467
REMARK  Name = 
REMARK  7 active torsions:
REMARK  status: ('A' for Active; 'I' for Inactive)
REMARK    1  A    between atoms: C_1  and  C_2
REMARK    2  A    between atoms: C_10  and  C_33
REMARK    3  A    between atoms: C_12  and  C_19
REMARK    4  A    between atoms: C_14  and  C_16
REMARK    5  A    between atoms: C_16  and  O_17
REMARK    6  A    between atoms: N_21  and  C_22
REMARK    7  A    between atoms: C_25  and  C_28
REMARK                            x       y       z     vdW  Elec       q    Type
REMARK                         _______ _______ _______ _____ _____    ______ ____
ROOT
ATOM      1  C   UNL     1       0.856   7.072  20.683  0.00  0.00    +0.044 C 
ATOM      2  C   UNL     1       1.515   6.138  21.659  0.00  0.00    -0.050 A 
ATOM      3  C   UNL     1       2.911   6.139  21.778  0.00  0.00    +0.015 A 
ATOM      4  C   UNL     1       3.483   5.253  22.675  0.00  0.00    +0.032 A 
ATOM      5  C   UNL     1       2.718   4.382  23.437  0.00  0.00    +0.031 A 
ATOM      6  C   UNL     1       3.590   3.560  24.279  0.00  0.00    +0.204 C 
ATOM      7  C   UNL     1       5.039   3.937  23.989  0.00  0.00    +0.208 C 
ATOM      8  C   UNL     1       5.801   2.714  23.516  0.00  0.00    +0.159 C 
ATOM      9  C   UNL     1       6.882   2.491  24.550  0.00  0.00    +0.126 C 
ATOM     10  C   UNL     1       6.813   3.666  25.515  0.00  0.00    +0.163 C 
ATOM     11  O   UNL     1       5.646   4.426  25.183  0.00  0.00    -0.348 OA
ATOM     12  O   UNL     1       3.226   2.707  25.073  0.00  0.00    -0.288 OA
ATOM     13  C   UNL     1       1.341   4.363  23.346  0.00  0.00    +0.012 A 
ATOM     14  C   UNL     1       4.899   5.081  22.988  0.00  0.00    +0.204 C 
ATOM     15  O   UNL     1       5.796   5.778  22.557  0.00  0.00    -0.288 OA
ATOM     16  C   UNL     1       0.740   5.254  22.446  0.00  0.00    +0.004 A 
ENDROOT
BRANCH  10  17
ATOM     17  C   UNL     1       8.071   4.513  25.448  0.00  0.00    -0.017 A 
ATOM     18  C   UNL     1       9.124   4.109  24.606  0.00  0.00    +0.027 A 
ATOM     19  C   UNL     1      10.278   4.888  24.465  0.00  0.00    +0.060 A 
ATOM     20 CL   UNL     1      11.488   4.334  23.366  0.00  0.00    -0.082 Cl
ATOM     21  C   UNL     1      10.403   6.074  25.191  0.00  0.00    +0.059 A 
ATOM     22 CL   UNL     1      11.778   7.108  25.046  0.00  0.00    -0.082 Cl
ATOM     23  C   UNL     1       9.385   6.462  26.065  0.00  0.00    +0.022 A 
ATOM     24  C   UNL     1       8.230   5.685  26.198  0.00  0.00    +0.008 A 
ENDBRANCH  10  17
BRANCH   9  25
ATOM     25  C   UNL     1       6.709   1.184  25.296  0.00  0.00    +0.224 C 
ATOM     26  N   UNL     1       6.845   0.024  24.555  0.00  0.00    -0.285 N 
ATOM     27  H   UNL     1       7.404   0.052  23.700  0.00  0.00    +0.155 HD
ATOM     28  O   UNL     1       6.511   1.229  26.510  0.00  0.00    -0.275 OA
BRANCH  26  29
ATOM     29  C   UNL     1       6.743  -1.239  25.169  0.00  0.00    +0.033 A 
ATOM     30  C   UNL     1       7.868  -1.746  25.812  0.00  0.00    +0.024 A 
ATOM     31  C   UNL     1       7.750  -2.879  26.622  0.00  0.00    +0.012 A 
ATOM     32  C   UNL     1       6.522  -3.549  26.740  0.00  0.00    +0.003 A 
ATOM     33  C   UNL     1       5.428  -3.095  25.994  0.00  0.00    +0.012 A 
ATOM     34  C   UNL     1       5.536  -1.943  25.215  0.00  0.00    +0.024 A 
BRANCH  32  35
ATOM     35  C   UNL     1       6.338  -4.651  27.674  0.00  0.00    +0.102 A 
ATOM     36  N   UNL     1       7.268  -5.684  27.752  0.00  0.00    -0.141 NA
ATOM     37  N   UNL     1       6.909  -6.612  28.622  0.00  0.00    -0.110 NA
ATOM     38  S   UNL     1       5.461  -6.262  29.378  0.00  0.00    +0.029 S 
ATOM     39  C   UNL     1       5.254  -4.789  28.523  0.00  0.00    +0.097 A 
ENDBRANCH  32  35
ENDBRANCH  26  29
ENDBRANCH   9  25
BRANCH   8  40
ATOM     40  C   UNL     1       6.264   2.834  22.086  0.00  0.00    +0.312 C 
ATOM     41  O   UNL     1       5.476   2.658  21.164  0.00  0.00    -0.251 OA
BRANCH  40  42
ATOM     42  O   UNL     1       7.529   3.219  21.864  0.00  0.00    -0.480 OA
ATOM     43  H   UNL     1       7.856   3.264  20.946  0.00  0.00    +0.295 HD
ENDBRANCH  40  42
ENDBRANCH   8  40
TORSDOF 6
ENDMDL
MODEL 4
REMARK VINA RESULT:      -4.6      5.668      7.654
REMARK  Name = 
REMARK  7 active torsions:
REMARK  status: ('A' for Active; 'I' for Inactive)
REMARK    1  A    between atoms: C_1  and  C_2
REMARK    2  A    between atoms: C_10  and  C_33
REMARK    3  A    between atoms: C_12  and  C_19
REMARK    4  A    between atoms: C_14  and  C_16
REMARK    5  A    between atoms: C_16  and  O_17
REMARK    6  A    between atoms: N_21  and  C_22
REMARK    7  A    between atoms: C_25  and  C_28
REMARK                            x       y       z     vdW  Elec       q    Type
REMARK                         _______ _______ _______ _____ _____    ______ ____
ROOT
ATOM      1  C   UNL     1      10.066  -3.360  24.355  0.00  0.00    +0.044 C 
ATOM      2  C   UNL     1       9.192  -2.189  24.004  0.00  0.00    -0.050 A 
ATOM      3  C   UNL     1       8.777  -1.313  25.017  0.00  0.00    +0.015 A 
ATOM      4  C   UNL     1       7.959  -0.255  24.659  0.00  0.00    +0.032 A 
ATOM      5  C   UNL     1       7.549  -0.053  23.350  0.00  0.00    +0.031 A 
ATOM      6  C   UNL     1       6.685   1.128  23.275  0.00  0.00    +0.204 C 
ATOM      7  C   UNL     1       6.518   1.695  24.681  0.00  0.00    +0.208 C 
ATOM      8  C   UNL     1       5.048   1.718  25.051  0.00  0.00    +0.159 C 
ATOM      9  C   UNL     1       4.711   3.178  25.263  0.00  0.00    +0.126 C 
ATOM     10  C   UNL     1       6.020   3.949  25.152  0.00  0.00    +0.163 C 
ATOM     11  O   UNL     1       7.023   3.028  24.712  0.00  0.00    -0.348 OA
ATOM     12  O   UNL     1       6.171   1.580  22.263  0.00  0.00    -0.288 OA
ATOM     13  C   UNL     1       7.948  -0.894  22.331  0.00  0.00    +0.012 A 
ATOM     14  C   UNL     1       7.417   0.793  25.520  0.00  0.00    +0.204 C 
ATOM     15  O   UNL     1       7.692   0.937  26.696  0.00  0.00    -0.288 OA
ATOM     16  C   UNL     1       8.778  -1.971  22.670  0.00  0.00    +0.004 A 
ENDROOT
BRANCH  10  17
ATOM     17  C   UNL     1       6.394   4.598  26.472  0.00  0.00    -0.017 A 
ATOM     18  C   UNL     1       6.042   3.956  27.675  0.00  0.00    +0.027 A 
ATOM     19  C   UNL     1       6.418   4.486  28.914  0.00  0.00    +0.060 A 
ATOM     20 CL   UNL     1       5.986   3.596  30.329  0.00  0.00    -0.082 Cl
ATOM     21  C   UNL     1       7.131   5.685  28.966  0.00  0.00    +0.059 A 
ATOM     22 CL   UNL     1       7.662   6.384  30.452  0.00  0.00    -0.082 Cl
ATOM     23  C   UNL     1       7.445   6.354  27.781  0.00  0.00    +0.022 A 
ATOM     24  C   UNL     1       7.075   5.819  26.544  0.00  0.00    +0.008 A 
ENDBRANCH  10  17
BRANCH   9  25
ATOM     25  C   UNL     1       3.708   3.694  24.253  0.00  0.00    +0.224 C 
ATOM     26  N   UNL     1       4.165   3.871  22.959  0.00  0.00    -0.285 N 
ATOM     27  H   UNL     1       4.969   3.324  22.645  0.00  0.00    +0.155 HD
ATOM     28  O   UNL     1       2.548   3.875  24.624  0.00  0.00    -0.275 OA
BRANCH  26  29
ATOM     29  C   UNL     1       3.296   4.307  21.940  0.00  0.00    +0.033 A 
ATOM     30  C   UNL     1       3.125   5.678  21.771  0.00  0.00    +0.024 A 
ATOM     31  C   UNL     1       2.458   6.156  20.639  0.00  0.00    +0.012 A 
ATOM     32  C   UNL     1       1.902   5.267  19.707  0.00  0.00    +0.003 A 
ATOM     33  C   UNL     1       1.981   3.891  19.953  0.00  0.00    +0.012 A 
ATOM     34  C   UNL     1       2.679   3.413  21.063  0.00  0.00    +0.024 A 
BRANCH  32  35
ATOM     35  C   UNL     1       1.317   5.734  18.458  0.00  0.00    +0.102 A 
ATOM     36  N   UNL     1       0.928   4.832  17.472  0.00  0.00    -0.141 NA
ATOM     37  N   UNL     1       0.461   5.443  16.396  0.00  0.00    -0.110 NA
ATOM     38  S   UNL     1       0.462   7.107  16.547  0.00  0.00    +0.029 S 
ATOM     39  C   UNL     1       1.121   7.064  18.131  0.00  0.00    +0.097 A 
ENDBRANCH  32  35
ENDBRANCH  26  29
ENDBRANCH   9  25
BRANCH   8  40
ATOM     40  C   UNL     1       4.720   0.789  26.192  0.00  0.00    +0.312 C 
ATOM     41  O   UNL     1       4.434  -0.382  25.973  0.00  0.00    -0.251 OA
BRANCH  40  42
ATOM     42  O   UNL     1       4.835   1.261  27.442  0.00  0.00    -0.480 OA
ATOM     43  H   UNL     1       5.177   0.672  28.140  0.00  0.00    +0.295 HD
ENDBRANCH  40  42
ENDBRANCH   8  40
TORSDOF 6
ENDMDL
MODEL 5
REMARK VINA RESULT:      -4.2      5.132      6.925
REMARK  Name = 
REMARK  7 active torsions:
REMARK  status: ('A' for Active; 'I' for Inactive)
REMARK    1  A    between atoms: C_1  and  C_2
REMARK    2  A    between atoms: C_10  and  C_33
REMARK    3  A    between atoms: C_12  and  C_19
REMARK    4  A    between atoms: C_14  and  C_16
REMARK    5  A    between atoms: C_16  and  O_17
REMARK    6  A    between atoms: N_21  and  C_22
REMARK    7  A    between atoms: C_25  and  C_28
REMARK                            x       y       z     vdW  Elec       q    Type
REMARK                         _______ _______ _______ _____ _____    ______ ____
ROOT
ATOM      1  C   UNL     1       0.445   7.107  17.447  0.00  0.00    +0.044 C 
ATOM      2  C   UNL     1       0.947   6.077  18.421  0.00  0.00    -0.050 A 
ATOM      3  C   UNL     1       1.143   6.436  19.762  0.00  0.00    +0.015 A 
ATOM      4  C   UNL     1       1.622   5.466  20.626  0.00  0.00    +0.032 A 
ATOM      5  C   UNL     1       1.908   4.178  20.199  0.00  0.00    +0.031 A 
ATOM      6  C   UNL     1       2.408   3.381  21.322  0.00  0.00    +0.204 C 
ATOM      7  C   UNL     1       2.467   4.271  22.559  0.00  0.00    +0.208 C 
ATOM      8  C   UNL     1       3.887   4.315  23.089  0.00  0.00    +0.159 C 
ATOM      9  C   UNL     1       3.814   3.718  24.477  0.00  0.00    +0.126 C 
ATOM     10  C   UNL     1       2.341   3.476  24.773  0.00  0.00    +0.163 C 
ATOM     11  O   UNL     1       1.614   3.731  23.566  0.00  0.00    -0.348 OA
ATOM     12  O   UNL     1       2.736   2.205  21.279  0.00  0.00    -0.288 OA
ATOM     13  C   UNL     1       1.717   3.794  18.886  0.00  0.00    +0.012 A 
ATOM     14  C   UNL     1       1.886   5.589  22.057  0.00  0.00    +0.204 C 
ATOM     15  O   UNL     1       1.628   6.569  22.729  0.00  0.00    -0.288 OA
ATOM     16  C   UNL     1       1.231   4.759  17.995  0.00  0.00    +0.004 A 
ENDROOT
BRANCH  10  17
ATOM     17  C   UNL     1       1.854   4.348  25.916  0.00  0.00    -0.017 A 
ATOM     18  C   UNL     1       2.268   4.050  27.229  0.00  0.00    +0.027 A 
ATOM     19  C   UNL     1       1.894   4.860  28.306  0.00  0.00    +0.060 A 
ATOM     20 CL   UNL     1       2.497   4.441  29.868  0.00  0.00    -0.082 Cl
ATOM     21  C   UNL     1       1.075   5.968  28.086  0.00  0.00    +0.059 A 
ATOM     22 CL   UNL     1       0.600   7.037  29.356  0.00  0.00    -0.082 Cl
ATOM     23  C   UNL     1       0.621   6.248  26.795  0.00  0.00    +0.022 A 
ATOM     24  C   UNL     1       1.001   5.441  25.719  0.00  0.00    +0.008 A 
ENDBRANCH  10  17
BRANCH   9  25
ATOM     25  C   UNL     1       4.595   2.426  24.594  0.00  0.00    +0.224 C 
ATOM     26  N   UNL     1       5.806   2.370  23.926  0.00  0.00    -0.285 N 
ATOM     27  H   UNL     1       6.295   3.244  23.726  0.00  0.00    +0.155 HD
ATOM     28  O   UNL     1       4.139   1.532  25.306  0.00  0.00    -0.275 OA
BRANCH  26  29
ATOM     29  C   UNL     1       6.623   1.226  24.009  0.00  0.00    +0.033 A 
ATOM     30  C   UNL     1       7.418   1.072  25.140  0.00  0.00    +0.024 A 
ATOM     31  C   UNL     1       8.065  -0.146  25.370  0.00  0.00    +0.012 A 
ATOM     32  C   UNL     1       7.974  -1.191  24.438  0.00  0.00    +0.003 A 
ATOM     33  C   UNL     1       7.266  -0.978  23.248  0.00  0.00    +0.012 A 
ATOM     34  C   UNL     1       6.590   0.223  23.037  0.00  0.00    +0.024 A 
BRANCH  32  35
ATOM     35  C   UNL     1       8.529  -2.510  24.709  0.00  0.00    +0.102 A 
ATOM     36  N   UNL     1       9.748  -2.898  24.163  0.00  0.00    -0.141 NA
ATOM     37  N   UNL     1      10.065  -4.140  24.485  0.00  0.00    -0.110 NA
ATOM     38  S   UNL     1       8.920  -4.866  25.462  0.00  0.00    +0.029 S 
ATOM     39  C   UNL     1       7.913  -3.477  25.485  0.00  0.00    +0.097 A 
ENDBRANCH  32  35
ENDBRANCH  26  29
ENDBRANCH   9  25
BRANCH   8  40
ATOM     40  C   UNL     1       4.503   5.687  22.988  0.00  0.00    +0.312 C 
ATOM     41  O   UNL     1       4.313   6.517  23.869  0.00  0.00    -0.251 OA
BRANCH  40  42
ATOM     42  O   UNL     1       5.325   5.934  21.957  0.00  0.00    -0.480 OA
ATOM     43  H   UNL     1       6.289   5.894  22.101  0.00  0.00    +0.295 HD
ENDBRANCH  40  42
ENDBRANCH   8  40
TORSDOF 6
ENDMDL
MODEL 6
REMARK VINA RESULT:      -4.0      1.820      2.285
REMARK  Name = 
REMARK  7 active torsions:
REMARK  status: ('A' for Active; 'I' for Inactive)
REMARK    1  A    between atoms: C_1  and  C_2
REMARK    2  A    between atoms: C_10  and  C_33
REMARK    3  A    between atoms: C_12  and  C_19
REMARK    4  A    between atoms: C_14  and  C_16
REMARK    5  A    between atoms: C_16  and  O_17
REMARK    6  A    between atoms: N_21  and  C_22
REMARK    7  A    between atoms: C_25  and  C_28
REMARK                            x       y       z     vdW  Elec       q    Type
REMARK                         _______ _______ _______ _____ _____    ______ ____
ROOT
ATOM      1  C   UNL     1      10.534   5.859  24.257  0.00  0.00    +0.044 C 
ATOM      2  C   UNL     1       9.409   4.865  24.338  0.00  0.00    -0.050 A 
ATOM      3  C   UNL     1       8.485   4.956  25.388  0.00  0.00    +0.015 A 
ATOM      4  C   UNL     1       7.472   4.013  25.439  0.00  0.00    +0.032 A 
ATOM      5  C   UNL     1       7.360   3.003  24.495  0.00  0.00    +0.031 A 
ATOM      6  C   UNL     1       6.209   2.154  24.810  0.00  0.00    +0.204 C 
ATOM      7  C   UNL     1       5.563   2.669  26.092  0.00  0.00    +0.208 C 
ATOM      8  C   UNL     1       5.556   1.571  27.139  0.00  0.00    +0.159 C 
ATOM      9  C   UNL     1       4.096   1.306  27.431  0.00  0.00    +0.126 C 
ATOM     10  C   UNL     1       3.299   2.349  26.659  0.00  0.00    +0.163 C 
ATOM     11  O   UNL     1       4.218   3.054  25.818  0.00  0.00    -0.348 OA
ATOM     12  O   UNL     1       5.832   1.186  24.167  0.00  0.00    -0.288 OA
ATOM     13  C   UNL     1       8.250   2.894  23.446  0.00  0.00    +0.012 A 
ATOM     14  C   UNL     1       6.390   3.911  26.414  0.00  0.00    +0.204 C 
ATOM     15  O   UNL     1       6.168   4.719  27.294  0.00  0.00    -0.288 OA
ATOM     16  C   UNL     1       9.282   3.839  23.373  0.00  0.00    +0.004 A 
ENDROOT
BRANCH  10  17
ATOM     17  C   UNL     1       2.562   3.289  27.597  0.00  0.00    -0.017 A 
ATOM     18  C   UNL     1       3.297   4.026  28.545  0.00  0.00    +0.027 A 
ATOM     19  C   UNL     1       2.669   4.948  29.389  0.00  0.00    +0.060 A 
ATOM     20 CL   UNL     1       3.665   5.841  30.480  0.00  0.00    -0.082 Cl
ATOM     21  C   UNL     1       1.287   5.125  29.311  0.00  0.00    +0.059 A 
ATOM     22 CL   UNL     1       0.443   6.269  30.292  0.00  0.00    -0.082 Cl
ATOM     23  C   UNL     1       0.541   4.367  28.406  0.00  0.00    +0.022 A 
ATOM     24  C   UNL     1       1.172   3.451  27.560  0.00  0.00    +0.008 A 
ENDBRANCH  10  17
BRANCH   9  25
ATOM     25  C   UNL     1       3.668  -0.090  27.028  0.00  0.00    +0.224 C 
ATOM     26  N   UNL     1       4.679  -0.997  26.766  0.00  0.00    -0.285 N 
ATOM     27  H   UNL     1       5.593  -0.850  27.197  0.00  0.00    +0.155 HD
ATOM     28  O   UNL     1       2.464  -0.346  27.006  0.00  0.00    -0.275 OA
BRANCH  26  29
ATOM     29  C   UNL     1       4.380  -2.330  26.424  0.00  0.00    +0.033 A 
ATOM     30  C   UNL     1       4.033  -3.205  27.448  0.00  0.00    +0.024 A 
ATOM     31  C   UNL     1       3.512  -4.464  27.136  0.00  0.00    +0.012 A 
ATOM     32  C   UNL     1       3.397  -4.880  25.800  0.00  0.00    +0.003 A 
ATOM     33  C   UNL     1       3.861  -4.033  24.786  0.00  0.00    +0.012 A 
ATOM     34  C   UNL     1       4.346  -2.762  25.095  0.00  0.00    +0.024 A 
BRANCH  32  35
ATOM     35  C   UNL     1       2.742  -6.128  25.440  0.00  0.00    +0.102 A 
ATOM     36  N   UNL     1       1.371  -6.292  25.617  0.00  0.00    -0.141 NA
ATOM     37  N   UNL     1       0.967  -7.503  25.276  0.00  0.00    -0.110 NA
ATOM     38  S   UNL     1       2.212  -8.467  24.719  0.00  0.00    +0.029 S 
ATOM     39  C   UNL     1       3.392  -7.239  24.929  0.00  0.00    +0.097 A 
ENDBRANCH  32  35
ENDBRANCH  26  29
ENDBRANCH   9  25
BRANCH   8  40
ATOM     40  C   UNL     1       6.424   1.895  28.328  0.00  0.00    +0.312 C 
ATOM     41  O   UNL     1       5.932   2.394  29.334  0.00  0.00    -0.251 OA
BRANCH  40  42
ATOM     42  O   UNL     1       7.717   1.544  28.279  0.00  0.00    -0.480 OA
ATOM     43  H   UNL     1       8.163   1.267  29.101  0.00  0.00    +0.295 HD
ENDBRANCH  40  42
ENDBRANCH   8  40
TORSDOF 6
ENDMDL
