MODEL 1
REMARK VINA RESULT:      -7.2      0.000      0.000
REMARK  Name = 
REMARK  8 active torsions:
REMARK  status: ('A' for Active; 'I' for Inactive)
REMARK    1  A    between atoms: C_1  and  C_2
REMARK    2  A    between atoms: C_2  and  C_3
REMARK    3  A    between atoms: C_2  and  N_4
REMARK    4  A    between atoms: N_7  and  S_8
REMARK    5  A    between atoms: S_8  and  C_11
REMARK    6  A    between atoms: C_12  and  N_13
REMARK    7  A    between atoms: N_13  and  C_14
REMARK    8  A    between atoms: C_18  and  C_19
REMARK                            x       y       z     vdW  Elec       q    Type
REMARK                         _______ _______ _______ _____ _____    ______ ____
ROOT
ATOM      1  C   UNL     1       7.919  -4.188  24.112  0.00  0.00    +0.148 A 
ATOM      2  C   UNL     1       6.756  -4.925  23.938  0.00  0.00    +0.141 A 
ATOM      3  N   UNL     1       5.893  -4.767  22.908  0.00  0.00    -0.261 NA
ATOM      4  C   UNL     1       6.226  -3.842  21.992  0.00  0.00    +0.112 A 
ATOM      5  C   UNL     1       7.355  -3.046  22.090  0.00  0.00    +0.045 A 
ATOM      6  C   UNL     1       8.220  -3.175  23.191  0.00  0.00    +0.061 A 
ENDROOT
BRANCH   1   7
ATOM      7  S   UNL     1       8.959  -4.530  25.492  0.00  0.00    +0.079 S 
ATOM      8  O   UNL     1      10.188  -5.124  25.010  0.00  0.00    -0.150 OA
ATOM      9  O   UNL     1       9.001  -3.312  26.274  0.00  0.00    -0.150 OA
BRANCH   7  13
ATOM     10  N   UNL     1       6.686  -6.305  28.110  0.00  0.00    -0.296 N 
ATOM     11  H   UNL     1       6.988  -7.246  27.911  0.00  0.00    +0.151 HD
ATOM     12  C   UNL     1       7.112  -5.282  27.308  0.00  0.00    +0.319 C 
ATOM     13  N   UNL     1       8.151  -5.627  26.462  0.00  0.00    -0.169 N 
ATOM     14  H   UNL     1       8.540  -6.561  26.423  0.00  0.00    +0.178 HD
ATOM     15  O   UNL     1       6.680  -4.141  27.380  0.00  0.00    -0.251 OA
BRANCH  10  17
ATOM     16  C   UNL     1       4.393  -6.957  28.689  0.00  0.00    +0.027 C 
ATOM     17  C   UNL     1       5.593  -6.089  29.051  0.00  0.00    +0.068 C 
ATOM     18  C   UNL     1       6.044  -6.345  30.485  0.00  0.00    +0.027 C 
ENDBRANCH  10  17
ENDBRANCH   7  13
ENDBRANCH   1   7
BRANCH   6  19
ATOM     19  N   UNL     1       9.321  -2.298  23.315  0.00  0.00    -0.313 N 
ATOM     20  H   UNL     1      10.104  -2.627  23.875  0.00  0.00    +0.152 HD
BRANCH  19  21
ATOM     21  C   UNL     1       9.348  -0.890  23.180  0.00  0.00    +0.032 A 
ATOM     22  C   UNL     1       8.883  -0.033  24.186  0.00  0.00    +0.026 A 
ATOM     23  C   UNL     1       8.868   1.358  24.014  0.00  0.00    -0.049 A 
ATOM     24  C   UNL     1       8.323   2.233  25.104  0.00  0.00    +0.044 C 
ATOM     25  C   UNL     1       9.338   1.899  22.815  0.00  0.00    +0.003 A 
ATOM     26  C   UNL     1       9.829   1.061  21.814  0.00  0.00    +0.002 A 
ATOM     27  C   UNL     1       9.837  -0.325  21.997  0.00  0.00    +0.023 A 
ENDBRANCH  19  21
ENDBRANCH   6  19
TORSDOF 5
ENDMDL
MODEL 2
REMARK VINA RESULT:      -7.2      3.229      4.084
REMARK  Name = 
REMARK  8 active torsions:
REMARK  status: ('A' for Active; 'I' for Inactive)
REMARK    1  A    between atoms: C_1  and  C_2
REMARK    2  A    between atoms: C_2  and  C_3
REMARK    3  A    between atoms: C_2  and  N_4
REMARK    4  A    between atoms: N_7  and  S_8
REMARK    5  A    between atoms: S_8  and  C_11
REMARK    6  A    between atoms: C_12  and  N_13
REMARK    7  A    between atoms: N_13  and  C_14
REMARK    8  A    between atoms: C_18  and  C_19
REMARK                            x       y       z     vdW  Elec       q    Type
REMARK                         _______ _______ _______ _____ _____    ______ ____
ROOT
ATOM      1  C   UNL     1       7.111  -4.512  23.629  0.00  0.00    +0.148 A 
ATOM      2  C   UNL     1       6.950  -5.246  24.796  0.00  0.00    +0.141 A 
ATOM      3  N   UNL     1       7.552  -4.958  25.974  0.00  0.00    -0.261 NA
ATOM      4  C   UNL     1       8.333  -3.864  25.988  0.00  0.00    +0.112 A 
ATOM      5  C   UNL     1       8.568  -3.081  24.870  0.00  0.00    +0.045 A 
ATOM      6  C   UNL     1       7.985  -3.416  23.635  0.00  0.00    +0.061 A 
ENDROOT
BRANCH   1   7
ATOM      7  S   UNL     1       6.236  -4.996  22.179  0.00  0.00    +0.079 S 
ATOM      8  O   UNL     1       5.454  -3.871  21.713  0.00  0.00    -0.150 OA
ATOM      9  O   UNL     1       7.215  -5.610  21.306  0.00  0.00    -0.150 OA
BRANCH   7  13
ATOM     10  N   UNL     1       3.279  -7.203  23.427  0.00  0.00    -0.296 N 
ATOM     11  H   UNL     1       3.724  -8.095  23.275  0.00  0.00    +0.151 HD
ATOM     12  C   UNL     1       3.894  -6.065  22.983  0.00  0.00    +0.319 C 
ATOM     13  N   UNL     1       5.213  -6.247  22.610  0.00  0.00    -0.169 N 
ATOM     14  H   UNL     1       5.672  -7.149  22.639  0.00  0.00    +0.178 HD
ATOM     15  O   UNL     1       3.363  -4.964  22.987  0.00  0.00    -0.251 OA
BRANCH  10  17
ATOM     16  C   UNL     1       1.115  -8.348  23.278  0.00  0.00    +0.027 C 
ATOM     17  C   UNL     1       1.884  -7.163  23.851  0.00  0.00    +0.068 C 
ATOM     18  C   UNL     1       1.773  -7.117  25.371  0.00  0.00    +0.027 C 
ENDBRANCH  10  17
ENDBRANCH   7  13
ENDBRANCH   1   7
BRANCH   6  19
ATOM     19  N   UNL     1       8.303  -2.654  22.489  0.00  0.00    -0.313 N 
ATOM     20  H   UNL     1       8.809  -3.135  21.748  0.00  0.00    +0.152 HD
BRANCH  19  21
ATOM     21  C   UNL     1       8.441  -1.251  22.373  0.00  0.00    +0.032 A 
ATOM     22  C   UNL     1       7.413  -0.366  22.722  0.00  0.00    +0.026 A 
ATOM     23  C   UNL     1       7.549   1.019  22.551  0.00  0.00    -0.049 A 
ATOM     24  C   UNL     1       6.404   1.923  22.900  0.00  0.00    +0.044 C 
ATOM     25  C   UNL     1       8.742   1.525  22.031  0.00  0.00    +0.003 A 
ATOM     26  C   UNL     1       9.786   0.659  21.703  0.00  0.00    +0.002 A 
ATOM     27  C   UNL     1       9.637  -0.720  21.877  0.00  0.00    +0.023 A 
ENDBRANCH  19  21
ENDBRANCH   6  19
TORSDOF 5
ENDMDL
MODEL 3
REMARK VINA RESULT:      -7.1      3.354      5.421
REMARK  Name = 
REMARK  8 active torsions:
REMARK  status: ('A' for Active; 'I' for Inactive)
REMARK    1  A    between atoms: C_1  and  C_2
REMARK    2  A    between atoms: C_2  and  C_3
REMARK    3  A    between atoms: C_2  and  N_4
REMARK    4  A    between atoms: N_7  and  S_8
REMARK    5  A    between atoms: S_8  and  C_11
REMARK    6  A    between atoms: C_12  and  N_13
REMARK    7  A    between atoms: N_13  and  C_14
REMARK    8  A    between atoms: C_18  and  C_19
REMARK                            x       y       z     vdW  Elec       q    Type
REMARK                         _______ _______ _______ _____ _____    ______ ____
ROOT
ATOM      1  C   UNL     1       6.081  -3.691  23.531  0.00  0.00    +0.148 A 
ATOM      2  C   UNL     1       5.017  -4.377  22.962  0.00  0.00    +0.141 A 
ATOM      3  N   UNL     1       5.141  -5.472  22.177  0.00  0.00    -0.261 NA
ATOM      4  C   UNL     1       6.392  -5.917  21.974  0.00  0.00    +0.112 A 
ATOM      5  C   UNL     1       7.516  -5.289  22.484  0.00  0.00    +0.045 A 
ATOM      6  C   UNL     1       7.387  -4.119  23.253  0.00  0.00    +0.061 A 
ENDROOT
BRANCH   1   7
ATOM      7  S   UNL     1       5.759  -2.295  24.557  0.00  0.00    +0.079 S 
ATOM      8  O   UNL     1       4.364  -2.316  24.942  0.00  0.00    -0.150 OA
ATOM      9  O   UNL     1       6.791  -2.297  25.572  0.00  0.00    -0.150 OA
BRANCH   7  13
ATOM     10  N   UNL     1       6.345   1.330  23.257  0.00  0.00    -0.296 N 
ATOM     11  H   UNL     1       6.489   1.087  22.289  0.00  0.00    +0.151 HD
ATOM     12  C   UNL     1       6.241   0.333  24.188  0.00  0.00    +0.319 C 
ATOM     13  N   UNL     1       6.066  -0.928  23.645  0.00  0.00    -0.169 N 
ATOM     14  H   UNL     1       6.046  -1.097  22.647  0.00  0.00    +0.178 HD
ATOM     15  O   UNL     1       6.218   0.533  25.393  0.00  0.00    -0.251 OA
BRANCH  10  17
ATOM     16  C   UNL     1       8.018   3.068  23.700  0.00  0.00    +0.027 C 
ATOM     17  C   UNL     1       6.535   2.711  23.683  0.00  0.00    +0.068 C 
ATOM     18  C   UNL     1       5.747   3.672  22.800  0.00  0.00    +0.027 C 
ENDBRANCH  10  17
ENDBRANCH   7  13
ENDBRANCH   1   7
BRANCH   6  19
ATOM     19  N   UNL     1       8.549  -3.447  23.695  0.00  0.00    -0.313 N 
ATOM     20  H   UNL     1       8.862  -3.655  24.641  0.00  0.00    +0.152 HD
BRANCH  19  21
ATOM     21  C   UNL     1       9.089  -2.223  23.236  0.00  0.00    +0.032 A 
ATOM     22  C   UNL     1       9.802  -1.358  24.076  0.00  0.00    +0.026 A 
ATOM     23  C   UNL     1      10.284  -0.124  23.617  0.00  0.00    -0.049 A 
ATOM     24  C   UNL     1      11.006   0.787  24.566  0.00  0.00    +0.044 C 
ATOM     25  C   UNL     1      10.058   0.242  22.289  0.00  0.00    +0.003 A 
ATOM     26  C   UNL     1       9.373  -0.620  21.432  0.00  0.00    +0.002 A 
ATOM     27  C   UNL     1       8.895  -1.847  21.902  0.00  0.00    +0.023 A 
ENDBRANCH  19  21
ENDBRANCH   6  19
TORSDOF 5
ENDMDL
MODEL 4
REMARK VINA RESULT:      -6.9      4.187      8.394
REMARK  Name = 
REMARK  8 active torsions:
REMARK  status: ('A' for Active; 'I' for Inactive)
REMARK    1  A    between atoms: C_1  and  C_2
REMARK    2  A    between atoms: C_2  and  C_3
REMARK    3  A    between atoms: C_2  and  N_4
REMARK    4  A    between atoms: N_7  and  S_8
REMARK    5  A    between atoms: S_8  and  C_11
REMARK    6  A    between atoms: C_12  and  N_13
REMARK    7  A    between atoms: N_13  and  C_14
REMARK    8  A    between atoms: C_18  and  C_19
REMARK                            x       y       z     vdW  Elec       q    Type
REMARK                         _______ _______ _______ _____ _____    ______ ____
ROOT
ATOM      1  C   UNL     1       8.423   0.919  24.205  0.00  0.00    +0.148 A 
ATOM      2  C   UNL     1       7.732   1.879  24.932  0.00  0.00    +0.141 A 
ATOM      3  N   UNL     1       7.330   1.729  26.215  0.00  0.00    -0.261 NA
ATOM      4  C   UNL     1       7.661   0.570  26.809  0.00  0.00    +0.112 A 
ATOM      5  C   UNL     1       8.333  -0.453  26.160  0.00  0.00    +0.045 A 
ATOM      6  C   UNL     1       8.699  -0.315  24.809  0.00  0.00    +0.061 A 
ENDROOT
BRANCH   1   7
ATOM      7  S   UNL     1       8.905   1.272  22.548  0.00  0.00    +0.079 S 
ATOM      8  O   UNL     1       9.962   0.359  22.169  0.00  0.00    -0.150 OA
ATOM      9  O   UNL     1       7.681   1.324  21.777  0.00  0.00    -0.150 OA
BRANCH   7  13
ATOM     10  N   UNL     1      10.880   4.583  23.111  0.00  0.00    -0.296 N 
ATOM     11  H   UNL     1      10.316   5.161  22.508  0.00  0.00    +0.151 HD
ATOM     12  C   UNL     1      10.662   3.232  23.137  0.00  0.00    +0.319 C 
ATOM     13  N   UNL     1       9.486   2.841  22.524  0.00  0.00    -0.169 N 
ATOM     14  H   UNL     1       8.857   3.494  22.073  0.00  0.00    +0.178 HD
ATOM     15  O   UNL     1      11.391   2.441  23.717  0.00  0.00    -0.251 OA
BRANCH  10  17
ATOM     16  C   UNL     1      13.128   5.447  22.650  0.00  0.00    +0.027 C 
ATOM     17  C   UNL     1      12.083   5.141  23.717  0.00  0.00    +0.068 C 
ATOM     18  C   UNL     1      11.758   6.381  24.542  0.00  0.00    +0.027 C 
ENDBRANCH  10  17
ENDBRANCH   7  13
ENDBRANCH   1   7
BRANCH   6  19
ATOM     19  N   UNL     1       9.310  -1.401  24.142  0.00  0.00    -0.313 N 
ATOM     20  H   UNL     1      10.050  -1.172  23.483  0.00  0.00    +0.152 HD
BRANCH  19  21
ATOM     21  C   UNL     1       8.785  -2.690  23.891  0.00  0.00    +0.032 A 
ATOM     22  C   UNL     1       7.855  -2.934  22.872  0.00  0.00    +0.026 A 
ATOM     23  C   UNL     1       7.305  -4.208  22.671  0.00  0.00    -0.049 A 
ATOM     24  C   UNL     1       6.281  -4.411  21.594  0.00  0.00    +0.044 C 
ATOM     25  C   UNL     1       7.706  -5.259  23.500  0.00  0.00    +0.003 A 
ATOM     26  C   UNL     1       8.652  -5.039  24.502  0.00  0.00    +0.002 A 
ATOM     27  C   UNL     1       9.190  -3.763  24.693  0.00  0.00    +0.023 A 
ENDBRANCH  19  21
ENDBRANCH   6  19
TORSDOF 5
ENDMDL
MODEL 5
REMARK VINA RESULT:      -6.6      3.051      4.340
REMARK  Name = 
REMARK  8 active torsions:
REMARK  status: ('A' for Active; 'I' for Inactive)
REMARK    1  A    between atoms: C_1  and  C_2
REMARK    2  A    between atoms: C_2  and  C_3
REMARK    3  A    between atoms: C_2  and  N_4
REMARK    4  A    between atoms: N_7  and  S_8
REMARK    5  A    between atoms: S_8  and  C_11
REMARK    6  A    between atoms: C_12  and  N_13
REMARK    7  A    between atoms: N_13  and  C_14
REMARK    8  A    between atoms: C_18  and  C_19
REMARK                            x       y       z     vdW  Elec       q    Type
REMARK                         _______ _______ _______ _____ _____    ______ ____
ROOT
ATOM      1  C   UNL     1       7.041  -3.798  24.534  0.00  0.00    +0.148 A 
ATOM      2  C   UNL     1       6.743  -4.797  25.452  0.00  0.00    +0.141 A 
ATOM      3  N   UNL     1       7.664  -5.575  26.066  0.00  0.00    -0.261 NA
ATOM      4  C   UNL     1       8.949  -5.322  25.766  0.00  0.00    +0.112 A 
ATOM      5  C   UNL     1       9.342  -4.360  24.851  0.00  0.00    +0.045 A 
ATOM      6  C   UNL     1       8.379  -3.592  24.173  0.00  0.00    +0.061 A 
ENDROOT
BRANCH   1   7
ATOM      7  S   UNL     1       5.731  -2.848  23.839  0.00  0.00    +0.079 S 
ATOM      8  O   UNL     1       5.674  -1.572  24.519  0.00  0.00    -0.150 OA
ATOM      9  O   UNL     1       5.918  -2.896  22.404  0.00  0.00    -0.150 OA
BRANCH   7  13
ATOM     10  N   UNL     1       2.642  -5.213  23.643  0.00  0.00    -0.296 N 
ATOM     11  H   UNL     1       2.200  -4.902  24.493  0.00  0.00    +0.151 HD
ATOM     12  C   UNL     1       3.896  -4.759  23.336  0.00  0.00    +0.319 C 
ATOM     13  N   UNL     1       4.311  -3.689  24.108  0.00  0.00    -0.169 N 
ATOM     14  H   UNL     1       3.746  -3.296  24.851  0.00  0.00    +0.178 HD
ATOM     15  O   UNL     1       4.566  -5.196  22.412  0.00  0.00    -0.251 OA
BRANCH  10  17
ATOM     16  C   UNL     1       2.123  -7.608  23.760  0.00  0.00    +0.027 C 
ATOM     17  C   UNL     1       2.074  -6.341  22.913  0.00  0.00    +0.068 C 
ATOM     18  C   UNL     1       0.652  -6.038  22.455  0.00  0.00    +0.027 C 
ENDBRANCH  10  17
ENDBRANCH   7  13
ENDBRANCH   1   7
BRANCH   6  19
ATOM     19  N   UNL     1       8.796  -2.673  23.183  0.00  0.00    -0.313 N 
ATOM     20  H   UNL     1       9.258  -3.065  22.365  0.00  0.00    +0.152 HD
BRANCH  19  21
ATOM     21  C   UNL     1       9.088  -1.297  23.323  0.00  0.00    +0.032 A 
ATOM     22  C   UNL     1       8.475  -0.317  22.530  0.00  0.00    +0.026 A 
ATOM     23  C   UNL     1       8.816   1.038  22.647  0.00  0.00    -0.049 A 
ATOM     24  C   UNL     1       8.163   2.045  21.748  0.00  0.00    +0.044 C 
ATOM     25  C   UNL     1       9.779   1.418  23.584  0.00  0.00    +0.003 A 
ATOM     26  C   UNL     1      10.379   0.458  24.400  0.00  0.00    +0.002 A 
ATOM     27  C   UNL     1      10.032  -0.890  24.272  0.00  0.00    +0.023 A 
ENDBRANCH  19  21
ENDBRANCH   6  19
TORSDOF 5
ENDMDL
MODEL 6
REMARK VINA RESULT:      -6.6      3.079      5.762
REMARK  Name = 
REMARK  8 active torsions:
REMARK  status: ('A' for Active; 'I' for Inactive)
REMARK    1  A    between atoms: C_1  and  C_2
REMARK    2  A    between atoms: C_2  and  C_3
REMARK    3  A    between atoms: C_2  and  N_4
REMARK    4  A    between atoms: N_7  and  S_8
REMARK    5  A    between atoms: S_8  and  C_11
REMARK    6  A    between atoms: C_12  and  N_13
REMARK    7  A    between atoms: N_13  and  C_14
REMARK    8  A    between atoms: C_18  and  C_19
REMARK                            x       y       z     vdW  Elec       q    Type
REMARK                         _______ _______ _______ _____ _____    ______ ____
ROOT
ATOM      1  C   UNL     1       7.352  -2.630  25.203  0.00  0.00    +0.148 A 
ATOM      2  C   UNL     1       6.665  -3.829  25.076  0.00  0.00    +0.141 A 
ATOM      3  N   UNL     1       7.237  -5.012  24.754  0.00  0.00    -0.261 NA
ATOM      4  C   UNL     1       8.569  -4.998  24.576  0.00  0.00    +0.112 A 
ATOM      5  C   UNL     1       9.336  -3.848  24.664  0.00  0.00    +0.045 A 
ATOM      6  C   UNL     1       8.729  -2.610  24.944  0.00  0.00    +0.061 A 
ENDROOT
BRANCH   1   7
ATOM      7  S   UNL     1       6.470  -1.174  25.657  0.00  0.00    +0.079 S 
ATOM      8  O   UNL     1       5.150  -1.555  26.112  0.00  0.00    -0.150 OA
ATOM      9  O   UNL     1       7.351  -0.428  26.532  0.00  0.00    -0.150 OA
BRANCH   7  13
ATOM     10  N   UNL     1       5.925   1.701  23.086  0.00  0.00    -0.296 N 
ATOM     11  H   UNL     1       6.110   1.157  22.258  0.00  0.00    +0.151 HD
ATOM     12  C   UNL     1       6.143   1.143  24.315  0.00  0.00    +0.319 C 
ATOM     13  N   UNL     1       6.337  -0.226  24.285  0.00  0.00    -0.169 N 
ATOM     14  H   UNL     1       6.343  -0.761  23.426  0.00  0.00    +0.178 HD
ATOM     15  O   UNL     1       6.093   1.772  25.362  0.00  0.00    -0.251 OA
BRANCH  10  17
ATOM     16  C   UNL     1       6.828   3.782  22.151  0.00  0.00    +0.027 C 
ATOM     17  C   UNL     1       5.709   3.138  22.963  0.00  0.00    +0.068 C 
ATOM     18  C   UNL     1       4.344   3.438  22.353  0.00  0.00    +0.027 C 
ENDBRANCH  10  17
ENDBRANCH   7  13
ENDBRANCH   1   7
BRANCH   6  19
ATOM     19  N   UNL     1       9.516  -1.437  24.947  0.00  0.00    -0.313 N 
ATOM     20  H   UNL     1       9.739  -1.041  25.858  0.00  0.00    +0.152 HD
BRANCH  19  21
ATOM     21  C   UNL     1       9.670  -0.475  23.922  0.00  0.00    +0.032 A 
ATOM     22  C   UNL     1      10.027   0.854  24.190  0.00  0.00    +0.026 A 
ATOM     23  C   UNL     1      10.124   1.807  23.165  0.00  0.00    -0.049 A 
ATOM     24  C   UNL     1      10.468   3.226  23.506  0.00  0.00    +0.044 C 
ATOM     25  C   UNL     1       9.870   1.417  21.849  0.00  0.00    +0.003 A 
ATOM     26  C   UNL     1       9.540   0.091  21.562  0.00  0.00    +0.002 A 
ATOM     27  C   UNL     1       9.445  -0.848  22.592  0.00  0.00    +0.023 A 
ENDBRANCH  19  21
ENDBRANCH   6  19
TORSDOF 5
ENDMDL
MODEL 7
REMARK VINA RESULT:      -6.6      2.693      3.440
REMARK  Name = 
REMARK  8 active torsions:
REMARK  status: ('A' for Active; 'I' for Inactive)
REMARK    1  A    between atoms: C_1  and  C_2
REMARK    2  A    between atoms: C_2  and  C_3
REMARK    3  A    between atoms: C_2  and  N_4
REMARK    4  A    between atoms: N_7  and  S_8
REMARK    5  A    between atoms: S_8  and  C_11
REMARK    6  A    between atoms: C_12  and  N_13
REMARK    7  A    between atoms: N_13  and  C_14
REMARK    8  A    between atoms: C_18  and  C_19
REMARK                            x       y       z     vdW  Elec       q    Type
REMARK                         _______ _______ _______ _____ _____    ______ ____
ROOT
ATOM      1  C   UNL     1       7.619  -3.829  23.930  0.00  0.00    +0.148 A 
ATOM      2  C   UNL     1       6.561  -4.643  24.311  0.00  0.00    +0.141 A 
ATOM      3  N   UNL     1       5.498  -4.937  23.527  0.00  0.00    -0.261 NA
ATOM      4  C   UNL     1       5.510  -4.412  22.290  0.00  0.00    +0.112 A 
ATOM      5  C   UNL     1       6.511  -3.575  21.828  0.00  0.00    +0.045 A 
ATOM      6  C   UNL     1       7.586  -3.226  22.665  0.00  0.00    +0.061 A 
ENDROOT
BRANCH   1   7
ATOM      7  S   UNL     1       8.949  -3.560  25.054  0.00  0.00    +0.079 S 
ATOM      8  O   UNL     1       8.866  -4.543  26.113  0.00  0.00    -0.150 OA
ATOM      9  O   UNL     1      10.145  -3.467  24.244  0.00  0.00    -0.150 OA
BRANCH   7  13
ATOM     10  N   UNL     1       7.658  -0.336  26.818  0.00  0.00    -0.296 N 
ATOM     11  H   UNL     1       8.459   0.240  26.614  0.00  0.00    +0.151 HD
ATOM     12  C   UNL     1       7.698  -1.670  26.516  0.00  0.00    +0.319 C 
ATOM     13  N   UNL     1       8.754  -2.029  25.697  0.00  0.00    -0.169 N 
ATOM     14  H   UNL     1       9.448  -1.366  25.374  0.00  0.00    +0.178 HD
ATOM     15  O   UNL     1       6.841  -2.468  26.863  0.00  0.00    -0.251 OA
BRANCH  10  17
ATOM     16  C   UNL     1       7.175   1.156  28.704  0.00  0.00    +0.027 C 
ATOM     17  C   UNL     1       6.601   0.187  27.676  0.00  0.00    +0.068 C 
ATOM     18  C   UNL     1       5.500   0.846  26.853  0.00  0.00    +0.027 C 
ENDBRANCH  10  17
ENDBRANCH   7  13
ENDBRANCH   1   7
BRANCH   6  19
ATOM     19  N   UNL     1       8.554  -2.306  22.204  0.00  0.00    -0.313 N 
ATOM     20  H   UNL     1       9.511  -2.648  22.136  0.00  0.00    +0.152 HD
BRANCH  19  21
ATOM     21  C   UNL     1       8.520  -0.893  22.247  0.00  0.00    +0.032 A 
ATOM     22  C   UNL     1       7.447  -0.187  22.807  0.00  0.00    +0.026 A 
ATOM     23  C   UNL     1       7.405   1.214  22.794  0.00  0.00    -0.049 A 
ATOM     24  C   UNL     1       6.215   1.925  23.368  0.00  0.00    +0.044 C 
ATOM     25  C   UNL     1       8.465   1.920  22.220  0.00  0.00    +0.003 A 
ATOM     26  C   UNL     1       9.554   1.232  21.683  0.00  0.00    +0.002 A 
ATOM     27  C   UNL     1       9.583  -0.165  21.700  0.00  0.00    +0.023 A 
ENDBRANCH  19  21
ENDBRANCH   6  19
TORSDOF 5
ENDMDL
MODEL 8
REMARK VINA RESULT:      -6.6      1.539      6.987
REMARK  Name = 
REMARK  8 active torsions:
REMARK  status: ('A' for Active; 'I' for Inactive)
REMARK    1  A    between atoms: C_1  and  C_2
REMARK    2  A    between atoms: C_2  and  C_3
REMARK    3  A    between atoms: C_2  and  N_4
REMARK    4  A    between atoms: N_7  and  S_8
REMARK    5  A    between atoms: S_8  and  C_11
REMARK    6  A    between atoms: C_12  and  N_13
REMARK    7  A    between atoms: N_13  and  C_14
REMARK    8  A    between atoms: C_18  and  C_19
REMARK                            x       y       z     vdW  Elec       q    Type
REMARK                         _______ _______ _______ _____ _____    ______ ____
ROOT
ATOM      1  C   UNL     1       7.621  -4.627  24.155  0.00  0.00    +0.148 A 
ATOM      2  C   UNL     1       7.493  -4.309  22.809  0.00  0.00    +0.141 A 
ATOM      3  N   UNL     1       6.417  -4.611  22.047  0.00  0.00    -0.261 NA
ATOM      4  C   UNL     1       5.406  -5.238  22.672  0.00  0.00    +0.112 A 
ATOM      5  C   UNL     1       5.449  -5.612  24.005  0.00  0.00    +0.045 A 
ATOM      6  C   UNL     1       6.593  -5.347  24.778  0.00  0.00    +0.061 A 
ENDROOT
BRANCH   1   7
ATOM      7  S   UNL     1       9.075  -4.140  25.022  0.00  0.00    +0.079 S 
ATOM      8  O   UNL     1       8.691  -3.626  26.318  0.00  0.00    -0.150 OA
ATOM      9  O   UNL     1       9.991  -5.258  24.928  0.00  0.00    -0.150 OA
BRANCH   7  13
ATOM     10  N   UNL     1      10.067  -0.787  23.305  0.00  0.00    -0.296 N 
ATOM     11  H   UNL     1      10.856  -1.146  22.790  0.00  0.00    +0.151 HD
ATOM     12  C   UNL     1       9.442  -1.591  24.218  0.00  0.00    +0.319 C 
ATOM     13  N   UNL     1       9.801  -2.925  24.131  0.00  0.00    -0.169 N 
ATOM     14  H   UNL     1      10.486  -3.267  23.468  0.00  0.00    +0.178 HD
ATOM     15  O   UNL     1       8.582  -1.197  24.990  0.00  0.00    -0.251 OA
BRANCH  10  17
ATOM     16  C   UNL     1      10.754   1.394  24.193  0.00  0.00    +0.027 C 
ATOM     17  C   UNL     1       9.789   0.644  23.281  0.00  0.00    +0.068 C 
ATOM     18  C   UNL     1       9.840   1.190  21.858  0.00  0.00    +0.027 C 
ENDBRANCH  10  17
ENDBRANCH   7  13
ENDBRANCH   1   7
BRANCH   6  19
ATOM     19  N   UNL     1       6.651  -5.809  26.113  0.00  0.00    -0.313 N 
ATOM     20  H   UNL     1       7.289  -6.579  26.300  0.00  0.00    +0.152 HD
BRANCH  19  21
ATOM     21  C   UNL     1       5.671  -5.700  27.127  0.00  0.00    +0.032 A 
ATOM     22  C   UNL     1       5.307  -4.468  27.687  0.00  0.00    +0.026 A 
ATOM     23  C   UNL     1       4.372  -4.385  28.729  0.00  0.00    -0.049 A 
ATOM     24  C   UNL     1       4.046  -3.047  29.324  0.00  0.00    +0.044 C 
ATOM     25  C   UNL     1       3.784  -5.557  29.209  0.00  0.00    +0.003 A 
ATOM     26  C   UNL     1       4.116  -6.789  28.643  0.00  0.00    +0.002 A 
ATOM     27  C   UNL     1       5.051  -6.859  27.607  0.00  0.00    +0.023 A 
ENDBRANCH  19  21
ENDBRANCH   6  19
TORSDOF 5
ENDMDL
MODEL 9
REMARK VINA RESULT:      -6.5      2.698      4.783
REMARK  Name = 
REMARK  8 active torsions:
REMARK  status: ('A' for Active; 'I' for Inactive)
REMARK    1  A    between atoms: C_1  and  C_2
REMARK    2  A    between atoms: C_2  and  C_3
REMARK    3  A    between atoms: C_2  and  N_4
REMARK    4  A    between atoms: N_7  and  S_8
REMARK    5  A    between atoms: S_8  and  C_11
REMARK    6  A    between atoms: C_12  and  N_13
REMARK    7  A    between atoms: N_13  and  C_14
REMARK    8  A    between atoms: C_18  and  C_19
REMARK                            x       y       z     vdW  Elec       q    Type
REMARK                         _______ _______ _______ _____ _____    ______ ____
ROOT
ATOM      1  C   UNL     1       6.991  -4.062  24.237  0.00  0.00    +0.148 A 
ATOM      2  C   UNL     1       6.395  -5.004  25.065  0.00  0.00    +0.141 A 
ATOM      3  N   UNL     1       7.027  -5.654  26.070  0.00  0.00    -0.261 NA
ATOM      4  C   UNL     1       8.314  -5.323  26.273  0.00  0.00    +0.112 A 
ATOM      5  C   UNL     1       8.998  -4.409  25.488  0.00  0.00    +0.045 A 
ATOM      6  C   UNL     1       8.352  -3.778  24.409  0.00  0.00    +0.061 A 
ENDROOT
BRANCH   1   7
ATOM      7  S   UNL     1       6.027  -3.279  22.988  0.00  0.00    +0.079 S 
ATOM      8  O   UNL     1       6.617  -3.569  21.699  0.00  0.00    -0.150 OA
ATOM      9  O   UNL     1       4.652  -3.645  23.254  0.00  0.00    -0.150 OA
BRANCH   7  13
ATOM     10  N   UNL     1       5.776   0.313  24.474  0.00  0.00    -0.296 N 
ATOM     11  H   UNL     1       6.152   0.798  23.675  0.00  0.00    +0.151 HD
ATOM     12  C   UNL     1       5.797  -1.055  24.496  0.00  0.00    +0.319 C 
ATOM     13  N   UNL     1       6.088  -1.632  23.273  0.00  0.00    -0.169 N 
ATOM     14  H   UNL     1       6.295  -1.088  22.445  0.00  0.00    +0.178 HD
ATOM     15  O   UNL     1       5.505  -1.720  25.479  0.00  0.00    -0.251 OA
BRANCH  10  17
ATOM     16  C   UNL     1       6.771   1.590  26.316  0.00  0.00    +0.027 C 
ATOM     17  C   UNL     1       5.485   1.059  25.693  0.00  0.00    +0.068 C 
ATOM     18  C   UNL     1       4.497   2.188  25.423  0.00  0.00    +0.027 C 
ENDBRANCH  10  17
ENDBRANCH   7  13
ENDBRANCH   1   7
BRANCH   6  19
ATOM     19  N   UNL     1       9.090  -2.913  23.570  0.00  0.00    -0.313 N 
ATOM     20  H   UNL     1       9.746  -3.352  22.928  0.00  0.00    +0.152 HD
BRANCH  19  21
ATOM     21  C   UNL     1       9.407  -1.549  23.770  0.00  0.00    +0.032 A 
ATOM     22  C   UNL     1       9.481  -0.635  22.711  0.00  0.00    +0.026 A 
ATOM     23  C   UNL     1       9.849   0.702  22.921  0.00  0.00    -0.049 A 
ATOM     24  C   UNL     1       9.955   1.633  21.750  0.00  0.00    +0.044 C 
ATOM     25  C   UNL     1      10.136   1.131  24.219  0.00  0.00    +0.003 A 
ATOM     26  C   UNL     1      10.040   0.240  25.288  0.00  0.00    +0.002 A 
ATOM     27  C   UNL     1       9.675  -1.091  25.065  0.00  0.00    +0.023 A 
ENDBRANCH  19  21
ENDBRANCH   6  19
TORSDOF 5
ENDMDL
