MODEL 1
REMARK VINA RESULT:      -7.0      0.000      0.000
REMARK  Name = 
REMARK  4 active torsions:
REMARK  status: ('A' for Active; 'I' for Inactive)
REMARK    1  A    between atoms: N_1  and  S_2
REMARK    2  A    between atoms: S_2  and  C_5
REMARK    3  A    between atoms: C_8  and  N_11
REMARK    4  A    between atoms: N_12  and  C_13
REMARK                            x       y       z     vdW  Elec       q    Type
REMARK                         _______ _______ _______ _____ _____    ______ ____
ROOT
ATOM      1  N   UNL     1       8.639   0.896  25.242  0.00  0.00    -0.149 NA
ATOM      2  N   UNL     1       8.210   1.357  24.170  0.00  0.00    -0.143 NA
ENDROOT
BRANCH   2   3
ATOM      3  C   UNL     1       7.947   2.697  24.128  0.00  0.00    +0.159 C 
ATOM      4  C   UNL     1       6.621   3.385  24.261  0.00  0.00    +0.288 C 
ATOM      5  O   UNL     1       5.548   2.841  24.447  0.00  0.00    -0.266 OA
ATOM      6  N   UNL     1       6.816   4.747  24.131  0.00  0.00    -0.175 NA
ATOM      7  C   UNL     1       8.081   4.893  23.939  0.00  0.00    +0.066 A 
ATOM      8  C   UNL     1       8.830   6.146  23.734  0.00  0.00    +0.027 A 
ATOM      9  C   UNL     1      10.160   6.081  23.543  0.00  0.00    +0.017 A 
ATOM     10  C   UNL     1      10.902   4.822  23.534  0.00  0.00    +0.019 A 
ATOM     11 BR   UNL     1      12.747   4.908  23.264  0.00  0.00    -0.050 Br
ATOM     12  C   UNL     1      10.269   3.649  23.718  0.00  0.00    +0.027 A 
ATOM     13  C   UNL     1       8.853   3.652  23.924  0.00  0.00    +0.031 A 
ENDBRANCH   2   3
BRANCH   1  17
ATOM     14  C   UNL     1       8.852  -3.313  25.171  0.00  0.00    +0.105 A 
ATOM     15  C   UNL     1       9.333  -2.597  24.073  0.00  0.00    +0.030 A 
ATOM     16  C   UNL     1       9.286  -1.202  24.091  0.00  0.00    +0.031 A 
ATOM     17  C   UNL     1       8.779  -0.508  25.204  0.00  0.00    +0.086 A 
ATOM     18  C   UNL     1       8.325  -1.250  26.304  0.00  0.00    +0.031 A 
ATOM     19  C   UNL     1       8.363  -2.649  26.297  0.00  0.00    +0.030 A 
BRANCH  14  20
ATOM     20  S   UNL     1       8.787  -5.078  25.088  0.00  0.00    +0.056 S 
ATOM     21  O   UNL     1       8.022  -5.581  26.205  0.00  0.00    -0.153 OA
ATOM     22  O   UNL     1       8.529  -5.471  23.724  0.00  0.00    -0.153 OA
BRANCH  20  23
ATOM     23  N   UNL     1      10.380  -5.495  25.421  0.00  0.00    -0.204 NA
ATOM     24  H   UNL     1      10.508  -5.631  26.423  0.00  0.00    +0.144 HD
ATOM     25  H   UNL     1      10.650  -6.301  24.856  0.00  0.00    +0.144 HD
ENDBRANCH  20  23
ENDBRANCH  14  20
ENDBRANCH   1  17
TORSDOF 4
ENDMDL
MODEL 2
REMARK VINA RESULT:      -6.9      3.888      4.841
REMARK  Name = 
REMARK  4 active torsions:
REMARK  status: ('A' for Active; 'I' for Inactive)
REMARK    1  A    between atoms: N_1  and  S_2
REMARK    2  A    between atoms: S_2  and  C_5
REMARK    3  A    between atoms: C_8  and  N_11
REMARK    4  A    between atoms: N_12  and  C_13
REMARK                            x       y       z     vdW  Elec       q    Type
REMARK                         _______ _______ _______ _____ _____    ______ ____
ROOT
ATOM      1  N   UNL     1       8.499  -2.078  25.291  0.00  0.00    -0.149 NA
ATOM      2  N   UNL     1       8.064  -2.078  24.126  0.00  0.00    -0.143 NA
ENDROOT
BRANCH   2   3
ATOM      3  C   UNL     1       8.519  -1.098  23.290  0.00  0.00    +0.159 C 
ATOM      4  C   UNL     1       9.771  -1.093  22.465  0.00  0.00    +0.288 C 
ATOM      5  O   UNL     1      10.590  -1.991  22.400  0.00  0.00    -0.266 OA
ATOM      6  N   UNL     1       9.848   0.111  21.788  0.00  0.00    -0.175 NA
ATOM      7  C   UNL     1       8.799   0.767  22.142  0.00  0.00    +0.066 A 
ATOM      8  C   UNL     1       8.387   2.118  21.719  0.00  0.00    +0.027 A 
ATOM      9  C   UNL     1       7.246   2.632  22.213  0.00  0.00    +0.017 A 
ATOM     10  C   UNL     1       6.389   1.909  23.151  0.00  0.00    +0.019 A 
ATOM     11 BR   UNL     1       4.835   2.762  23.735  0.00  0.00    -0.050 Br
ATOM     12  C   UNL     1       6.716   0.673  23.570  0.00  0.00    +0.027 A 
ATOM     13  C   UNL     1       7.919   0.073  23.081  0.00  0.00    +0.031 A 
ENDBRANCH   2   3
BRANCH   1  17
ATOM     14  C   UNL     1       6.508  -5.022  27.557  0.00  0.00    +0.105 A 
ATOM     15  C   UNL     1       7.778  -5.306  27.052  0.00  0.00    +0.030 A 
ATOM     16  C   UNL     1       8.457  -4.335  26.316  0.00  0.00    +0.031 A 
ATOM     17  C   UNL     1       7.890  -3.068  26.091  0.00  0.00    +0.086 A 
ATOM     18  C   UNL     1       6.623  -2.799  26.628  0.00  0.00    +0.031 A 
ATOM     19  C   UNL     1       5.929  -3.766  27.365  0.00  0.00    +0.030 A 
BRANCH  14  20
ATOM     20  S   UNL     1       5.596  -6.300  28.369  0.00  0.00    +0.056 S 
ATOM     21  O   UNL     1       6.516  -7.197  29.031  0.00  0.00    -0.153 OA
ATOM     22  O   UNL     1       4.463  -5.711  29.040  0.00  0.00    -0.153 OA
BRANCH  20  23
ATOM     23  N   UNL     1       4.992  -7.171  27.066  0.00  0.00    -0.204 NA
ATOM     24  H   UNL     1       4.603  -6.539  26.367  0.00  0.00    +0.144 HD
ATOM     25  H   UNL     1       5.715  -7.794  26.704  0.00  0.00    +0.144 HD
ENDBRANCH  20  23
ENDBRANCH  14  20
ENDBRANCH   1  17
TORSDOF 4
ENDMDL
MODEL 3
REMARK VINA RESULT:      -6.8      4.509      5.698
REMARK  Name = 
REMARK  4 active torsions:
REMARK  status: ('A' for Active; 'I' for Inactive)
REMARK    1  A    between atoms: N_1  and  S_2
REMARK    2  A    between atoms: S_2  and  C_5
REMARK    3  A    between atoms: C_8  and  N_11
REMARK    4  A    between atoms: N_12  and  C_13
REMARK                            x       y       z     vdW  Elec       q    Type
REMARK                         _______ _______ _______ _____ _____    ______ ____
ROOT
ATOM      1  N   UNL     1       6.912  -2.883  22.463  0.00  0.00    -0.149 NA
ATOM      2  N   UNL     1       7.311  -2.248  23.455  0.00  0.00    -0.143 NA
ENDROOT
BRANCH   2   3
ATOM      3  C   UNL     1       8.394  -1.432  23.281  0.00  0.00    +0.159 C 
ATOM      4  C   UNL     1       9.847  -1.789  23.383  0.00  0.00    +0.288 C 
ATOM      5  O   UNL     1      10.298  -2.893  23.628  0.00  0.00    -0.266 OA
ATOM      6  N   UNL     1      10.597  -0.650  23.156  0.00  0.00    -0.175 NA
ATOM      7  C   UNL     1       9.738   0.286  22.947  0.00  0.00    +0.066 A 
ATOM      8  C   UNL     1       9.997   1.709  22.658  0.00  0.00    +0.027 A 
ATOM      9  C   UNL     1       8.950   2.534  22.475  0.00  0.00    +0.017 A 
ATOM     10  C   UNL     1       7.562   2.084  22.545  0.00  0.00    +0.019 A 
ATOM     11 BR   UNL     1       6.226   3.356  22.258  0.00  0.00    -0.050 Br
ATOM     12  C   UNL     1       7.268   0.797  22.803  0.00  0.00    +0.027 A 
ATOM     13  C   UNL     1       8.338  -0.129  23.010  0.00  0.00    +0.031 A 
ENDBRANCH   2   3
BRANCH   1  17
ATOM     14  C   UNL     1       3.907  -5.663  23.463  0.00  0.00    +0.105 A 
ATOM     15  C   UNL     1       3.866  -4.393  24.040  0.00  0.00    +0.030 A 
ATOM     16  C   UNL     1       4.844  -3.455  23.704  0.00  0.00    +0.031 A 
ATOM     17  C   UNL     1       5.857  -3.765  22.780  0.00  0.00    +0.086 A 
ATOM     18  C   UNL     1       5.862  -5.040  22.196  0.00  0.00    +0.031 A 
ATOM     19  C   UNL     1       4.890  -5.991  22.528  0.00  0.00    +0.030 A 
BRANCH  14  20
ATOM     20  S   UNL     1       2.749  -6.889  23.994  0.00  0.00    +0.056 S 
ATOM     21  O   UNL     1       3.465  -8.011  24.556  0.00  0.00    -0.153 OA
ATOM     22  O   UNL     1       1.660  -6.237  24.678  0.00  0.00    -0.153 OA
BRANCH  20  23
ATOM     23  N   UNL     1       2.141  -7.443  22.529  0.00  0.00    -0.204 NA
ATOM     24  H   UNL     1       1.930  -8.439  22.587  0.00  0.00    +0.144 HD
ATOM     25  H   UNL     1       1.347  -6.868  22.247  0.00  0.00    +0.144 HD
ENDBRANCH  20  23
ENDBRANCH  14  20
ENDBRANCH   1  17
TORSDOF 4
ENDMDL
MODEL 4
REMARK VINA RESULT:      -6.7      4.101      8.517
REMARK  Name = 
REMARK  4 active torsions:
REMARK  status: ('A' for Active; 'I' for Inactive)
REMARK    1  A    between atoms: N_1  and  S_2
REMARK    2  A    between atoms: S_2  and  C_5
REMARK    3  A    between atoms: C_8  and  N_11
REMARK    4  A    between atoms: N_12  and  C_13
REMARK                            x       y       z     vdW  Elec       q    Type
REMARK                         _______ _______ _______ _____ _____    ______ ____
ROOT
ATOM      1  N   UNL     1       8.282  -0.049  23.289  0.00  0.00    -0.149 NA
ATOM      2  N   UNL     1       8.641  -0.459  24.407  0.00  0.00    -0.143 NA
ENDROOT
BRANCH   2   3
ATOM      3  C   UNL     1       8.740  -1.812  24.573  0.00  0.00    +0.159 C 
ATOM      4  C   UNL     1       9.725  -2.752  23.943  0.00  0.00    +0.288 C 
ATOM      5  O   UNL     1      10.620  -2.444  23.178  0.00  0.00    -0.266 OA
ATOM      6  N   UNL     1       9.444  -4.036  24.373  0.00  0.00    -0.175 NA
ATOM      7  C   UNL     1       8.428  -3.918  25.154  0.00  0.00    +0.066 A 
ATOM      8  C   UNL     1       7.715  -4.983  25.883  0.00  0.00    +0.027 A 
ATOM      9  C   UNL     1       6.662  -4.649  26.651  0.00  0.00    +0.017 A 
ATOM     10  C   UNL     1       6.193  -3.274  26.803  0.00  0.00    +0.019 A 
ATOM     11 BR   UNL     1       4.723  -2.980  27.914  0.00  0.00    -0.050 Br
ATOM     12  C   UNL     1       6.807  -2.263  26.162  0.00  0.00    +0.027 A 
ATOM     13  C   UNL     1       7.932  -2.555  25.328  0.00  0.00    +0.031 A 
ENDBRANCH   2   3
BRANCH   1  17
ATOM     14  C   UNL     1       8.000   4.156  23.201  0.00  0.00    +0.105 A 
ATOM     15  C   UNL     1       7.320   3.415  22.232  0.00  0.00    +0.030 A 
ATOM     16  C   UNL     1       7.389   2.021  22.260  0.00  0.00    +0.031 A 
ATOM     17  C   UNL     1       8.117   1.352  23.260  0.00  0.00    +0.086 A 
ATOM     18  C   UNL     1       8.771   2.118  24.235  0.00  0.00    +0.031 A 
ATOM     19  C   UNL     1       8.714   3.516  24.215  0.00  0.00    +0.030 A 
BRANCH  14  20
ATOM     20  S   UNL     1       8.022   5.919  23.080  0.00  0.00    +0.056 S 
ATOM     21  O   UNL     1       6.965   6.468  23.898  0.00  0.00    -0.153 OA
ATOM     22  O   UNL     1       9.388   6.375  23.161  0.00  0.00    -0.153 OA
BRANCH  20  23
ATOM     23  N   UNL     1       7.522   6.160  21.495  0.00  0.00    -0.204 NA
ATOM     24  H   UNL     1       6.889   6.957  21.441  0.00  0.00    +0.144 HD
ATOM     25  H   UNL     1       8.337   6.238  20.885  0.00  0.00    +0.144 HD
ENDBRANCH  20  23
ENDBRANCH  14  20
ENDBRANCH   1  17
TORSDOF 4
ENDMDL
MODEL 5
REMARK VINA RESULT:      -6.7      4.133      8.491
REMARK  Name = 
REMARK  4 active torsions:
REMARK  status: ('A' for Active; 'I' for Inactive)
REMARK    1  A    between atoms: N_1  and  S_2
REMARK    2  A    between atoms: S_2  and  C_5
REMARK    3  A    between atoms: C_8  and  N_11
REMARK    4  A    between atoms: N_12  and  C_13
REMARK                            x       y       z     vdW  Elec       q    Type
REMARK                         _______ _______ _______ _____ _____    ______ ____
ROOT
ATOM      1  N   UNL     1       9.658  -0.080  24.897  0.00  0.00    -0.149 NA
ATOM      2  N   UNL     1       8.662  -0.740  24.552  0.00  0.00    -0.143 NA
ENDROOT
BRANCH   2   3
ATOM      3  C   UNL     1       8.711  -2.091  24.743  0.00  0.00    +0.159 C 
ATOM      4  C   UNL     1       9.667  -3.077  24.139  0.00  0.00    +0.288 C 
ATOM      5  O   UNL     1      10.579  -2.815  23.377  0.00  0.00    -0.266 OA
ATOM      6  N   UNL     1       9.337  -4.342  24.588  0.00  0.00    -0.175 NA
ATOM      7  C   UNL     1       8.319  -4.175  25.358  0.00  0.00    +0.066 A 
ATOM      8  C   UNL     1       7.562  -5.201  26.098  0.00  0.00    +0.027 A 
ATOM      9  C   UNL     1       6.516  -4.816  26.852  0.00  0.00    +0.017 A 
ATOM     10  C   UNL     1       6.094  -3.422  26.974  0.00  0.00    +0.019 A 
ATOM     11 BR   UNL     1       4.626  -3.056  28.067  0.00  0.00    -0.050 Br
ATOM     12  C   UNL     1       6.750  -2.445  26.322  0.00  0.00    +0.027 A 
ATOM     13  C   UNL     1       7.871  -2.791  25.503  0.00  0.00    +0.031 A 
ENDBRANCH   2   3
BRANCH   1  17
ATOM     14  C   UNL     1       9.282   4.043  24.106  0.00  0.00    +0.105 A 
ATOM     15  C   UNL     1      10.387   3.359  23.597  0.00  0.00    +0.030 A 
ATOM     16  C   UNL     1      10.515   1.989  23.835  0.00  0.00    +0.031 A 
ATOM     17  C   UNL     1       9.539   1.286  24.563  0.00  0.00    +0.086 A 
ATOM     18  C   UNL     1       8.427   1.991  25.043  0.00  0.00    +0.031 A 
ATOM     19  C   UNL     1       8.288   3.365  24.815  0.00  0.00    +0.030 A 
BRANCH  14  20
ATOM     20  S   UNL     1       9.194   5.799  23.919  0.00  0.00    +0.056 S 
ATOM     21  O   UNL     1       8.269   6.337  24.890  0.00  0.00    -0.153 OA
ATOM     22  O   UNL     1      10.528   6.317  23.742  0.00  0.00    -0.153 OA
BRANCH  20  23
ATOM     23  N   UNL     1       8.414   5.947  22.439  0.00  0.00    -0.204 NA
ATOM     24  H   UNL     1       8.834   6.697  21.891  0.00  0.00    +0.144 HD
ATOM     25  H   UNL     1       8.404   5.043  21.963  0.00  0.00    +0.144 HD
ENDBRANCH  20  23
ENDBRANCH  14  20
ENDBRANCH   1  17
TORSDOF 4
ENDMDL
MODEL 6
REMARK VINA RESULT:      -6.4      5.040      8.994
REMARK  Name = 
REMARK  4 active torsions:
REMARK  status: ('A' for Active; 'I' for Inactive)
REMARK    1  A    between atoms: N_1  and  S_2
REMARK    2  A    between atoms: S_2  and  C_5
REMARK    3  A    between atoms: C_8  and  N_11
REMARK    4  A    between atoms: N_12  and  C_13
REMARK                            x       y       z     vdW  Elec       q    Type
REMARK                         _______ _______ _______ _____ _____    ______ ____
ROOT
ATOM      1  N   UNL     1       6.867  -2.107  25.664  0.00  0.00    -0.149 NA
ATOM      2  N   UNL     1       7.037  -3.163  25.030  0.00  0.00    -0.143 NA
ENDROOT
BRANCH   2   3
ATOM      3  C   UNL     1       6.628  -4.322  25.625  0.00  0.00    +0.159 C 
ATOM      4  C   UNL     1       7.349  -5.136  26.659  0.00  0.00    +0.288 C 
ATOM      5  O   UNL     1       8.431  -4.874  27.149  0.00  0.00    -0.266 OA
ATOM      6  N   UNL     1       6.580  -6.245  26.961  0.00  0.00    -0.175 NA
ATOM      7  C   UNL     1       5.531  -6.143  26.221  0.00  0.00    +0.066 A 
ATOM      8  C   UNL     1       4.384  -7.065  26.141  0.00  0.00    +0.027 A 
ATOM      9  C   UNL     1       3.381  -6.778  25.291  0.00  0.00    +0.017 A 
ATOM     10  C   UNL     1       3.374  -5.589  24.442  0.00  0.00    +0.019 A 
ATOM     11 BR   UNL     1       1.901  -5.335  23.324  0.00  0.00    -0.050 Br
ATOM     12  C   UNL     1       4.395  -4.714  24.475  0.00  0.00    +0.027 A 
ATOM     13  C   UNL     1       5.492  -4.965  25.358  0.00  0.00    +0.031 A 
ENDBRANCH   2   3
BRANCH   1  17
ATOM     14  C   UNL     1       8.659   1.237  23.828  0.00  0.00    +0.105 A 
ATOM     15  C   UNL     1       8.373   0.114  23.049  0.00  0.00    +0.030 A 
ATOM     16  C   UNL     1       7.762  -0.993  23.639  0.00  0.00    +0.031 A 
ATOM     17  C   UNL     1       7.415  -0.988  25.002  0.00  0.00    +0.086 A 
ATOM     18  C   UNL     1       7.690   0.160  25.758  0.00  0.00    +0.031 A 
ATOM     19  C   UNL     1       8.306   1.276  25.179  0.00  0.00    +0.030 A 
BRANCH  14  20
ATOM     20  S   UNL     1       9.554   2.581  23.109  0.00  0.00    +0.056 S 
ATOM     21  O   UNL     1       8.701   3.745  23.049  0.00  0.00    -0.153 OA
ATOM     22  O   UNL     1      10.881   2.614  23.675  0.00  0.00    -0.153 OA
BRANCH  20  23
ATOM     23  N   UNL     1       9.717   2.071  21.517  0.00  0.00    -0.204 NA
ATOM     24  H   UNL     1      10.196   2.781  20.965  0.00  0.00    +0.144 HD
ATOM     25  H   UNL     1      10.168   1.155  21.494  0.00  0.00    +0.144 HD
ENDBRANCH  20  23
ENDBRANCH  14  20
ENDBRANCH   1  17
TORSDOF 4
ENDMDL
MODEL 7
REMARK VINA RESULT:      -6.4      5.056      8.840
REMARK  Name = 
REMARK  4 active torsions:
REMARK  status: ('A' for Active; 'I' for Inactive)
REMARK    1  A    between atoms: N_1  and  S_2
REMARK    2  A    between atoms: S_2  and  C_5
REMARK    3  A    between atoms: C_8  and  N_11
REMARK    4  A    between atoms: N_12  and  C_13
REMARK                            x       y       z     vdW  Elec       q    Type
REMARK                         _______ _______ _______ _____ _____    ______ ____
ROOT
ATOM      1  N   UNL     1       7.581  -2.951  24.274  0.00  0.00    -0.149 NA
ATOM      2  N   UNL     1       6.360  -3.023  24.048  0.00  0.00    -0.143 NA
ENDROOT
BRANCH   2   3
ATOM      3  C   UNL     1       5.791  -4.264  24.084  0.00  0.00    +0.159 C 
ATOM      4  C   UNL     1       5.357  -5.117  22.929  0.00  0.00    +0.288 C 
ATOM      5  O   UNL     1       5.462  -4.833  21.750  0.00  0.00    -0.266 OA
ATOM      6  N   UNL     1       4.808  -6.285  23.425  0.00  0.00    -0.175 NA
ATOM      7  C   UNL     1       4.883  -6.178  24.706  0.00  0.00    +0.066 A 
ATOM      8  C   UNL     1       4.435  -7.144  25.726  0.00  0.00    +0.027 A 
ATOM      9  C   UNL     1       4.600  -6.837  27.026  0.00  0.00    +0.017 A 
ATOM     10  C   UNL     1       5.208  -5.587  27.476  0.00  0.00    +0.019 A 
ATOM     11 BR   UNL     1       5.371  -5.320  29.316  0.00  0.00    -0.050 Br
ATOM     12  C   UNL     1       5.636  -4.671  26.589  0.00  0.00    +0.027 A 
ATOM     13  C   UNL     1       5.486  -4.939  25.192  0.00  0.00    +0.031 A 
ENDBRANCH   2   3
BRANCH   1  17
ATOM     14  C   UNL     1       9.237   0.880  23.684  0.00  0.00    +0.105 A 
ATOM     15  C   UNL     1       7.910   0.655  23.311  0.00  0.00    +0.030 A 
ATOM     16  C   UNL     1       7.343  -0.603  23.518  0.00  0.00    +0.031 A 
ATOM     17  C   UNL     1       8.081  -1.642  24.112  0.00  0.00    +0.086 A 
ATOM     18  C   UNL     1       9.404  -1.384  24.500  0.00  0.00    +0.031 A 
ATOM     19  C   UNL     1       9.986  -0.128  24.294  0.00  0.00    +0.030 A 
BRANCH  14  20
ATOM     20  S   UNL     1       9.991   2.430  23.295  0.00  0.00    +0.056 S 
ATOM     21  O   UNL     1       9.042   3.495  23.524  0.00  0.00    -0.153 OA
ATOM     22  O   UNL     1      11.328   2.447  23.837  0.00  0.00    -0.153 OA
BRANCH  20  23
ATOM     23  N   UNL     1      10.145   2.328  21.626  0.00  0.00    -0.204 NA
ATOM     24  H   UNL     1      11.128   2.352  21.358  0.00  0.00    +0.144 HD
ATOM     25  H   UNL     1       9.643   1.507  21.284  0.00  0.00    +0.144 HD
ENDBRANCH  20  23
ENDBRANCH  14  20
ENDBRANCH   1  17
TORSDOF 4
ENDMDL
MODEL 8
REMARK VINA RESULT:      -6.3      3.433      4.189
REMARK  Name = 
REMARK  4 active torsions:
REMARK  status: ('A' for Active; 'I' for Inactive)
REMARK    1  A    between atoms: N_1  and  S_2
REMARK    2  A    between atoms: S_2  and  C_5
REMARK    3  A    between atoms: C_8  and  N_11
REMARK    4  A    between atoms: N_12  and  C_13
REMARK                            x       y       z     vdW  Elec       q    Type
REMARK                         _______ _______ _______ _____ _____    ______ ____
ROOT
ATOM      1  N   UNL     1       8.186  -2.072  23.973  0.00  0.00    -0.149 NA
ATOM      2  N   UNL     1       7.591  -1.096  23.482  0.00  0.00    -0.143 NA
ENDROOT
BRANCH   2   3
ATOM      3  C   UNL     1       8.351  -0.024  23.109  0.00  0.00    +0.159 C 
ATOM      4  C   UNL     1       9.317   0.072  21.965  0.00  0.00    +0.288 C 
ATOM      5  O   UNL     1       9.568  -0.809  21.164  0.00  0.00    -0.266 OA
ATOM      6  N   UNL     1       9.885   1.333  21.974  0.00  0.00    -0.175 NA
ATOM      7  C   UNL     1       9.356   1.938  22.980  0.00  0.00    +0.066 A 
ATOM      8  C   UNL     1       9.611   3.311  23.451  0.00  0.00    +0.027 A 
ATOM      9  C   UNL     1       8.952   3.756  24.537  0.00  0.00    +0.017 A 
ATOM     10  C   UNL     1       7.988   2.940  25.272  0.00  0.00    +0.019 A 
ATOM     11 BR   UNL     1       7.154   3.713  26.752  0.00  0.00    -0.050 Br
ATOM     12  C   UNL     1       7.716   1.681  24.885  0.00  0.00    +0.027 A 
ATOM     13  C   UNL     1       8.386   1.150  23.738  0.00  0.00    +0.031 A 
ENDBRANCH   2   3
BRANCH   1  17
ATOM     14  C   UNL     1       5.473  -5.099  25.086  0.00  0.00    +0.105 A 
ATOM     15  C   UNL     1       6.806  -5.210  25.486  0.00  0.00    +0.030 A 
ATOM     16  C   UNL     1       7.711  -4.206  25.140  0.00  0.00    +0.031 A 
ATOM     17  C   UNL     1       7.298  -3.076  24.413  0.00  0.00    +0.086 A 
ATOM     18  C   UNL     1       5.949  -2.977  24.043  0.00  0.00    +0.031 A 
ATOM     19  C   UNL     1       5.031  -3.979  24.380  0.00  0.00    +0.030 A 
BRANCH  14  20
ATOM     20  S   UNL     1       4.362  -6.436  25.406  0.00  0.00    +0.056 S 
ATOM     21  O   UNL     1       3.081  -5.907  25.814  0.00  0.00    -0.153 OA
ATOM     22  O   UNL     1       4.502  -7.420  24.361  0.00  0.00    -0.153 OA
BRANCH  20  23
ATOM     23  N   UNL     1       5.025  -7.106  26.797  0.00  0.00    -0.204 NA
ATOM     24  H   UNL     1       5.082  -6.406  27.535  0.00  0.00    +0.144 HD
ATOM     25  H   UNL     1       4.500  -7.942  27.059  0.00  0.00    +0.144 HD
ENDBRANCH  20  23
ENDBRANCH  14  20
ENDBRANCH   1  17
TORSDOF 4
ENDMDL
MODEL 9
REMARK VINA RESULT:      -6.2      4.682      8.812
REMARK  Name = 
REMARK  4 active torsions:
REMARK  status: ('A' for Active; 'I' for Inactive)
REMARK    1  A    between atoms: N_1  and  S_2
REMARK    2  A    between atoms: S_2  and  C_5
REMARK    3  A    between atoms: C_8  and  N_11
REMARK    4  A    between atoms: N_12  and  C_13
REMARK                            x       y       z     vdW  Elec       q    Type
REMARK                         _______ _______ _______ _____ _____    ______ ____
ROOT
ATOM      1  N   UNL     1       8.145  -2.072  26.320  0.00  0.00    -0.149 NA
ATOM      2  N   UNL     1       7.223  -2.842  25.996  0.00  0.00    -0.143 NA
ENDROOT
BRANCH   2   3
ATOM      3  C   UNL     1       7.005  -3.928  26.795  0.00  0.00    +0.159 C 
ATOM      4  C   UNL     1       7.849  -5.160  26.932  0.00  0.00    +0.288 C 
ATOM      5  O   UNL     1       8.892  -5.382  26.347  0.00  0.00    -0.266 OA
ATOM      6  N   UNL     1       7.239  -6.013  27.834  0.00  0.00    -0.175 NA
ATOM      7  C   UNL     1       6.167  -5.405  28.205  0.00  0.00    +0.066 A 
ATOM      8  C   UNL     1       5.142  -5.870  29.157  0.00  0.00    +0.027 A 
ATOM      9  C   UNL     1       4.083  -5.079  29.407  0.00  0.00    +0.017 A 
ATOM     10  C   UNL     1       3.901  -3.772  28.779  0.00  0.00    +0.019 A 
ATOM     11 BR   UNL     1       2.379  -2.796  29.242  0.00  0.00    -0.050 Br
ATOM     12  C   UNL     1       4.806  -3.297  27.904  0.00  0.00    +0.027 A 
ATOM     13  C   UNL     1       5.954  -4.094  27.596  0.00  0.00    +0.031 A 
ENDBRANCH   2   3
BRANCH   1  17
ATOM     14  C   UNL     1       8.554   1.070  23.542  0.00  0.00    +0.105 A 
ATOM     15  C   UNL     1       9.554   0.884  24.498  0.00  0.00    +0.030 A 
ATOM     16  C   UNL     1       9.441  -0.165  25.413  0.00  0.00    +0.031 A 
ATOM     17  C   UNL     1       8.346  -1.046  25.373  0.00  0.00    +0.086 A 
ATOM     18  C   UNL     1       7.368  -0.852  24.388  0.00  0.00    +0.031 A 
ATOM     19  C   UNL     1       7.467   0.198  23.468  0.00  0.00    +0.030 A 
BRANCH  14  20
ATOM     20  S   UNL     1       8.632   2.478  22.476  0.00  0.00    +0.056 S 
ATOM     21  O   UNL     1       7.596   2.378  21.474  0.00  0.00    -0.153 OA
ATOM     22  O   UNL     1       8.831   3.660  23.278  0.00  0.00    -0.153 OA
BRANCH  20  23
ATOM     23  N   UNL     1      10.070   2.204  21.651  0.00  0.00    -0.204 NA
ATOM     24  H   UNL     1       9.954   1.444  20.981  0.00  0.00    +0.144 HD
ATOM     25  H   UNL     1      10.399   3.076  21.234  0.00  0.00    +0.144 HD
ENDBRANCH  20  23
ENDBRANCH  14  20
ENDBRANCH   1  17
TORSDOF 4
ENDMDL
