MODEL 1
REMARK VINA RESULT:      -6.4      0.000      0.000
REMARK  Name = 
REMARK  13 active torsions:
REMARK  status: ('A' for Active; 'I' for Inactive)
REMARK    1  A    between atoms: C_1  and  C_2
REMARK    2  A    between atoms: C_3  and  C_4
REMARK    3  A    between atoms: C_4  and  C_5
REMARK    4  A    between atoms: C_5  and  C_7
REMARK    5  A    between atoms: C_5  and  N_10
REMARK    6  A    between atoms: C_7  and  C_8
REMARK    7  A    between atoms: C_13  and  C_15
REMARK    8  A    between atoms: C_15  and  C_16
REMARK    9  A    between atoms: C_15  and  C_17
REMARK   10  A    between atoms: C_15  and  N_20
REMARK   11  A    between atoms: C_17  and  C_18
REMARK   12  A    between atoms: C_17  and  C_19
REMARK   13  A    between atoms: C_21  and  C_23
REMARK                            x       y       z     vdW  Elec       q    Type
REMARK                         _______ _______ _______ _____ _____    ______ ____
ROOT
ATOM      1  C   UNL     1       8.835   0.655  23.154  0.00  0.00    +0.080 C 
ATOM      2  C   UNL     1       9.791   0.988  21.981  0.00  0.00    +0.039 C 
ENDROOT
BRANCH   1   5
ATOM      3  N   UNL     1       7.055  -2.552  22.789  0.00  0.00    -0.241 N 
ATOM      4  C   UNL     1       6.987  -1.237  23.143  0.00  0.00    +0.136 A 
ATOM      5  C   UNL     1       8.261  -0.744  22.931  0.00  0.00    +0.106 A 
ATOM      6  N   UNL     1       9.026  -1.759  22.412  0.00  0.00    -0.132 NA
ATOM      7  N   UNL     1       8.268  -2.837  22.277  0.00  0.00    -0.065 NA
BRANCH   3   8
ATOM      8  C   UNL     1       6.034  -3.587  22.810  0.00  0.00    +0.178 C 
BRANCH   8   9
ATOM      9  C   UNL     1       6.177  -4.656  21.731  0.00  0.00    +0.155 C 
ATOM     10  O   UNL     1       5.777  -4.422  20.581  0.00  0.00    -0.295 OA
ATOM     11  C   UNL     1       6.775  -6.011  22.014  0.00  0.00    +0.088 C 
ENDBRANCH   8   9
BRANCH   8  12
ATOM     12  C   UNL     1       5.815  -4.263  24.185  0.00  0.00    +0.061 C 
BRANCH  12  15
ATOM     13  C   UNL     1       8.989  -4.526  26.445  0.00  0.00    +0.035 C 
ATOM     14  C   UNL     1       7.943  -4.828  25.421  0.00  0.00    -0.034 C 
ATOM     15  C   UNL     1       6.906  -4.005  25.198  0.00  0.00    -0.029 C 
ENDBRANCH  12  15
ENDBRANCH   8  12
ENDBRANCH   3   8
ENDBRANCH   1   5
BRANCH   1  16
ATOM     16  N   UNL     1       7.686   1.592  23.095  0.00  0.00    -0.300 N 
ATOM     17  H   UNL     1       6.819   1.221  22.733  0.00  0.00    +0.150 HD
ATOM     18  C   UNL     1       7.796   2.966  23.146  0.00  0.00    +0.245 C 
ATOM     19  O   UNL     1       8.835   3.588  23.315  0.00  0.00    -0.270 OA
BRANCH  18  20
ATOM     20  C   UNL     1       6.525   3.694  22.916  0.00  0.00    +0.037 A 
ATOM     21  C   UNL     1       5.372   2.959  22.618  0.00  0.00    +0.013 A 
ATOM     22  C   UNL     1       4.152   3.617  22.459  0.00  0.00    +0.001 A 
ATOM     23  C   UNL     1       4.086   5.007  22.583  0.00  0.00    +0.000 A 
ATOM     24  C   UNL     1       5.243   5.743  22.848  0.00  0.00    +0.001 A 
ATOM     25  C   UNL     1       6.464   5.090  23.012  0.00  0.00    +0.013 A 
ENDBRANCH  18  20
ENDBRANCH   1  16
BRANCH   1  26
ATOM     26  C   UNL     1       9.568   0.765  24.541  0.00  0.00    +0.012 C 
ATOM     27  C   UNL     1      11.098   0.765  24.443  0.00  0.00    +0.010 C 
ATOM     28  C   UNL     1       9.134  -0.310  25.554  0.00  0.00    +0.010 C 
ENDBRANCH   1  26
TORSDOF 8
ENDMDL
MODEL 2
REMARK VINA RESULT:      -6.2      1.894      2.835
REMARK  Name = 
REMARK  13 active torsions:
REMARK  status: ('A' for Active; 'I' for Inactive)
REMARK    1  A    between atoms: C_1  and  C_2
REMARK    2  A    between atoms: C_3  and  C_4
REMARK    3  A    between atoms: C_4  and  C_5
REMARK    4  A    between atoms: C_5  and  C_7
REMARK    5  A    between atoms: C_5  and  N_10
REMARK    6  A    between atoms: C_7  and  C_8
REMARK    7  A    between atoms: C_13  and  C_15
REMARK    8  A    between atoms: C_15  and  C_16
REMARK    9  A    between atoms: C_15  and  C_17
REMARK   10  A    between atoms: C_15  and  N_20
REMARK   11  A    between atoms: C_17  and  C_18
REMARK   12  A    between atoms: C_17  and  C_19
REMARK   13  A    between atoms: C_21  and  C_23
REMARK                            x       y       z     vdW  Elec       q    Type
REMARK                         _______ _______ _______ _____ _____    ______ ____
ROOT
ATOM      1  C   UNL     1       8.817  -0.466  22.736  0.00  0.00    +0.080 C 
ATOM      2  C   UNL     1       9.373  -0.519  21.292  0.00  0.00    +0.039 C 
ENDROOT
BRANCH   1   5
ATOM      3  N   UNL     1       6.150  -3.007  22.640  0.00  0.00    -0.241 N 
ATOM      4  C   UNL     1       7.362  -2.598  22.166  0.00  0.00    +0.136 A 
ATOM      5  C   UNL     1       7.626  -1.418  22.834  0.00  0.00    +0.106 A 
ATOM      6  N   UNL     1       6.596  -1.190  23.714  0.00  0.00    -0.132 NA
ATOM      7  N   UNL     1       5.733  -2.192  23.627  0.00  0.00    -0.065 NA
BRANCH   3   8
ATOM      8  C   UNL     1       5.350  -4.174  22.299  0.00  0.00    +0.178 C 
BRANCH   8   9
ATOM      9  C   UNL     1       6.065  -5.217  21.445  0.00  0.00    +0.155 C 
ATOM     10  O   UNL     1       5.926  -5.199  20.214  0.00  0.00    -0.295 OA
ATOM     11  C   UNL     1       6.929  -6.296  22.048  0.00  0.00    +0.088 C 
ENDBRANCH   8   9
BRANCH   8  12
ATOM     12  C   UNL     1       4.659  -4.867  23.497  0.00  0.00    +0.061 C 
BRANCH  12  15
ATOM     13  C   UNL     1       1.130  -6.404  22.834  0.00  0.00    +0.035 C 
ATOM     14  C   UNL     1       2.608  -6.252  22.992  0.00  0.00    -0.034 C 
ATOM     15  C   UNL     1       3.172  -5.082  23.331  0.00  0.00    -0.029 C 
ENDBRANCH  12  15
ENDBRANCH   8  12
ENDBRANCH   3   8
ENDBRANCH   1   5
BRANCH   1  16
ATOM     16  N   UNL     1       8.282   0.897  22.976  0.00  0.00    -0.300 N 
ATOM     17  H   UNL     1       7.279   0.981  23.058  0.00  0.00    +0.150 HD
ATOM     18  C   UNL     1       8.981   2.063  22.739  0.00  0.00    +0.245 C 
ATOM     19  O   UNL     1      10.146   2.129  22.370  0.00  0.00    -0.270 OA
BRANCH  18  20
ATOM     20  C   UNL     1       8.186   3.303  22.909  0.00  0.00    +0.037 A 
ATOM     21  C   UNL     1       6.901   3.360  22.358  0.00  0.00    +0.013 A 
ATOM     22  C   UNL     1       6.110   4.491  22.558  0.00  0.00    +0.001 A 
ATOM     23  C   UNL     1       6.607   5.570  23.295  0.00  0.00    +0.000 A 
ATOM     24  C   UNL     1       7.901   5.526  23.817  0.00  0.00    +0.001 A 
ATOM     25  C   UNL     1       8.694   4.395  23.624  0.00  0.00    +0.013 A 
ENDBRANCH  18  20
ENDBRANCH   1  16
BRANCH   1  26
ATOM     26  C   UNL     1       9.928  -0.818  23.793  0.00  0.00    +0.012 C 
ATOM     27  C   UNL     1      10.189  -2.321  23.951  0.00  0.00    +0.010 C 
ATOM     28  C   UNL     1       9.670  -0.208  25.183  0.00  0.00    +0.010 C 
ENDBRANCH   1  26
TORSDOF 8
ENDMDL
MODEL 3
REMARK VINA RESULT:      -6.2      3.247      7.417
REMARK  Name = 
REMARK  13 active torsions:
REMARK  status: ('A' for Active; 'I' for Inactive)
REMARK    1  A    between atoms: C_1  and  C_2
REMARK    2  A    between atoms: C_3  and  C_4
REMARK    3  A    between atoms: C_4  and  C_5
REMARK    4  A    between atoms: C_5  and  C_7
REMARK    5  A    between atoms: C_5  and  N_10
REMARK    6  A    between atoms: C_7  and  C_8
REMARK    7  A    between atoms: C_13  and  C_15
REMARK    8  A    between atoms: C_15  and  C_16
REMARK    9  A    between atoms: C_15  and  C_17
REMARK   10  A    between atoms: C_15  and  N_20
REMARK   11  A    between atoms: C_17  and  C_18
REMARK   12  A    between atoms: C_17  and  C_19
REMARK   13  A    between atoms: C_21  and  C_23
REMARK                            x       y       z     vdW  Elec       q    Type
REMARK                         _______ _______ _______ _____ _____    ______ ____
ROOT
ATOM      1  C   UNL     1       6.791  -4.412  23.655  0.00  0.00    +0.080 C 
ATOM      2  C   UNL     1       7.092  -5.697  22.844  0.00  0.00    +0.039 C 
ENDROOT
BRANCH   1   5
ATOM      3  N   UNL     1       9.529  -1.951  23.472  0.00  0.00    -0.241 N 
ATOM      4  C   UNL     1       8.200  -2.204  23.294  0.00  0.00    +0.136 A 
ATOM      5  C   UNL     1       8.038  -3.530  23.651  0.00  0.00    +0.106 A 
ATOM      6  N   UNL     1       9.255  -4.005  24.075  0.00  0.00    -0.132 NA
ATOM      7  N   UNL     1      10.140  -3.021  24.015  0.00  0.00    -0.065 NA
BRANCH   3   8
ATOM      8  C   UNL     1      10.294  -0.735  23.246  0.00  0.00    +0.178 C 
BRANCH   8   9
ATOM      9  C   UNL     1       9.846   0.094  22.047  0.00  0.00    +0.155 C 
ATOM     10  O   UNL     1       9.418  -0.476  21.033  0.00  0.00    -0.295 OA
ATOM     11  C   UNL     1       9.923   1.601  22.036  0.00  0.00    +0.088 C 
ENDBRANCH   8   9
BRANCH   8  12
ATOM     12  C   UNL     1      10.449   0.181  24.483  0.00  0.00    +0.061 C 
BRANCH  12  15
ATOM     13  C   UNL     1       7.119   0.957  26.370  0.00  0.00    +0.035 C 
ATOM     14  C   UNL     1       8.248   1.020  25.393  0.00  0.00    -0.034 C 
ATOM     15  C   UNL     1       9.277   0.159  25.437  0.00  0.00    -0.029 C 
ENDBRANCH  12  15
ENDBRANCH   8  12
ENDBRANCH   3   8
ENDBRANCH   1   5
BRANCH   1  16
ATOM     16  N   UNL     1       6.559  -4.800  25.068  0.00  0.00    -0.300 N 
ATOM     17  H   UNL     1       6.365  -5.776  25.242  0.00  0.00    +0.150 HD
ATOM     18  C   UNL     1       6.237  -3.918  26.078  0.00  0.00    +0.245 C 
ATOM     19  O   UNL     1       6.167  -2.702  25.962  0.00  0.00    -0.270 OA
BRANCH  18  20
ATOM     20  C   UNL     1       5.904  -4.559  27.373  0.00  0.00    +0.037 A 
ATOM     21  C   UNL     1       6.579  -5.728  27.739  0.00  0.00    +0.013 A 
ATOM     22  C   UNL     1       6.328  -6.315  28.980  0.00  0.00    +0.001 A 
ATOM     23  C   UNL     1       5.394  -5.743  29.847  0.00  0.00    +0.000 A 
ATOM     24  C   UNL     1       4.696  -4.594  29.468  0.00  0.00    +0.001 A 
ATOM     25  C   UNL     1       4.947  -4.001  28.230  0.00  0.00    +0.013 A 
ENDBRANCH  18  20
ENDBRANCH   1  16
BRANCH   1  26
ATOM     26  C   UNL     1       5.541  -3.650  23.079  0.00  0.00    +0.012 C 
ATOM     27  C   UNL     1       4.201  -4.343  23.359  0.00  0.00    +0.010 C 
ATOM     28  C   UNL     1       5.643  -3.351  21.572  0.00  0.00    +0.010 C 
ENDBRANCH   1  26
TORSDOF 8
ENDMDL
MODEL 4
REMARK VINA RESULT:      -6.2      0.936      1.544
REMARK  Name = 
REMARK  13 active torsions:
REMARK  status: ('A' for Active; 'I' for Inactive)
REMARK    1  A    between atoms: C_1  and  C_2
REMARK    2  A    between atoms: C_3  and  C_4
REMARK    3  A    between atoms: C_4  and  C_5
REMARK    4  A    between atoms: C_5  and  C_7
REMARK    5  A    between atoms: C_5  and  N_10
REMARK    6  A    between atoms: C_7  and  C_8
REMARK    7  A    between atoms: C_13  and  C_15
REMARK    8  A    between atoms: C_15  and  C_16
REMARK    9  A    between atoms: C_15  and  C_17
REMARK   10  A    between atoms: C_15  and  N_20
REMARK   11  A    between atoms: C_17  and  C_18
REMARK   12  A    between atoms: C_17  and  C_19
REMARK   13  A    between atoms: C_21  and  C_23
REMARK                            x       y       z     vdW  Elec       q    Type
REMARK                         _______ _______ _______ _____ _____    ______ ____
ROOT
ATOM      1  C   UNL     1       8.890   0.881  23.109  0.00  0.00    +0.080 C 
ATOM      2  C   UNL     1       9.765   1.276  21.893  0.00  0.00    +0.039 C 
ENDROOT
BRANCH   1   5
ATOM      3  N   UNL     1       7.406  -2.485  22.891  0.00  0.00    -0.241 N 
ATOM      4  C   UNL     1       7.242  -1.181  23.255  0.00  0.00    +0.136 A 
ATOM      5  C   UNL     1       8.438  -0.567  22.933  0.00  0.00    +0.106 A 
ATOM      6  N   UNL     1       9.250  -1.507  22.345  0.00  0.00    -0.132 NA
ATOM      7  N   UNL     1       8.591  -2.653  22.274  0.00  0.00    -0.065 NA
BRANCH   3   8
ATOM      8  C   UNL     1       6.496  -3.614  22.999  0.00  0.00    +0.178 C 
BRANCH   8   9
ATOM      9  C   UNL     1       6.314  -4.420  21.717  0.00  0.00    +0.155 C 
ATOM     10  O   UNL     1       5.643  -3.948  20.787  0.00  0.00    -0.295 OA
ATOM     11  C   UNL     1       6.908  -5.795  21.538  0.00  0.00    +0.088 C 
ENDBRANCH   8   9
BRANCH   8  12
ATOM     12  C   UNL     1       6.779  -4.574  24.180  0.00  0.00    +0.061 C 
BRANCH  12  15
ATOM     13  C   UNL     1       4.307  -6.679  26.349  0.00  0.00    +0.035 C 
ATOM     14  C   UNL     1       5.560  -6.147  25.733  0.00  0.00    -0.034 C 
ATOM     15  C   UNL     1       5.547  -5.145  24.841  0.00  0.00    -0.029 C 
ENDBRANCH  12  15
ENDBRANCH   8  12
ENDBRANCH   3   8
ENDBRANCH   1   5
BRANCH   1  16
ATOM     16  N   UNL     1       7.660   1.709  23.082  0.00  0.00    -0.300 N 
ATOM     17  H   UNL     1       6.830   1.273  22.706  0.00  0.00    +0.150 HD
ATOM     18  C   UNL     1       7.642   3.085  23.182  0.00  0.00    +0.245 C 
ATOM     19  O   UNL     1       8.620   3.795  23.374  0.00  0.00    -0.270 OA
BRANCH  18  20
ATOM     20  C   UNL     1       6.308   3.700  22.976  0.00  0.00    +0.037 A 
ATOM     21  C   UNL     1       6.182   5.088  23.095  0.00  0.00    +0.013 A 
ATOM     22  C   UNL     1       4.952   5.697  22.844  0.00  0.00    +0.001 A 
ATOM     23  C   UNL     1       3.847   4.918  22.490  0.00  0.00    +0.000 A 
ATOM     24  C   UNL     1       3.966   3.530  22.403  0.00  0.00    +0.001 A 
ATOM     25  C   UNL     1       5.195   2.918  22.648  0.00  0.00    +0.013 A 
ENDBRANCH  18  20
ENDBRANCH   1  16
BRANCH   1  26
ATOM     26  C   UNL     1       9.665   1.085  24.463  0.00  0.00    +0.012 C 
ATOM     27  C   UNL     1      11.185   0.916  24.347  0.00  0.00    +0.010 C 
ATOM     28  C   UNL     1       9.150   0.192  25.607  0.00  0.00    +0.010 C 
ENDBRANCH   1  26
TORSDOF 8
ENDMDL
MODEL 5
REMARK VINA RESULT:      -6.1      1.296      1.628
REMARK  Name = 
REMARK  13 active torsions:
REMARK  status: ('A' for Active; 'I' for Inactive)
REMARK    1  A    between atoms: C_1  and  C_2
REMARK    2  A    between atoms: C_3  and  C_4
REMARK    3  A    between atoms: C_4  and  C_5
REMARK    4  A    between atoms: C_5  and  C_7
REMARK    5  A    between atoms: C_5  and  N_10
REMARK    6  A    between atoms: C_7  and  C_8
REMARK    7  A    between atoms: C_13  and  C_15
REMARK    8  A    between atoms: C_15  and  C_16
REMARK    9  A    between atoms: C_15  and  C_17
REMARK   10  A    between atoms: C_15  and  N_20
REMARK   11  A    between atoms: C_17  and  C_18
REMARK   12  A    between atoms: C_17  and  C_19
REMARK   13  A    between atoms: C_21  and  C_23
REMARK                            x       y       z     vdW  Elec       q    Type
REMARK                         _______ _______ _______ _____ _____    ______ ____
ROOT
ATOM      1  C   UNL     1       8.220   1.086  22.953  0.00  0.00    +0.080 C 
ATOM      2  C   UNL     1       8.648   1.682  21.589  0.00  0.00    +0.039 C 
ENDROOT
BRANCH   1   5
ATOM      3  N   UNL     1       7.593  -2.544  22.855  0.00  0.00    -0.241 N 
ATOM      4  C   UNL     1       7.145  -1.313  23.234  0.00  0.00    +0.136 A 
ATOM      5  C   UNL     1       8.123  -0.432  22.813  0.00  0.00    +0.106 A 
ATOM      6  N   UNL     1       9.090  -1.155  22.158  0.00  0.00    -0.132 NA
ATOM      7  N   UNL     1       8.728  -2.429  22.140  0.00  0.00    -0.065 NA
BRANCH   3   8
ATOM      8  C   UNL     1       6.999  -3.859  23.037  0.00  0.00    +0.178 C 
BRANCH   8   9
ATOM      9  C   UNL     1       6.301  -4.427  21.805  0.00  0.00    +0.155 C 
ATOM     10  O   UNL     1       5.585  -3.689  21.113  0.00  0.00    -0.295 OA
ATOM     11  C   UNL     1       6.431  -5.874  21.401  0.00  0.00    +0.088 C 
ENDBRANCH   8   9
BRANCH   8  12
ATOM     12  C   UNL     1       7.945  -4.927  23.637  0.00  0.00    +0.061 C 
BRANCH  12  15
ATOM     13  C   UNL     1       6.967  -5.398  27.389  0.00  0.00    +0.035 C 
ATOM     14  C   UNL     1       6.905  -5.365  25.896  0.00  0.00    -0.034 C 
ATOM     15  C   UNL     1       7.953  -4.989  25.147  0.00  0.00    -0.029 C 
ENDBRANCH  12  15
ENDBRANCH   8  12
ENDBRANCH   3   8
ENDBRANCH   1   5
BRANCH   1  16
ATOM     16  N   UNL     1       6.849   1.566  23.258  0.00  0.00    -0.300 N 
ATOM     17  H   UNL     1       6.104   0.891  23.164  0.00  0.00    +0.150 HD
ATOM     18  C   UNL     1       6.478   2.893  23.301  0.00  0.00    +0.245 C 
ATOM     19  O   UNL     1       7.233   3.846  23.163  0.00  0.00    -0.270 OA
BRANCH  18  20
ATOM     20  C   UNL     1       5.022   3.121  23.474  0.00  0.00    +0.037 A 
ATOM     21  C   UNL     1       4.255   3.456  22.353  0.00  0.00    +0.013 A 
ATOM     22  C   UNL     1       2.875   3.613  22.479  0.00  0.00    +0.001 A 
ATOM     23  C   UNL     1       2.264   3.449  23.725  0.00  0.00    +0.000 A 
ATOM     24  C   UNL     1       3.034   3.146  24.850  0.00  0.00    +0.001 A 
ATOM     25  C   UNL     1       4.414   2.984  24.728  0.00  0.00    +0.013 A 
ENDBRANCH  18  20
ENDBRANCH   1  16
BRANCH   1  26
ATOM     26  C   UNL     1       9.217   1.500  24.098  0.00  0.00    +0.012 C 
ATOM     27  C   UNL     1      10.473   2.227  23.602  0.00  0.00    +0.010 C 
ATOM     28  C   UNL     1       9.644   0.324  24.997  0.00  0.00    +0.010 C 
ENDBRANCH   1  26
TORSDOF 8
ENDMDL
MODEL 6
REMARK VINA RESULT:      -6.0      2.807      4.565
REMARK  Name = 
REMARK  13 active torsions:
REMARK  status: ('A' for Active; 'I' for Inactive)
REMARK    1  A    between atoms: C_1  and  C_2
REMARK    2  A    between atoms: C_3  and  C_4
REMARK    3  A    between atoms: C_4  and  C_5
REMARK    4  A    between atoms: C_5  and  C_7
REMARK    5  A    between atoms: C_5  and  N_10
REMARK    6  A    between atoms: C_7  and  C_8
REMARK    7  A    between atoms: C_13  and  C_15
REMARK    8  A    between atoms: C_15  and  C_16
REMARK    9  A    between atoms: C_15  and  C_17
REMARK   10  A    between atoms: C_15  and  N_20
REMARK   11  A    between atoms: C_17  and  C_18
REMARK   12  A    between atoms: C_17  and  C_19
REMARK   13  A    between atoms: C_21  and  C_23
REMARK                            x       y       z     vdW  Elec       q    Type
REMARK                         _______ _______ _______ _____ _____    ______ ____
ROOT
ATOM      1  C   UNL     1       7.617   2.023  24.625  0.00  0.00    +0.080 C 
ATOM      2  C   UNL     1       7.354   2.111  26.149  0.00  0.00    +0.039 C 
ENDROOT
BRANCH   1   5
ATOM      3  N   UNL     1       8.170  -1.573  24.037  0.00  0.00    -0.241 N 
ATOM      4  C   UNL     1       7.374  -0.610  24.583  0.00  0.00    +0.136 A 
ATOM      5  C   UNL     1       8.000   0.584  24.280  0.00  0.00    +0.106 A 
ATOM      6  N   UNL     1       9.112   0.299  23.525  0.00  0.00    -0.132 NA
ATOM      7  N   UNL     1       9.173  -1.010  23.336  0.00  0.00    -0.065 NA
BRANCH   3   8
ATOM      8  C   UNL     1       8.034  -3.021  24.042  0.00  0.00    +0.178 C 
BRANCH   8   9
ATOM      9  C   UNL     1       8.977  -3.753  24.992  0.00  0.00    +0.155 C 
ATOM     10  O   UNL     1      10.008  -4.279  24.547  0.00  0.00    -0.295 OA
ATOM     11  C   UNL     1       8.692  -3.882  26.468  0.00  0.00    +0.088 C 
ENDBRANCH   8   9
BRANCH   8  12
ATOM     12  C   UNL     1       6.591  -3.544  24.237  0.00  0.00    +0.061 C 
BRANCH  12  15
ATOM     13  C   UNL     1       6.248  -5.711  21.007  0.00  0.00    +0.035 C 
ATOM     14  C   UNL     1       6.824  -4.884  22.110  0.00  0.00    -0.034 C 
ATOM     15  C   UNL     1       6.066  -4.393  23.103  0.00  0.00    -0.029 C 
ENDBRANCH  12  15
ENDBRANCH   8  12
ENDBRANCH   3   8
ENDBRANCH   1   5
BRANCH   1  16
ATOM     16  N   UNL     1       8.803   2.857  24.312  0.00  0.00    -0.300 N 
ATOM     17  H   UNL     1       9.700   2.394  24.334  0.00  0.00    +0.150 HD
ATOM     18  C   UNL     1       8.820   4.236  24.351  0.00  0.00    +0.245 C 
ATOM     19  O   UNL     1       7.854   4.951  24.580  0.00  0.00    -0.270 OA
BRANCH  18  20
ATOM     20  C   UNL     1      10.158   4.841  24.148  0.00  0.00    +0.037 A 
ATOM     21  C   UNL     1      10.441   6.070  24.754  0.00  0.00    +0.013 A 
ATOM     22  C   UNL     1      11.713   6.629  24.630  0.00  0.00    +0.001 A 
ATOM     23  C   UNL     1      12.697   5.969  23.888  0.00  0.00    +0.000 A 
ATOM     24  C   UNL     1      12.405   4.759  23.256  0.00  0.00    +0.001 A 
ATOM     25  C   UNL     1      11.136   4.194  23.382  0.00  0.00    +0.013 A 
ENDBRANCH  18  20
ENDBRANCH   1  16
BRANCH   1  26
ATOM     26  C   UNL     1       6.368   2.503  23.798  0.00  0.00    +0.012 C 
ATOM     27  C   UNL     1       5.021   2.070  24.389  0.00  0.00    +0.010 C 
ATOM     28  C   UNL     1       6.417   2.093  22.315  0.00  0.00    +0.010 C 
ENDBRANCH   1  26
TORSDOF 8
ENDMDL
MODEL 7
REMARK VINA RESULT:      -6.0      2.159      7.380
REMARK  Name = 
REMARK  13 active torsions:
REMARK  status: ('A' for Active; 'I' for Inactive)
REMARK    1  A    between atoms: C_1  and  C_2
REMARK    2  A    between atoms: C_3  and  C_4
REMARK    3  A    between atoms: C_4  and  C_5
REMARK    4  A    between atoms: C_5  and  C_7
REMARK    5  A    between atoms: C_5  and  N_10
REMARK    6  A    between atoms: C_7  and  C_8
REMARK    7  A    between atoms: C_13  and  C_15
REMARK    8  A    between atoms: C_15  and  C_16
REMARK    9  A    between atoms: C_15  and  C_17
REMARK   10  A    between atoms: C_15  and  N_20
REMARK   11  A    between atoms: C_17  and  C_18
REMARK   12  A    between atoms: C_17  and  C_19
REMARK   13  A    between atoms: C_21  and  C_23
REMARK                            x       y       z     vdW  Elec       q    Type
REMARK                         _______ _______ _______ _____ _____    ______ ____
ROOT
ATOM      1  C   UNL     1       8.615  -1.181  24.606  0.00  0.00    +0.080 C 
ATOM      2  C   UNL     1       8.738  -1.503  26.116  0.00  0.00    +0.039 C 
ENDROOT
BRANCH   1   5
ATOM      3  N   UNL     1       6.448   1.679  23.766  0.00  0.00    -0.241 N 
ATOM      4  C   UNL     1       7.052   0.533  23.338  0.00  0.00    +0.136 A 
ATOM      5  C   UNL     1       7.733   0.055  24.442  0.00  0.00    +0.106 A 
ATOM      6  N   UNL     1       7.474   0.897  25.496  0.00  0.00    -0.132 NA
ATOM      7  N   UNL     1       6.646   1.847  25.087  0.00  0.00    -0.065 NA
BRANCH   3   8
ATOM      8  C   UNL     1       5.608   2.625  23.049  0.00  0.00    +0.178 C 
BRANCH   8   9
ATOM      9  C   UNL     1       4.478   3.236  23.872  0.00  0.00    +0.155 C 
ATOM     10  O   UNL     1       3.475   2.557  24.133  0.00  0.00    -0.295 OA
ATOM     11  C   UNL     1       4.524   4.659  24.371  0.00  0.00    +0.088 C 
ENDBRANCH   8   9
BRANCH   8  12
ATOM     12  C   UNL     1       6.372   3.745  22.303  0.00  0.00    +0.061 C 
BRANCH  12  15
ATOM     13  C   UNL     1       9.729   4.881  23.943  0.00  0.00    +0.035 C 
ATOM     14  C   UNL     1       8.279   4.774  23.599  0.00  0.00    -0.034 C 
ATOM     15  C   UNL     1       7.823   3.892  22.697  0.00  0.00    -0.029 C 
ENDBRANCH  12  15
ENDBRANCH   8  12
ENDBRANCH   3   8
ENDBRANCH   1   5
BRANCH   1  16
ATOM     16  N   UNL     1       7.891  -2.300  23.953  0.00  0.00    -0.300 N 
ATOM     17  H   UNL     1       6.916  -2.144  23.740  0.00  0.00    +0.150 HD
ATOM     18  C   UNL     1       8.322  -3.610  23.945  0.00  0.00    +0.245 C 
ATOM     19  O   UNL     1       9.380  -4.011  24.410  0.00  0.00    -0.270 OA
BRANCH  18  20
ATOM     20  C   UNL     1       7.356  -4.573  23.362  0.00  0.00    +0.037 A 
ATOM     21  C   UNL     1       6.366  -5.116  24.188  0.00  0.00    +0.013 A 
ATOM     22  C   UNL     1       5.408  -5.974  23.649  0.00  0.00    +0.001 A 
ATOM     23  C   UNL     1       5.447  -6.302  22.291  0.00  0.00    +0.000 A 
ATOM     24  C   UNL     1       6.456  -5.785  21.474  0.00  0.00    +0.001 A 
ATOM     25  C   UNL     1       7.413  -4.923  22.008  0.00  0.00    +0.013 A 
ENDBRANCH  18  20
ENDBRANCH   1  16
BRANCH   1  26
ATOM     26  C   UNL     1      10.028  -0.976  23.945  0.00  0.00    +0.012 C 
ATOM     27  C   UNL     1      10.716   0.339  24.333  0.00  0.00    +0.010 C 
ATOM     28  C   UNL     1      10.014  -1.098  22.410  0.00  0.00    +0.010 C 
ENDBRANCH   1  26
TORSDOF 8
ENDMDL
MODEL 8
REMARK VINA RESULT:      -6.0      2.004      3.121
REMARK  Name = 
REMARK  13 active torsions:
REMARK  status: ('A' for Active; 'I' for Inactive)
REMARK    1  A    between atoms: C_1  and  C_2
REMARK    2  A    between atoms: C_3  and  C_4
REMARK    3  A    between atoms: C_4  and  C_5
REMARK    4  A    between atoms: C_5  and  C_7
REMARK    5  A    between atoms: C_5  and  N_10
REMARK    6  A    between atoms: C_7  and  C_8
REMARK    7  A    between atoms: C_13  and  C_15
REMARK    8  A    between atoms: C_15  and  C_16
REMARK    9  A    between atoms: C_15  and  C_17
REMARK   10  A    between atoms: C_15  and  N_20
REMARK   11  A    between atoms: C_17  and  C_18
REMARK   12  A    between atoms: C_17  and  C_19
REMARK   13  A    between atoms: C_21  and  C_23
REMARK                            x       y       z     vdW  Elec       q    Type
REMARK                         _______ _______ _______ _____ _____    ______ ____
ROOT
ATOM      1  C   UNL     1       9.279   0.247  22.986  0.00  0.00    +0.080 C 
ATOM      2  C   UNL     1       9.346   0.255  21.438  0.00  0.00    +0.039 C 
ENDROOT
BRANCH   1   5
ATOM      3  N   UNL     1       8.449  -3.105  24.275  0.00  0.00    -0.241 N 
ATOM      4  C   UNL     1       8.034  -1.823  24.061  0.00  0.00    +0.136 A 
ATOM      5  C   UNL     1       9.108  -1.196  23.457  0.00  0.00    +0.106 A 
ATOM      6  N   UNL     1      10.101  -2.130  23.286  0.00  0.00    -0.132 NA
ATOM      7  N   UNL     1       9.667  -3.298  23.734  0.00  0.00    -0.065 NA
BRANCH   3   8
ATOM      8  C   UNL     1       7.759  -4.228  24.889  0.00  0.00    +0.178 C 
BRANCH   8   9
ATOM      9  C   UNL     1       7.621  -4.146  26.407  0.00  0.00    +0.155 C 
ATOM     10  O   UNL     1       8.549  -4.540  27.128  0.00  0.00    -0.295 OA
ATOM     11  C   UNL     1       6.377  -3.617  27.075  0.00  0.00    +0.088 C 
ENDBRANCH   8   9
BRANCH   8  12
ATOM     12  C   UNL     1       6.389  -4.579  24.261  0.00  0.00    +0.061 C 
BRANCH  12  15
ATOM     13  C   UNL     1       6.175  -5.926  20.602  0.00  0.00    +0.035 C 
ATOM     14  C   UNL     1       6.087  -5.031  21.795  0.00  0.00    -0.034 C 
ATOM     15  C   UNL     1       6.464  -5.435  23.018  0.00  0.00    -0.029 C 
ENDBRANCH  12  15
ENDBRANCH   8  12
ENDBRANCH   3   8
ENDBRANCH   1   5
BRANCH   1  16
ATOM     16  N   UNL     1       8.051   0.970  23.399  0.00  0.00    -0.300 N 
ATOM     17  H   UNL     1       7.594   0.640  24.237  0.00  0.00    +0.150 HD
ATOM     18  C   UNL     1       7.307   1.784  22.570  0.00  0.00    +0.245 C 
ATOM     19  O   UNL     1       7.594   2.071  21.416  0.00  0.00    -0.270 OA
BRANCH  18  20
ATOM     20  C   UNL     1       6.040   2.275  23.164  0.00  0.00    +0.037 A 
ATOM     21  C   UNL     1       5.233   3.135  22.412  0.00  0.00    +0.013 A 
ATOM     22  C   UNL     1       4.007   3.560  22.924  0.00  0.00    +0.001 A 
ATOM     23  C   UNL     1       3.594   3.137  24.191  0.00  0.00    +0.000 A 
ATOM     24  C   UNL     1       4.415   2.305  24.954  0.00  0.00    +0.001 A 
ATOM     25  C   UNL     1       5.640   1.874  24.445  0.00  0.00    +0.013 A 
ENDBRANCH  18  20
ENDBRANCH   1  16
BRANCH   1  26
ATOM     26  C   UNL     1      10.554   0.916  23.619  0.00  0.00    +0.012 C 
ATOM     27  C   UNL     1      10.818   0.508  25.074  0.00  0.00    +0.010 C 
ATOM     28  C   UNL     1      10.555   2.452  23.524  0.00  0.00    +0.010 C 
ENDBRANCH   1  26
TORSDOF 8
ENDMDL
MODEL 9
REMARK VINA RESULT:      -6.0      2.785      4.554
REMARK  Name = 
REMARK  13 active torsions:
REMARK  status: ('A' for Active; 'I' for Inactive)
REMARK    1  A    between atoms: C_1  and  C_2
REMARK    2  A    between atoms: C_3  and  C_4
REMARK    3  A    between atoms: C_4  and  C_5
REMARK    4  A    between atoms: C_5  and  C_7
REMARK    5  A    between atoms: C_5  and  N_10
REMARK    6  A    between atoms: C_7  and  C_8
REMARK    7  A    between atoms: C_13  and  C_15
REMARK    8  A    between atoms: C_15  and  C_16
REMARK    9  A    between atoms: C_15  and  C_17
REMARK   10  A    between atoms: C_15  and  N_20
REMARK   11  A    between atoms: C_17  and  C_18
REMARK   12  A    between atoms: C_17  and  C_19
REMARK   13  A    between atoms: C_21  and  C_23
REMARK                            x       y       z     vdW  Elec       q    Type
REMARK                         _______ _______ _______ _____ _____    ______ ____
ROOT
ATOM      1  C   UNL     1       6.936   2.366  25.123  0.00  0.00    +0.080 C 
ATOM      2  C   UNL     1       6.727   2.087  26.632  0.00  0.00    +0.039 C 
ENDROOT
BRANCH   1   5
ATOM      3  N   UNL     1       7.624  -0.969  23.714  0.00  0.00    -0.241 N 
ATOM      4  C   UNL     1       7.837  -0.089  24.734  0.00  0.00    +0.136 A 
ATOM      5  C   UNL     1       7.100   1.031  24.398  0.00  0.00    +0.106 A 
ATOM      6  N   UNL     1       6.436   0.765  23.225  0.00  0.00    -0.132 NA
ATOM      7  N   UNL     1       6.718  -0.473  22.850  0.00  0.00    -0.065 NA
BRANCH   3   8
ATOM      8  C   UNL     1       8.146  -2.310  23.503  0.00  0.00    +0.178 C 
BRANCH   8   9
ATOM      9  C   UNL     1       9.665  -2.401  23.404  0.00  0.00    +0.155 C 
ATOM     10  O   UNL     1      10.272  -3.252  24.070  0.00  0.00    -0.295 OA
ATOM     11  C   UNL     1      10.473  -1.474  22.531  0.00  0.00    +0.088 C 
ENDBRANCH   8   9
BRANCH   8  12
ATOM     12  C   UNL     1       7.624  -3.380  24.492  0.00  0.00    +0.061 C 
BRANCH  12  15
ATOM     13  C   UNL     1       6.735  -6.224  21.968  0.00  0.00    +0.035 C 
ATOM     14  C   UNL     1       7.110  -4.895  22.538  0.00  0.00    -0.034 C 
ATOM     15  C   UNL     1       7.256  -4.701  23.858  0.00  0.00    -0.029 C 
ENDBRANCH  12  15
ENDBRANCH   8  12
ENDBRANCH   3   8
ENDBRANCH   1   5
BRANCH   1  16
ATOM     16  N   UNL     1       8.221   3.090  24.960  0.00  0.00    -0.300 N 
ATOM     17  H   UNL     1       8.566   3.585  25.770  0.00  0.00    +0.150 HD
ATOM     18  C   UNL     1       8.776   3.434  23.745  0.00  0.00    +0.245 C 
ATOM     19  O   UNL     1       8.323   3.133  22.649  0.00  0.00    -0.270 OA
BRANCH  18  20
ATOM     20  C   UNL     1       9.985   4.287  23.839  0.00  0.00    +0.037 A 
ATOM     21  C   UNL     1      11.192   3.802  23.324  0.00  0.00    +0.013 A 
ATOM     22  C   UNL     1      12.329   4.609  23.344  0.00  0.00    +0.001 A 
ATOM     23  C   UNL     1      12.264   5.894  23.891  0.00  0.00    +0.000 A 
ATOM     24  C   UNL     1      11.068   6.365  24.434  0.00  0.00    +0.001 A 
ATOM     25  C   UNL     1       9.927   5.563  24.412  0.00  0.00    +0.013 A 
ENDBRANCH  18  20
ENDBRANCH   1  16
BRANCH   1  26
ATOM     26  C   UNL     1       5.749   3.207  24.525  0.00  0.00    +0.012 C 
ATOM     27  C   UNL     1       5.844   4.712  24.805  0.00  0.00    +0.010 C 
ATOM     28  C   UNL     1       4.359   2.706  24.961  0.00  0.00    +0.010 C 
ENDBRANCH   1  26
TORSDOF 8
ENDMDL
