MODEL 1
REMARK VINA RESULT:      -7.6      0.000      0.000
REMARK  Name = 
REMARK  10 active torsions:
REMARK  status: ('A' for Active; 'I' for Inactive)
REMARK    1  A    between atoms: N_4  and  O_5
REMARK    2  A    between atoms: O_5  and  C_6
REMARK    3  A    between atoms: C_6  and  C_7
REMARK    4  A    between atoms: C_7  and  N_8
REMARK    5  A    between atoms: C_9  and  C_11
REMARK    6  A    between atoms: C_11  and  C_12
REMARK    7  A    between atoms: C_17  and  N_18
REMARK    8  A    between atoms: N_18  and  C_19
REMARK    9  A    between atoms: C_19  and  C_20
REMARK   10  A    between atoms: C_20  and  C_23
REMARK                            x       y       z     vdW  Elec       q    Type
REMARK                         _______ _______ _______ _____ _____    ______ ____
ROOT
ATOM      1  C   UNL     1       8.594  -1.337  24.242  0.00  0.00    +0.017 A 
ATOM      2  C   UNL     1       7.760  -1.772  23.196  0.00  0.00    +0.149 A 
ATOM      3  F   UNL     1       8.318  -2.011  21.996  0.00  0.00    -0.203 F 
ATOM      4  C   UNL     1       6.372  -2.018  23.341  0.00  0.00    +0.063 A 
ATOM      5  C   UNL     1       5.832  -1.814  24.610  0.00  0.00    +0.027 A 
ATOM      6  C   UNL     1       6.616  -1.306  25.649  0.00  0.00    +0.022 A 
ATOM      7  C   UNL     1       7.982  -1.063  25.468  0.00  0.00    +0.047 A 
ATOM      8 CL   UNL     1       8.844  -0.385  26.799  0.00  0.00    -0.083 Cl
ENDROOT
BRANCH   4   9
ATOM      9  N   UNL     1       5.641  -2.600  22.292  0.00  0.00    -0.336 N 
ATOM     10  H   UNL     1       4.967  -1.965  21.862  0.00  0.00    +0.146 HD
BRANCH   9  11
ATOM     11  C   UNL     1       5.155  -3.998  22.424  0.00  0.00    +0.182 C 
BRANCH  11  12
ATOM     12  C   UNL     1       6.262  -5.088  22.448  0.00  0.00    +0.289 C 
ATOM     13  F   UNL     1       7.218  -4.779  21.524  0.00  0.00    -0.199 F 
ATOM     14  F   UNL     1       5.710  -6.262  22.014  0.00  0.00    -0.199 F 
BRANCH  12  15
ATOM     15  C   UNL     1       6.839  -5.212  23.851  0.00  0.00    +0.022 A 
ATOM     16  C   UNL     1       8.219  -5.069  24.078  0.00  0.00    +0.009 A 
ATOM     17  C   UNL     1       8.739  -5.136  25.376  0.00  0.00    +0.000 A 
ATOM     18  C   UNL     1       7.889  -5.346  26.459  0.00  0.00    +0.000 A 
ATOM     19  C   UNL     1       6.518  -5.492  26.247  0.00  0.00    +0.000 A 
ATOM     20  C   UNL     1       5.997  -5.426  24.955  0.00  0.00    +0.009 A 
ENDBRANCH  12  15
ENDBRANCH  11  12
ENDBRANCH   9  11
ENDBRANCH   4   9
BRANCH   1  21
ATOM     21  C   UNL     1      10.082  -1.205  24.008  0.00  0.00    +0.135 C 
BRANCH  21  24
ATOM     22  N   UNL     1       9.981   1.025  22.993  0.00  0.00    -0.313 N 
ATOM     23  H   UNL     1       9.510   0.574  22.219  0.00  0.00    +0.149 HD
ATOM     24  C   UNL     1      10.590   0.239  23.947  0.00  0.00    +0.218 C 
ATOM     25  O   UNL     1      11.459   0.673  24.699  0.00  0.00    -0.275 OA
BRANCH  22  26
ATOM     26  C   UNL     1      10.368   2.417  22.759  0.00  0.00    +0.136 C 
BRANCH  26  27
ATOM     27  C   UNL     1       9.688   3.433  23.689  0.00  0.00    +0.228 C 
BRANCH  27  28
ATOM     28  O   UNL     1      10.434   4.647  23.837  0.00  0.00    -0.217 OA
BRANCH  28  33
ATOM     29  N   UNL     1      13.797   5.096  22.945  0.00  0.00    -0.287 N 
ATOM     30  H   UNL     1      13.667   4.877  21.965  0.00  0.00    +0.255 HD
ATOM     31  H   UNL     1      14.473   5.841  23.027  0.00  0.00    +0.255 HD
ATOM     32  C   UNL     1      12.632   5.307  23.592  0.00  0.00    +0.404 C 
ATOM     33  N   UNL     1      11.625   4.516  23.110  0.00  0.00    -0.139 N 
ATOM     34  H   UNL     1      11.903   3.546  22.988  0.00  0.00    +0.299 HD
ATOM     35  N   UNL     1      12.542   6.203  24.504  0.00  0.00    -0.128 NA
ATOM     36  H   UNL     1      13.467   6.604  24.674  0.00  0.00    +0.306 HD
ENDBRANCH  28  33
ENDBRANCH  27  28
ENDBRANCH  26  27
ENDBRANCH  22  26
ENDBRANCH  21  24
ENDBRANCH   1  21
TORSDOF 10
ENDMDL
MODEL 2
REMARK VINA RESULT:      -7.4      2.506      3.560
REMARK  Name = 
REMARK  10 active torsions:
REMARK  status: ('A' for Active; 'I' for Inactive)
REMARK    1  A    between atoms: N_4  and  O_5
REMARK    2  A    between atoms: O_5  and  C_6
REMARK    3  A    between atoms: C_6  and  C_7
REMARK    4  A    between atoms: C_7  and  N_8
REMARK    5  A    between atoms: C_9  and  C_11
REMARK    6  A    between atoms: C_11  and  C_12
REMARK    7  A    between atoms: C_17  and  N_18
REMARK    8  A    between atoms: N_18  and  C_19
REMARK    9  A    between atoms: C_19  and  C_20
REMARK   10  A    between atoms: C_20  and  C_23
REMARK                            x       y       z     vdW  Elec       q    Type
REMARK                         _______ _______ _______ _____ _____    ______ ____
ROOT
ATOM      1  C   UNL     1       8.955   0.514  23.741  0.00  0.00    +0.017 A 
ATOM      2  C   UNL     1       9.419  -0.660  24.362  0.00  0.00    +0.149 A 
ATOM      3  F   UNL     1       9.697  -0.615  25.677  0.00  0.00    -0.203 F 
ATOM      4  C   UNL     1       9.568  -1.902  23.697  0.00  0.00    +0.063 A 
ATOM      5  C   UNL     1       9.221  -1.931  22.346  0.00  0.00    +0.027 A 
ATOM      6  C   UNL     1       8.834  -0.765  21.681  0.00  0.00    +0.022 A 
ATOM      7  C   UNL     1       8.707   0.447  22.368  0.00  0.00    +0.047 A 
ATOM      8 CL   UNL     1       8.276   1.835  21.439  0.00  0.00    -0.083 Cl
ENDROOT
BRANCH   4   9
ATOM      9  N   UNL     1       9.887  -3.062  24.422  0.00  0.00    -0.336 N 
ATOM     10  H   UNL     1      10.388  -3.763  23.874  0.00  0.00    +0.146 HD
BRANCH   9  11
ATOM     11  C   UNL     1       8.891  -3.633  25.366  0.00  0.00    +0.182 C 
BRANCH  11  12
ATOM     12  C   UNL     1       8.337  -5.033  24.983  0.00  0.00    +0.289 C 
ATOM     13  F   UNL     1       7.653  -5.553  26.044  0.00  0.00    -0.199 F 
ATOM     14  F   UNL     1       9.401  -5.873  24.796  0.00  0.00    -0.199 F 
BRANCH  12  15
ATOM     15  C   UNL     1       7.469  -4.926  23.737  0.00  0.00    +0.022 A 
ATOM     16  C   UNL     1       6.452  -3.958  23.649  0.00  0.00    +0.009 A 
ATOM     17  C   UNL     1       5.689  -3.831  22.483  0.00  0.00    +0.000 A 
ATOM     18  C   UNL     1       5.931  -4.666  21.395  0.00  0.00    +0.000 A 
ATOM     19  C   UNL     1       6.934  -5.631  21.470  0.00  0.00    +0.000 A 
ATOM     20  C   UNL     1       7.697  -5.760  22.631  0.00  0.00    +0.009 A 
ENDBRANCH  12  15
ENDBRANCH  11  12
ENDBRANCH   9  11
ENDBRANCH   4   9
BRANCH   1  21
ATOM     21  C   UNL     1       8.731   1.760  24.567  0.00  0.00    +0.135 C 
BRANCH  21  24
ATOM     22  N   UNL     1       8.856   4.184  24.211  0.00  0.00    -0.313 N 
ATOM     23  H   UNL     1       7.846   4.174  24.277  0.00  0.00    +0.149 HD
ATOM     24  C   UNL     1       9.524   2.984  24.096  0.00  0.00    +0.218 C 
ATOM     25  O   UNL     1      10.672   2.910  23.665  0.00  0.00    -0.275 OA
BRANCH  22  26
ATOM     26  C   UNL     1       9.437   5.451  23.768  0.00  0.00    +0.136 C 
BRANCH  26  27
ATOM     27  C   UNL     1      10.391   6.104  24.781  0.00  0.00    +0.228 C 
BRANCH  27  28
ATOM     28  O   UNL     1      11.753   6.124  24.338  0.00  0.00    -0.217 OA
BRANCH  28  33
ATOM     29  N   UNL     1      12.921   4.910  21.262  0.00  0.00    -0.287 N 
ATOM     30  H   UNL     1      12.349   5.522  20.693  0.00  0.00    +0.255 HD
ATOM     31  H   UNL     1      13.823   4.803  20.822  0.00  0.00    +0.255 HD
ATOM     32  C   UNL     1      12.955   5.283  22.558  0.00  0.00    +0.404 C 
ATOM     33  N   UNL     1      11.770   5.825  22.969  0.00  0.00    -0.139 N 
ATOM     34  H   UNL     1      10.960   5.283  22.678  0.00  0.00    +0.299 HD
ATOM     35  N   UNL     1      14.032   5.164  23.244  0.00  0.00    -0.128 NA
ATOM     36  H   UNL     1      14.740   4.689  22.680  0.00  0.00    +0.306 HD
ENDBRANCH  28  33
ENDBRANCH  27  28
ENDBRANCH  26  27
ENDBRANCH  22  26
ENDBRANCH  21  24
ENDBRANCH   1  21
TORSDOF 10
ENDMDL
MODEL 3
REMARK VINA RESULT:      -7.3      1.797      2.788
REMARK  Name = 
REMARK  10 active torsions:
REMARK  status: ('A' for Active; 'I' for Inactive)
REMARK    1  A    between atoms: N_4  and  O_5
REMARK    2  A    between atoms: O_5  and  C_6
REMARK    3  A    between atoms: C_6  and  C_7
REMARK    4  A    between atoms: C_7  and  N_8
REMARK    5  A    between atoms: C_9  and  C_11
REMARK    6  A    between atoms: C_11  and  C_12
REMARK    7  A    between atoms: C_17  and  N_18
REMARK    8  A    between atoms: N_18  and  C_19
REMARK    9  A    between atoms: C_19  and  C_20
REMARK   10  A    between atoms: C_20  and  C_23
REMARK                            x       y       z     vdW  Elec       q    Type
REMARK                         _______ _______ _______ _____ _____    ______ ____
ROOT
ATOM      1  C   UNL     1       8.379  -1.273  24.094  0.00  0.00    +0.017 A 
ATOM      2  C   UNL     1       7.629  -1.859  23.058  0.00  0.00    +0.149 A 
ATOM      3  F   UNL     1       8.241  -2.091  21.883  0.00  0.00    -0.203 F 
ATOM      4  C   UNL     1       6.277  -2.263  23.191  0.00  0.00    +0.063 A 
ATOM      5  C   UNL     1       5.686  -2.060  24.437  0.00  0.00    +0.027 A 
ATOM      6  C   UNL     1       6.377  -1.408  25.461  0.00  0.00    +0.022 A 
ATOM      7  C   UNL     1       7.708  -1.012  25.291  0.00  0.00    +0.047 A 
ATOM      8 CL   UNL     1       8.450  -0.167  26.599  0.00  0.00    -0.083 Cl
ENDROOT
BRANCH   4   9
ATOM      9  N   UNL     1       5.647  -2.982  22.162  0.00  0.00    -0.336 N 
ATOM     10  H   UNL     1       4.917  -2.455  21.681  0.00  0.00    +0.146 HD
BRANCH   9  11
ATOM     11  C   UNL     1       5.320  -4.418  22.365  0.00  0.00    +0.182 C 
BRANCH  11  12
ATOM     12  C   UNL     1       6.541  -5.356  22.575  0.00  0.00    +0.289 C 
ATOM     13  F   UNL     1       7.531  -5.009  21.700  0.00  0.00    -0.199 F 
ATOM     14  F   UNL     1       6.170  -6.622  22.213  0.00  0.00    -0.199 F 
BRANCH  12  15
ATOM     15  C   UNL     1       7.005  -5.288  24.023  0.00  0.00    +0.022 A 
ATOM     16  C   UNL     1       6.105  -5.521  25.079  0.00  0.00    +0.009 A 
ATOM     17  C   UNL     1       6.546  -5.506  26.407  0.00  0.00    +0.000 A 
ATOM     18  C   UNL     1       7.886  -5.259  26.696  0.00  0.00    +0.000 A 
ATOM     19  C   UNL     1       8.788  -5.024  25.658  0.00  0.00    +0.000 A 
ATOM     20  C   UNL     1       8.351  -5.039  24.333  0.00  0.00    +0.009 A 
ENDBRANCH  12  15
ENDBRANCH  11  12
ENDBRANCH   9  11
ENDBRANCH   4   9
BRANCH   1  21
ATOM     21  C   UNL     1       9.846  -0.975  23.880  0.00  0.00    +0.135 C 
BRANCH  21  24
ATOM     22  N   UNL     1      10.377   1.412  24.071  0.00  0.00    -0.313 N 
ATOM     23  H   UNL     1      10.061   1.334  25.029  0.00  0.00    +0.149 HD
ATOM     24  C   UNL     1      10.128   0.371  23.204  0.00  0.00    +0.218 C 
ATOM     25  O   UNL     1      10.150   0.512  21.983  0.00  0.00    -0.275 OA
BRANCH  22  26
ATOM     26  C   UNL     1      10.621   2.779  23.607  0.00  0.00    +0.136 C 
BRANCH  26  27
ATOM     27  C   UNL     1       9.529   3.788  23.994  0.00  0.00    +0.228 C 
BRANCH  27  28
ATOM     28  O   UNL     1       8.491   3.898  23.014  0.00  0.00    -0.217 OA
BRANCH  28  33
ATOM     29  N   UNL     1       5.983   1.453  23.203  0.00  0.00    -0.287 N 
ATOM     30  H   UNL     1       5.329   2.025  23.724  0.00  0.00    +0.255 HD
ATOM     31  H   UNL     1       5.469   0.892  22.540  0.00  0.00    +0.255 HD
ATOM     32  C   UNL     1       7.001   2.168  22.681  0.00  0.00    +0.404 C 
ATOM     33  N   UNL     1       7.369   3.207  23.490  0.00  0.00    -0.139 N 
ATOM     34  H   UNL     1       7.460   2.940  24.466  0.00  0.00    +0.299 HD
ATOM     35  N   UNL     1       7.479   1.879  21.527  0.00  0.00    -0.128 NA
ATOM     36  H   UNL     1       7.030   1.028  21.180  0.00  0.00    +0.306 HD
ENDBRANCH  28  33
ENDBRANCH  27  28
ENDBRANCH  26  27
ENDBRANCH  22  26
ENDBRANCH  21  24
ENDBRANCH   1  21
TORSDOF 10
ENDMDL
MODEL 4
REMARK VINA RESULT:      -7.2      4.060      8.488
REMARK  Name = 
REMARK  10 active torsions:
REMARK  status: ('A' for Active; 'I' for Inactive)
REMARK    1  A    between atoms: N_4  and  O_5
REMARK    2  A    between atoms: O_5  and  C_6
REMARK    3  A    between atoms: C_6  and  C_7
REMARK    4  A    between atoms: C_7  and  N_8
REMARK    5  A    between atoms: C_9  and  C_11
REMARK    6  A    between atoms: C_11  and  C_12
REMARK    7  A    between atoms: C_17  and  N_18
REMARK    8  A    between atoms: N_18  and  C_19
REMARK    9  A    between atoms: C_19  and  C_20
REMARK   10  A    between atoms: C_20  and  C_23
REMARK                            x       y       z     vdW  Elec       q    Type
REMARK                         _______ _______ _______ _____ _____    ______ ____
ROOT
ATOM      1  C   UNL     1       8.400  -0.318  23.711  0.00  0.00    +0.017 A 
ATOM      2  C   UNL     1       7.445   0.704  23.556  0.00  0.00    +0.149 A 
ATOM      3  F   UNL     1       6.569   0.911  24.555  0.00  0.00    -0.203 F 
ATOM      4  C   UNL     1       7.378   1.560  22.429  0.00  0.00    +0.063 A 
ATOM      5  C   UNL     1       8.333   1.356  21.434  0.00  0.00    +0.027 A 
ATOM      6  C   UNL     1       9.244   0.300  21.521  0.00  0.00    +0.022 A 
ATOM      7  C   UNL     1       9.275  -0.533  22.644  0.00  0.00    +0.047 A 
ATOM      8 CL   UNL     1      10.402  -1.838  22.623  0.00  0.00    -0.083 Cl
ENDROOT
BRANCH   4   9
ATOM      9  N   UNL     1       6.496   2.654  22.420  0.00  0.00    -0.336 N 
ATOM     10  H   UNL     1       5.665   2.505  21.847  0.00  0.00    +0.146 HD
BRANCH   9  11
ATOM     11  C   UNL     1       7.042   4.034  22.346  0.00  0.00    +0.182 C 
BRANCH  11  12
ATOM     12  C   UNL     1       7.609   4.598  23.679  0.00  0.00    +0.289 C 
ATOM     13  F   UNL     1       7.193   3.810  24.714  0.00  0.00    -0.199 F 
ATOM     14  F   UNL     1       7.031   5.818  23.903  0.00  0.00    -0.199 F 
BRANCH  12  15
ATOM     15  C   UNL     1       9.126   4.690  23.601  0.00  0.00    +0.022 A 
ATOM     16  C   UNL     1       9.775   5.937  23.643  0.00  0.00    +0.009 A 
ATOM     17  C   UNL     1      11.172   6.014  23.619  0.00  0.00    +0.000 A 
ATOM     18  C   UNL     1      11.935   4.851  23.554  0.00  0.00    +0.000 A 
ATOM     19  C   UNL     1      11.305   3.609  23.509  0.00  0.00    +0.000 A 
ATOM     20  C   UNL     1       9.912   3.528  23.533  0.00  0.00    +0.009 A 
ENDBRANCH  12  15
ENDBRANCH  11  12
ENDBRANCH   9  11
ENDBRANCH   4   9
BRANCH   1  21
ATOM     21  C   UNL     1       8.451  -1.106  25.001  0.00  0.00    +0.135 C 
BRANCH  21  24
ATOM     22  N   UNL     1       6.915  -2.433  26.378  0.00  0.00    -0.313 N 
ATOM     23  H   UNL     1       7.461  -2.114  27.169  0.00  0.00    +0.149 HD
ATOM     24  C   UNL     1       7.401  -2.217  25.107  0.00  0.00    +0.218 C 
ATOM     25  O   UNL     1       7.007  -2.857  24.135  0.00  0.00    -0.275 OA
BRANCH  22  26
ATOM     26  C   UNL     1       5.941  -3.483  26.678  0.00  0.00    +0.136 C 
BRANCH  26  27
ATOM     27  C   UNL     1       6.543  -4.750  27.304  0.00  0.00    +0.228 C 
BRANCH  27  28
ATOM     28  O   UNL     1       7.065  -5.664  26.332  0.00  0.00    -0.217 OA
BRANCH  28  33
ATOM     29  N   UNL     1      10.491  -5.486  25.600  0.00  0.00    -0.287 N 
ATOM     30  H   UNL     1      10.775  -6.155  26.305  0.00  0.00    +0.255 HD
ATOM     31  H   UNL     1      11.062  -5.615  24.778  0.00  0.00    +0.255 HD
ATOM     32  C   UNL     1       9.160  -5.494  25.380  0.00  0.00    +0.404 C 
ATOM     33  N   UNL     1       8.451  -5.754  26.520  0.00  0.00    -0.139 N 
ATOM     34  H   UNL     1       8.771  -5.217  27.321  0.00  0.00    +0.299 HD
ATOM     35  N   UNL     1       8.691  -5.325  24.199  0.00  0.00    -0.128 NA
ATOM     36  H   UNL     1       9.459  -5.113  23.559  0.00  0.00    +0.306 HD
ENDBRANCH  28  33
ENDBRANCH  27  28
ENDBRANCH  26  27
ENDBRANCH  22  26
ENDBRANCH  21  24
ENDBRANCH   1  21
TORSDOF 10
ENDMDL
MODEL 5
REMARK VINA RESULT:      -7.1      2.481      3.231
REMARK  Name = 
REMARK  10 active torsions:
REMARK  status: ('A' for Active; 'I' for Inactive)
REMARK    1  A    between atoms: N_4  and  O_5
REMARK    2  A    between atoms: O_5  and  C_6
REMARK    3  A    between atoms: C_6  and  C_7
REMARK    4  A    between atoms: C_7  and  N_8
REMARK    5  A    between atoms: C_9  and  C_11
REMARK    6  A    between atoms: C_11  and  C_12
REMARK    7  A    between atoms: C_17  and  N_18
REMARK    8  A    between atoms: N_18  and  C_19
REMARK    9  A    between atoms: C_19  and  C_20
REMARK   10  A    between atoms: C_20  and  C_23
REMARK                            x       y       z     vdW  Elec       q    Type
REMARK                         _______ _______ _______ _____ _____    ______ ____
ROOT
ATOM      1  C   UNL     1       8.518  -0.708  24.580  0.00  0.00    +0.017 A 
ATOM      2  C   UNL     1       7.700  -1.633  23.905  0.00  0.00    +0.149 A 
ATOM      3  F   UNL     1       6.503  -1.930  24.440  0.00  0.00    -0.203 F 
ATOM      4  C   UNL     1       8.042  -2.238  22.671  0.00  0.00    +0.063 A 
ATOM      5  C   UNL     1       9.266  -1.869  22.114  0.00  0.00    +0.027 A 
ATOM      6  C   UNL     1      10.136  -1.016  22.796  0.00  0.00    +0.022 A 
ATOM      7  C   UNL     1       9.771  -0.444  24.020  0.00  0.00    +0.047 A 
ATOM      8 CL   UNL     1      10.941   0.551  24.803  0.00  0.00    -0.083 Cl
ENDROOT
BRANCH   4   9
ATOM      9  N   UNL     1       7.106  -3.029  21.985  0.00  0.00    -0.336 N 
ATOM     10  H   UNL     1       6.162  -2.639  21.983  0.00  0.00    +0.146 HD
BRANCH   9  11
ATOM     11  C   UNL     1       7.147  -4.507  22.133  0.00  0.00    +0.182 C 
BRANCH  11  12
ATOM     12  C   UNL     1       6.048  -5.115  23.049  0.00  0.00    +0.289 C 
ATOM     13  F   UNL     1       5.659  -6.323  22.545  0.00  0.00    -0.199 F 
ATOM     14  F   UNL     1       4.938  -4.318  22.965  0.00  0.00    -0.199 F 
BRANCH  12  15
ATOM     15  C   UNL     1       6.564  -5.227  24.476  0.00  0.00    +0.022 A 
ATOM     16  C   UNL     1       7.939  -5.119  24.755  0.00  0.00    +0.009 A 
ATOM     17  C   UNL     1       8.404  -5.175  26.074  0.00  0.00    +0.000 A 
ATOM     18  C   UNL     1       7.506  -5.338  27.126  0.00  0.00    +0.000 A 
ATOM     19  C   UNL     1       6.141  -5.448  26.862  0.00  0.00    +0.000 A 
ATOM     20  C   UNL     1       5.674  -5.394  25.549  0.00  0.00    +0.009 A 
ENDBRANCH  12  15
ENDBRANCH  11  12
ENDBRANCH   9  11
ENDBRANCH   4   9
BRANCH   1  21
ATOM     21  C   UNL     1       8.013  -0.041  25.840  0.00  0.00    +0.135 C 
BRANCH  21  24
ATOM     22  N   UNL     1       7.987   2.403  26.051  0.00  0.00    -0.313 N 
ATOM     23  H   UNL     1       8.711   2.280  26.748  0.00  0.00    +0.149 HD
ATOM     24  C   UNL     1       7.299   1.295  25.607  0.00  0.00    +0.218 C 
ATOM     25  O   UNL     1       6.205   1.378  25.053  0.00  0.00    -0.275 OA
BRANCH  22  26
ATOM     26  C   UNL     1       7.440   3.757  25.955  0.00  0.00    +0.136 C 
BRANCH  26  27
ATOM     27  C   UNL     1       7.982   4.582  24.778  0.00  0.00    +0.228 C 
BRANCH  27  28
ATOM     28  O   UNL     1       7.532   4.107  23.504  0.00  0.00    -0.217 OA
BRANCH  28  33
ATOM     29  N   UNL     1       9.404   2.035  21.381  0.00  0.00    -0.287 N 
ATOM     30  H   UNL     1      10.295   2.221  21.825  0.00  0.00    +0.255 HD
ATOM     31  H   UNL     1       9.372   1.064  21.106  0.00  0.00    +0.255 HD
ATOM     32  C   UNL     1       8.355   2.456  22.118  0.00  0.00    +0.404 C 
ATOM     33  N   UNL     1       8.640   3.598  22.813  0.00  0.00    -0.139 N 
ATOM     34  H   UNL     1       9.106   4.303  22.249  0.00  0.00    +0.299 HD
ATOM     35  N   UNL     1       7.268   1.778  22.156  0.00  0.00    -0.128 NA
ATOM     36  H   UNL     1       7.337   0.994  21.503  0.00  0.00    +0.306 HD
ENDBRANCH  28  33
ENDBRANCH  27  28
ENDBRANCH  26  27
ENDBRANCH  22  26
ENDBRANCH  21  24
ENDBRANCH   1  21
TORSDOF 10
ENDMDL
MODEL 6
REMARK VINA RESULT:      -7.1      3.518      7.789
REMARK  Name = 
REMARK  10 active torsions:
REMARK  status: ('A' for Active; 'I' for Inactive)
REMARK    1  A    between atoms: N_4  and  O_5
REMARK    2  A    between atoms: O_5  and  C_6
REMARK    3  A    between atoms: C_6  and  C_7
REMARK    4  A    between atoms: C_7  and  N_8
REMARK    5  A    between atoms: C_9  and  C_11
REMARK    6  A    between atoms: C_11  and  C_12
REMARK    7  A    between atoms: C_17  and  N_18
REMARK    8  A    between atoms: N_18  and  C_19
REMARK    9  A    between atoms: C_19  and  C_20
REMARK   10  A    between atoms: C_20  and  C_23
REMARK                            x       y       z     vdW  Elec       q    Type
REMARK                         _______ _______ _______ _____ _____    ______ ____
ROOT
ATOM      1  C   UNL     1       7.175  -1.270  24.133  0.00  0.00    +0.017 A 
ATOM      2  C   UNL     1       8.393  -0.799  23.608  0.00  0.00    +0.149 A 
ATOM      3  F   UNL     1       8.482  -0.613  22.279  0.00  0.00    -0.203 F 
ATOM      4  C   UNL     1       9.518  -0.465  24.401  0.00  0.00    +0.063 A 
ATOM      5  C   UNL     1       9.377  -0.616  25.780  0.00  0.00    +0.027 A 
ATOM      6  C   UNL     1       8.211  -1.157  26.325  0.00  0.00    +0.022 A 
ATOM      7  C   UNL     1       7.121  -1.487  25.512  0.00  0.00    +0.047 A 
ATOM      8 CL   UNL     1       5.752  -2.197  26.282  0.00  0.00    -0.083 Cl
ENDROOT
BRANCH   4   9
ATOM      9  N   UNL     1      10.641   0.145  23.817  0.00  0.00    -0.336 N 
ATOM     10  H   UNL     1      11.478  -0.439  23.830  0.00  0.00    +0.146 HD
BRANCH   9  11
ATOM     11  C   UNL     1      10.907   1.586  24.069  0.00  0.00    +0.182 C 
BRANCH  11  12
ATOM     12  C   UNL     1      10.300   2.567  23.028  0.00  0.00    +0.289 C 
ATOM     13  F   UNL     1      10.609   2.136  21.770  0.00  0.00    -0.199 F 
ATOM     14  F   UNL     1      10.936   3.772  23.161  0.00  0.00    -0.199 F 
BRANCH  12  15
ATOM     15  C   UNL     1       8.798   2.687  23.241  0.00  0.00    +0.022 A 
ATOM     16  C   UNL     1       7.908   2.615  22.154  0.00  0.00    +0.009 A 
ATOM     17  C   UNL     1       6.525   2.677  22.360  0.00  0.00    +0.000 A 
ATOM     18  C   UNL     1       6.016   2.811  23.649  0.00  0.00    +0.000 A 
ATOM     19  C   UNL     1       6.887   2.886  24.735  0.00  0.00    +0.000 A 
ATOM     20  C   UNL     1       8.266   2.824  24.533  0.00  0.00    +0.009 A 
ENDBRANCH  12  15
ENDBRANCH  11  12
ENDBRANCH   9  11
ENDBRANCH   4   9
BRANCH   1  21
ATOM     21  C   UNL     1       6.000  -1.497  23.209  0.00  0.00    +0.135 C 
BRANCH  21  24
ATOM     22  N   UNL     1       6.709  -3.536  22.043  0.00  0.00    -0.313 N 
ATOM     23  H   UNL     1       7.304  -2.929  21.493  0.00  0.00    +0.149 HD
ATOM     24  C   UNL     1       5.749  -2.966  22.851  0.00  0.00    +0.218 C 
ATOM     25  O   UNL     1       4.778  -3.597  23.265  0.00  0.00    -0.275 OA
BRANCH  22  26
ATOM     26  C   UNL     1       6.612  -4.914  21.562  0.00  0.00    +0.136 C 
BRANCH  26  27
ATOM     27  C   UNL     1       7.360  -5.944  22.422  0.00  0.00    +0.228 C 
BRANCH  27  28
ATOM     28  O   UNL     1       8.325  -5.350  23.299  0.00  0.00    -0.217 OA
BRANCH  28  33
ATOM     29  N   UNL     1       8.361  -5.526  26.801  0.00  0.00    -0.287 N 
ATOM     30  H   UNL     1       7.472  -6.003  26.884  0.00  0.00    +0.255 HD
ATOM     31  H   UNL     1       8.993  -5.888  27.501  0.00  0.00    +0.255 HD
ATOM     32  C   UNL     1       8.840  -5.528  25.540  0.00  0.00    +0.404 C 
ATOM     33  N   UNL     1       7.842  -5.452  24.610  0.00  0.00    -0.139 N 
ATOM     34  H   UNL     1       7.147  -4.742  24.827  0.00  0.00    +0.299 HD
ATOM     35  N   UNL     1      10.097  -5.648  25.318  0.00  0.00    -0.128 NA
ATOM     36  H   UNL     1      10.599  -5.645  26.209  0.00  0.00    +0.306 HD
ENDBRANCH  28  33
ENDBRANCH  27  28
ENDBRANCH  26  27
ENDBRANCH  22  26
ENDBRANCH  21  24
ENDBRANCH   1  21
TORSDOF 10
ENDMDL
MODEL 7
REMARK VINA RESULT:      -6.9      2.521      3.594
REMARK  Name = 
REMARK  10 active torsions:
REMARK  status: ('A' for Active; 'I' for Inactive)
REMARK    1  A    between atoms: N_4  and  O_5
REMARK    2  A    between atoms: O_5  and  C_6
REMARK    3  A    between atoms: C_6  and  C_7
REMARK    4  A    between atoms: C_7  and  N_8
REMARK    5  A    between atoms: C_9  and  C_11
REMARK    6  A    between atoms: C_11  and  C_12
REMARK    7  A    between atoms: C_17  and  N_18
REMARK    8  A    between atoms: N_18  and  C_19
REMARK    9  A    between atoms: C_19  and  C_20
REMARK   10  A    between atoms: C_20  and  C_23
REMARK                            x       y       z     vdW  Elec       q    Type
REMARK                         _______ _______ _______ _____ _____    ______ ____
ROOT
ATOM      1  C   UNL     1       8.035   0.896  22.940  0.00  0.00    +0.017 A 
ATOM      2  C   UNL     1       7.393  -0.108  23.688  0.00  0.00    +0.149 A 
ATOM      3  F   UNL     1       6.072   0.012  23.909  0.00  0.00    -0.203 F 
ATOM      4  C   UNL     1       8.046  -1.262  24.186  0.00  0.00    +0.063 A 
ATOM      5  C   UNL     1       9.404  -1.385  23.894  0.00  0.00    +0.027 A 
ATOM      6  C   UNL     1      10.088  -0.369  23.224  0.00  0.00    +0.022 A 
ATOM      7  C   UNL     1       9.414   0.764  22.755  0.00  0.00    +0.047 A 
ATOM      8 CL   UNL     1      10.363   1.983  21.988  0.00  0.00    -0.083 Cl
ENDROOT
BRANCH   4   9
ATOM      9  N   UNL     1       7.304  -2.293  24.788  0.00  0.00    -0.336 N 
ATOM     10  H   UNL     1       6.468  -1.965  25.273  0.00  0.00    +0.146 HD
BRANCH   9  11
ATOM     11  C   UNL     1       8.015  -3.396  25.485  0.00  0.00    +0.182 C 
BRANCH  11  12
ATOM     12  C   UNL     1       7.226  -4.731  25.596  0.00  0.00    +0.289 C 
ATOM     13  F   UNL     1       6.196  -4.573  26.477  0.00  0.00    -0.199 F 
ATOM     14  F   UNL     1       8.049  -5.662  26.169  0.00  0.00    -0.199 F 
BRANCH  12  15
ATOM     15  C   UNL     1       6.743  -5.164  24.219  0.00  0.00    +0.022 A 
ATOM     16  C   UNL     1       5.372  -5.343  23.960  0.00  0.00    +0.009 A 
ATOM     17  C   UNL     1       4.929  -5.695  22.681  0.00  0.00    +0.000 A 
ATOM     18  C   UNL     1       5.846  -5.871  21.647  0.00  0.00    +0.000 A 
ATOM     19  C   UNL     1       7.208  -5.699  21.891  0.00  0.00    +0.000 A 
ATOM     20  C   UNL     1       7.653  -5.348  23.166  0.00  0.00    +0.009 A 
ENDBRANCH  12  15
ENDBRANCH  11  12
ENDBRANCH   9  11
ENDBRANCH   4   9
BRANCH   1  21
ATOM     21  C   UNL     1       7.224   2.036  22.365  0.00  0.00    +0.135 C 
BRANCH  21  24
ATOM     22  N   UNL     1       7.807   4.410  22.567  0.00  0.00    -0.313 N 
ATOM     23  H   UNL     1       8.421   4.254  21.778  0.00  0.00    +0.149 HD
ATOM     24  C   UNL     1       7.253   3.320  23.201  0.00  0.00    +0.218 C 
ATOM     25  O   UNL     1       6.801   3.382  24.342  0.00  0.00    -0.275 OA
BRANCH  22  26
ATOM     26  C   UNL     1       7.960   5.707  23.227  0.00  0.00    +0.136 C 
BRANCH  26  27
ATOM     27  C   UNL     1       9.408   6.216  23.304  0.00  0.00    +0.228 C 
BRANCH  27  28
ATOM     28  O   UNL     1      10.309   5.263  23.880  0.00  0.00    -0.217 OA
BRANCH  28  33
ATOM     29  N   UNL     1      13.646   5.522  22.832  0.00  0.00    -0.287 N 
ATOM     30  H   UNL     1      13.435   5.545  21.842  0.00  0.00    +0.255 HD
ATOM     31  H   UNL     1      14.415   6.149  23.017  0.00  0.00    +0.255 HD
ATOM     32  C   UNL     1      12.555   5.711  23.603  0.00  0.00    +0.404 C 
ATOM     33  N   UNL     1      11.431   5.167  23.046  0.00  0.00    -0.139 N 
ATOM     34  H   UNL     1      11.576   4.225  22.694  0.00  0.00    +0.299 HD
ATOM     35  N   UNL     1      12.632   6.383  24.692  0.00  0.00    -0.128 NA
ATOM     36  H   UNL     1      13.609   6.629  24.868  0.00  0.00    +0.306 HD
ENDBRANCH  28  33
ENDBRANCH  27  28
ENDBRANCH  26  27
ENDBRANCH  22  26
ENDBRANCH  21  24
ENDBRANCH   1  21
TORSDOF 10
ENDMDL
MODEL 8
REMARK VINA RESULT:      -6.9      3.127      4.526
REMARK  Name = 
REMARK  10 active torsions:
REMARK  status: ('A' for Active; 'I' for Inactive)
REMARK    1  A    between atoms: N_4  and  O_5
REMARK    2  A    between atoms: O_5  and  C_6
REMARK    3  A    between atoms: C_6  and  C_7
REMARK    4  A    between atoms: C_7  and  N_8
REMARK    5  A    between atoms: C_9  and  C_11
REMARK    6  A    between atoms: C_11  and  C_12
REMARK    7  A    between atoms: C_17  and  N_18
REMARK    8  A    between atoms: N_18  and  C_19
REMARK    9  A    between atoms: C_19  and  C_20
REMARK   10  A    between atoms: C_20  and  C_23
REMARK                            x       y       z     vdW  Elec       q    Type
REMARK                         _______ _______ _______ _____ _____    ______ ____
ROOT
ATOM      1  C   UNL     1       9.528   0.394  23.810  0.00  0.00    +0.017 A 
ATOM      2  C   UNL     1       9.446  -0.579  24.823  0.00  0.00    +0.149 A 
ATOM      3  F   UNL     1       9.931  -0.272  26.039  0.00  0.00    -0.203 F 
ATOM      4  C   UNL     1       8.843  -1.850  24.653  0.00  0.00    +0.063 A 
ATOM      5  C   UNL     1       8.301  -2.119  23.397  0.00  0.00    +0.027 A 
ATOM      6  C   UNL     1       8.436  -1.207  22.347  0.00  0.00    +0.022 A 
ATOM      7  C   UNL     1       9.048   0.035  22.548  0.00  0.00    +0.047 A 
ATOM      8 CL   UNL     1       9.210   1.062  21.172  0.00  0.00    -0.083 Cl
ENDROOT
BRANCH   4   9
ATOM      9  N   UNL     1       8.663  -2.703  25.754  0.00  0.00    -0.336 N 
ATOM     10  H   UNL     1       9.487  -3.261  25.980  0.00  0.00    +0.146 HD
BRANCH   9  11
ATOM     11  C   UNL     1       7.378  -3.433  25.913  0.00  0.00    +0.182 C 
BRANCH  11  12
ATOM     12  C   UNL     1       7.433  -4.954  25.598  0.00  0.00    +0.289 C 
ATOM     13  F   UNL     1       6.749  -5.638  26.561  0.00  0.00    -0.199 F 
ATOM     14  F   UNL     1       8.733  -5.365  25.721  0.00  0.00    -0.199 F 
BRANCH  12  15
ATOM     15  C   UNL     1       6.881  -5.216  24.205  0.00  0.00    +0.022 A 
ATOM     16  C   UNL     1       7.740  -5.534  23.137  0.00  0.00    +0.009 A 
ATOM     17  C   UNL     1       7.223  -5.822  21.869  0.00  0.00    +0.000 A 
ATOM     18  C   UNL     1       5.848  -5.795  21.651  0.00  0.00    +0.000 A 
ATOM     19  C   UNL     1       4.986  -5.479  22.700  0.00  0.00    +0.000 A 
ATOM     20  C   UNL     1       5.497  -5.192  23.966  0.00  0.00    +0.009 A 
ENDBRANCH  12  15
ENDBRANCH  11  12
ENDBRANCH   9  11
ENDBRANCH   4   9
BRANCH   1  21
ATOM     21  C   UNL     1      10.098   1.758  24.125  0.00  0.00    +0.135 C 
BRANCH  21  24
ATOM     22  N   UNL     1       9.289   3.993  23.521  0.00  0.00    -0.313 N 
ATOM     23  H   UNL     1      10.230   4.167  23.191  0.00  0.00    +0.149 HD
ATOM     24  C   UNL     1       9.050   2.865  24.276  0.00  0.00    +0.218 C 
ATOM     25  O   UNL     1       8.062   2.754  24.997  0.00  0.00    -0.275 OA
BRANCH  22  26
ATOM     26  C   UNL     1       8.420   5.169  23.572  0.00  0.00    +0.136 C 
BRANCH  26  27
ATOM     27  C   UNL     1       7.524   5.354  22.338  0.00  0.00    +0.228 C 
BRANCH  27  28
ATOM     28  O   UNL     1       6.973   4.124  21.854  0.00  0.00    -0.217 OA
BRANCH  28  33
ATOM     29  N   UNL     1       3.968   2.900  23.187  0.00  0.00    -0.287 N 
ATOM     30  H   UNL     1       3.366   3.467  22.604  0.00  0.00    +0.255 HD
ATOM     31  H   UNL     1       3.547   1.990  23.304  0.00  0.00    +0.255 HD
ATOM     32  C   UNL     1       5.248   2.888  22.759  0.00  0.00    +0.404 C 
ATOM     33  N   UNL     1       5.618   4.084  22.210  0.00  0.00    -0.139 N 
ATOM     34  H   UNL     1       5.338   4.884  22.770  0.00  0.00    +0.299 HD
ATOM     35  N   UNL     1       5.955   1.821  22.840  0.00  0.00    -0.128 NA
ATOM     36  H   UNL     1       5.422   1.100  23.332  0.00  0.00    +0.306 HD
ENDBRANCH  28  33
ENDBRANCH  27  28
ENDBRANCH  26  27
ENDBRANCH  22  26
ENDBRANCH  21  24
ENDBRANCH   1  21
TORSDOF 10
ENDMDL
MODEL 9
REMARK VINA RESULT:      -6.8      4.023      9.005
REMARK  Name = 
REMARK  10 active torsions:
REMARK  status: ('A' for Active; 'I' for Inactive)
REMARK    1  A    between atoms: N_4  and  O_5
REMARK    2  A    between atoms: O_5  and  C_6
REMARK    3  A    between atoms: C_6  and  C_7
REMARK    4  A    between atoms: C_7  and  N_8
REMARK    5  A    between atoms: C_9  and  C_11
REMARK    6  A    between atoms: C_11  and  C_12
REMARK    7  A    between atoms: C_17  and  N_18
REMARK    8  A    between atoms: N_18  and  C_19
REMARK    9  A    between atoms: C_19  and  C_20
REMARK   10  A    between atoms: C_20  and  C_23
REMARK                            x       y       z     vdW  Elec       q    Type
REMARK                         _______ _______ _______ _____ _____    ______ ____
ROOT
ATOM      1  C   UNL     1       8.135  -3.120  25.847  0.00  0.00    +0.017 A 
ATOM      2  C   UNL     1       8.256  -1.724  25.975  0.00  0.00    +0.149 A 
ATOM      3  F   UNL     1       7.552  -1.112  26.944  0.00  0.00    -0.203 F 
ATOM      4  C   UNL     1       9.111  -0.927  25.174  0.00  0.00    +0.063 A 
ATOM      5  C   UNL     1       9.869  -1.598  24.214  0.00  0.00    +0.027 A 
ATOM      6  C   UNL     1       9.712  -2.970  24.008  0.00  0.00    +0.022 A 
ATOM      7  C   UNL     1       8.850  -3.725  24.811  0.00  0.00    +0.047 A 
ATOM      8 CL   UNL     1       8.692  -5.401  24.435  0.00  0.00    -0.083 Cl
ENDROOT
BRANCH   4   9
ATOM      9  N   UNL     1       9.292   0.434  25.467  0.00  0.00    -0.336 N 
ATOM     10  H   UNL     1       8.927   0.710  26.379  0.00  0.00    +0.146 HD
BRANCH   9  11
ATOM     11  C   UNL     1       9.080   1.448  24.401  0.00  0.00    +0.182 C 
BRANCH  11  12
ATOM     12  C   UNL     1      10.366   1.927  23.672  0.00  0.00    +0.289 C 
ATOM     13  F   UNL     1      10.356   1.461  22.388  0.00  0.00    -0.199 F 
ATOM     14  F   UNL     1      11.440   1.320  24.265  0.00  0.00    -0.199 F 
BRANCH  12  15
ATOM     15  C   UNL     1      10.463   3.444  23.731  0.00  0.00    +0.022 A 
ATOM     16  C   UNL     1      11.663   4.103  23.408  0.00  0.00    +0.009 A 
ATOM     17  C   UNL     1      11.733   5.501  23.418  0.00  0.00    +0.000 A 
ATOM     18  C   UNL     1      10.610   6.255  23.748  0.00  0.00    +0.000 A 
ATOM     19  C   UNL     1       9.415   5.615  24.073  0.00  0.00    +0.000 A 
ATOM     20  C   UNL     1       9.341   4.221  24.065  0.00  0.00    +0.009 A 
ENDBRANCH  12  15
ENDBRANCH  11  12
ENDBRANCH   9  11
ENDBRANCH   4   9
BRANCH   1  21
ATOM     21  C   UNL     1       7.273  -3.890  26.823  0.00  0.00    +0.135 C 
BRANCH  21  24
ATOM     22  N   UNL     1       5.452  -5.531  26.761  0.00  0.00    -0.313 N 
ATOM     23  H   UNL     1       6.110  -6.172  27.186  0.00  0.00    +0.149 HD
ATOM     24  C   UNL     1       5.920  -4.336  26.259  0.00  0.00    +0.218 C 
ATOM     25  O   UNL     1       5.290  -3.676  25.437  0.00  0.00    -0.275 OA
BRANCH  22  26
ATOM     26  C   UNL     1       4.200  -6.137  26.305  0.00  0.00    +0.136 C 
BRANCH  26  27
ATOM     27  C   UNL     1       4.349  -7.076  25.098  0.00  0.00    +0.228 C 
BRANCH  27  28
ATOM     28  O   UNL     1       3.993  -6.457  23.857  0.00  0.00    -0.217 OA
BRANCH  28  33
ATOM     29  N   UNL     1       6.543  -5.625  21.597  0.00  0.00    -0.287 N 
ATOM     30  H   UNL     1       6.561  -6.526  21.136  0.00  0.00    +0.255 HD
ATOM     31  H   UNL     1       6.692  -4.902  20.909  0.00  0.00    +0.255 HD
ATOM     32  C   UNL     1       5.455  -5.459  22.377  0.00  0.00    +0.404 C 
ATOM     33  N   UNL     1       5.059  -6.629  22.964  0.00  0.00    -0.139 N 
ATOM     34  H   UNL     1       5.829  -7.151  23.372  0.00  0.00    +0.299 HD
ATOM     35  N   UNL     1       4.879  -4.317  22.461  0.00  0.00    -0.128 NA
ATOM     36  H   UNL     1       5.425  -3.625  21.943  0.00  0.00    +0.306 HD
ENDBRANCH  28  33
ENDBRANCH  27  28
ENDBRANCH  26  27
ENDBRANCH  22  26
ENDBRANCH  21  24
ENDBRANCH   1  21
TORSDOF 10
ENDMDL
