MODEL 1
REMARK VINA RESULT:      -4.1      0.000      0.000
REMARK  Name = 
REMARK  1 active torsions:
REMARK  status: ('A' for Active; 'I' for Inactive)
REMARK    1  A    between atoms: N_3  and  C_4
REMARK                            x       y       z     vdW  Elec       q    Type
REMARK                         _______ _______ _______ _____ _____    ______ ____
ROOT
ATOM      1  C   UNL     1      10.330  -0.308  23.344  0.00  0.00    +0.073 C 
ATOM      2  C   UNL     1      10.769   0.884  24.206  0.00  0.00    +0.022 C 
ATOM      3  C   UNL     1       9.736   2.012  24.208  0.00  0.00    +0.002 C 
ATOM      4  C   UNL     1       9.365   2.449  22.793  0.00  0.00    +0.000 C 
ATOM      5  C   UNL     1       8.932   1.275  21.921  0.00  0.00    +0.002 C 
ATOM      6  C   UNL     1       9.969   0.152  21.926  0.00  0.00    +0.022 C 
ENDROOT
BRANCH   1   9
ATOM      7  O   UNL     1      10.170  -3.124  23.930  0.00  0.00    -0.280 OA
ATOM      8  C   UNL     1       9.259  -2.364  24.220  0.00  0.00    +0.325 C 
ATOM      9  N   UNL     1       9.214  -1.021  23.955  0.00  0.00    -0.315 N 
ATOM     10  H   UNL     1       8.457  -0.489  24.365  0.00  0.00    +0.149 HD
ENDBRANCH   1   9
TORSDOF 1
ENDMDL
MODEL 2
REMARK VINA RESULT:      -4.0      2.970      4.092
REMARK  Name = 
REMARK  1 active torsions:
REMARK  status: ('A' for Active; 'I' for Inactive)
REMARK    1  A    between atoms: N_3  and  C_4
REMARK                            x       y       z     vdW  Elec       q    Type
REMARK                         _______ _______ _______ _____ _____    ______ ____
ROOT
ATOM      1  C   UNL     1      10.340   2.018  23.762  0.00  0.00    +0.073 C 
ATOM      2  C   UNL     1      10.227   1.998  22.231  0.00  0.00    +0.022 C 
ATOM      3  C   UNL     1       9.453   0.781  21.721  0.00  0.00    +0.002 C 
ATOM      4  C   UNL     1      10.027  -0.527  22.259  0.00  0.00    +0.000 C 
ATOM      5  C   UNL     1      10.153  -0.522  23.779  0.00  0.00    +0.002 C 
ATOM      6  C   UNL     1      10.926   0.699  24.280  0.00  0.00    +0.022 C 
ENDROOT
BRANCH   1   9
ATOM      7  O   UNL     1       9.292   4.581  24.555  0.00  0.00    -0.280 OA
ATOM      8  C   UNL     1       8.637   3.559  24.691  0.00  0.00    +0.325 C 
ATOM      9  N   UNL     1       9.050   2.290  24.385  0.00  0.00    -0.315 N 
ATOM     10  H   UNL     1       8.360   1.551  24.427  0.00  0.00    +0.149 HD
ENDBRANCH   1   9
TORSDOF 1
ENDMDL
MODEL 3
REMARK VINA RESULT:      -4.0      0.982      1.012
REMARK  Name = 
REMARK  1 active torsions:
REMARK  status: ('A' for Active; 'I' for Inactive)
REMARK    1  A    between atoms: N_3  and  C_4
REMARK                            x       y       z     vdW  Elec       q    Type
REMARK                         _______ _______ _______ _____ _____    ______ ____
ROOT
ATOM      1  C   UNL     1      10.177  -0.579  23.883  0.00  0.00    +0.073 C 
ATOM      2  C   UNL     1      10.836   0.748  24.284  0.00  0.00    +0.022 C 
ATOM      3  C   UNL     1      10.173   1.952  23.613  0.00  0.00    +0.002 C 
ATOM      4  C   UNL     1      10.106   1.796  22.096  0.00  0.00    +0.000 C 
ATOM      5  C   UNL     1       9.460   0.479  21.680  0.00  0.00    +0.002 C 
ATOM      6  C   UNL     1      10.127  -0.720  22.356  0.00  0.00    +0.022 C 
ENDROOT
BRANCH   1   9
ATOM      7  O   UNL     1       9.002  -2.924  25.075  0.00  0.00    -0.280 OA
ATOM      8  C   UNL     1       8.396  -1.864  25.031  0.00  0.00    +0.325 C 
ATOM      9  N   UNL     1       8.842  -0.703  24.457  0.00  0.00    -0.315 N 
ATOM     10  H   UNL     1       8.292   0.133  24.605  0.00  0.00    +0.149 HD
ENDBRANCH   1   9
TORSDOF 1
ENDMDL
MODEL 4
REMARK VINA RESULT:      -3.9      1.119      2.049
REMARK  Name = 
REMARK  1 active torsions:
REMARK  status: ('A' for Active; 'I' for Inactive)
REMARK    1  A    between atoms: N_3  and  C_4
REMARK                            x       y       z     vdW  Elec       q    Type
REMARK                         _______ _______ _______ _____ _____    ______ ____
ROOT
ATOM      1  C   UNL     1       9.002  -0.309  23.926  0.00  0.00    +0.073 C 
ATOM      2  C   UNL     1       8.568   0.032  22.493  0.00  0.00    +0.022 C 
ATOM      3  C   UNL     1       9.649   0.794  21.724  0.00  0.00    +0.002 C 
ATOM      4  C   UNL     1      10.120   2.035  22.479  0.00  0.00    +0.000 C 
ATOM      5  C   UNL     1      10.549   1.714  23.907  0.00  0.00    +0.002 C 
ATOM      6  C   UNL     1       9.464   0.952  24.668  0.00  0.00    +0.022 C 
ENDROOT
BRANCH   1   9
ATOM      7  O   UNL     1       8.655  -3.169  23.951  0.00  0.00    -0.280 OA
ATOM      8  C   UNL     1       9.768  -2.666  23.912  0.00  0.00    +0.325 C 
ATOM      9  N   UNL     1      10.048  -1.325  23.935  0.00  0.00    -0.315 N 
ATOM     10  H   UNL     1      11.006  -1.045  23.767  0.00  0.00    +0.149 HD
ENDBRANCH   1   9
TORSDOF 1
ENDMDL
MODEL 5
REMARK VINA RESULT:      -3.7      3.580      4.577
REMARK  Name = 
REMARK  1 active torsions:
REMARK  status: ('A' for Active; 'I' for Inactive)
REMARK    1  A    between atoms: N_3  and  C_4
REMARK                            x       y       z     vdW  Elec       q    Type
REMARK                         _______ _______ _______ _____ _____    ______ ____
ROOT
ATOM      1  C   UNL     1       8.976   2.947  23.434  0.00  0.00    +0.073 C 
ATOM      2  C   UNL     1       9.301   2.021  24.615  0.00  0.00    +0.022 C 
ATOM      3  C   UNL     1      10.465   1.077  24.311  0.00  0.00    +0.002 C 
ATOM      4  C   UNL     1      10.238   0.286  23.025  0.00  0.00    +0.000 C 
ATOM      5  C   UNL     1       9.907   1.190  21.842  0.00  0.00    +0.002 C 
ATOM      6  C   UNL     1       8.744   2.132  22.155  0.00  0.00    +0.022 C 
ENDROOT
BRANCH   1   9
ATOM      7  O   UNL     1       9.197   5.534  24.680  0.00  0.00    -0.280 OA
ATOM      8  C   UNL     1      10.052   5.129  23.906  0.00  0.00    +0.325 C 
ATOM      9  N   UNL     1      10.027   3.937  23.232  0.00  0.00    -0.315 N 
ATOM     10  H   UNL     1      10.861   3.671  22.723  0.00  0.00    +0.149 HD
ENDBRANCH   1   9
TORSDOF 1
ENDMDL
MODEL 6
REMARK VINA RESULT:      -3.7      5.336      6.483
REMARK  Name = 
REMARK  1 active torsions:
REMARK  status: ('A' for Active; 'I' for Inactive)
REMARK    1  A    between atoms: N_3  and  C_4
REMARK                            x       y       z     vdW  Elec       q    Type
REMARK                         _______ _______ _______ _____ _____    ______ ____
ROOT
ATOM      1  C   UNL     1       7.200  -4.443  23.474  0.00  0.00    +0.073 C 
ATOM      2  C   UNL     1       8.570  -4.176  24.114  0.00  0.00    +0.022 C 
ATOM      3  C   UNL     1       8.904  -5.182  25.216  0.00  0.00    +0.002 C 
ATOM      4  C   UNL     1       7.800  -5.264  26.268  0.00  0.00    +0.000 C 
ATOM      5  C   UNL     1       6.430  -5.523  25.649  0.00  0.00    +0.002 C 
ATOM      6  C   UNL     1       6.106  -4.514  24.547  0.00  0.00    +0.022 C 
ENDROOT
BRANCH   1   9
ATOM      7  O   UNL     1       5.922  -4.878  20.930  0.00  0.00    -0.280 OA
ATOM      8  C   UNL     1       6.600  -5.749  21.455  0.00  0.00    +0.325 C 
ATOM      9  N   UNL     1       7.219  -5.662  22.674  0.00  0.00    -0.315 N 
ATOM     10  H   UNL     1       7.853  -6.408  22.930  0.00  0.00    +0.149 HD
ENDBRANCH   1   9
TORSDOF 1
ENDMDL
MODEL 7
REMARK VINA RESULT:      -3.6      3.827      4.756
REMARK  Name = 
REMARK  1 active torsions:
REMARK  status: ('A' for Active; 'I' for Inactive)
REMARK    1  A    between atoms: N_3  and  C_4
REMARK                            x       y       z     vdW  Elec       q    Type
REMARK                         _______ _______ _______ _____ _____    ______ ____
ROOT
ATOM      1  C   UNL     1       7.723   2.484  22.512  0.00  0.00    +0.073 C 
ATOM      2  C   UNL     1       7.983   2.189  23.996  0.00  0.00    +0.022 C 
ATOM      3  C   UNL     1       9.475   2.157  24.330  0.00  0.00    +0.002 C 
ATOM      4  C   UNL     1      10.243   1.198  23.424  0.00  0.00    +0.000 C 
ATOM      5  C   UNL     1       9.991   1.474  21.945  0.00  0.00    +0.002 C 
ATOM      6  C   UNL     1       8.497   1.505  21.620  0.00  0.00    +0.022 C 
ENDROOT
BRANCH   1   9
ATOM      7  O   UNL     1       5.987   4.780  22.622  0.00  0.00    -0.280 OA
ATOM      8  C   UNL     1       7.161   4.889  22.301  0.00  0.00    +0.325 C 
ATOM      9  N   UNL     1       8.061   3.863  22.179  0.00  0.00    -0.315 N 
ATOM     10  H   UNL     1       9.032   4.109  22.031  0.00  0.00    +0.149 HD
ENDBRANCH   1   9
TORSDOF 1
ENDMDL
MODEL 8
REMARK VINA RESULT:      -3.6      2.766      4.022
REMARK  Name = 
REMARK  1 active torsions:
REMARK  status: ('A' for Active; 'I' for Inactive)
REMARK    1  A    between atoms: N_3  and  C_4
REMARK                            x       y       z     vdW  Elec       q    Type
REMARK                         _______ _______ _______ _____ _____    ______ ____
ROOT
ATOM      1  C   UNL     1       9.188   1.091  22.686  0.00  0.00    +0.073 C 
ATOM      2  C   UNL     1       9.428   0.218  21.446  0.00  0.00    +0.022 C 
ATOM      3  C   UNL     1       9.326  -1.275  21.757  0.00  0.00    +0.002 C 
ATOM      4  C   UNL     1      10.237  -1.681  22.913  0.00  0.00    +0.000 C 
ATOM      5  C   UNL     1      10.016  -0.820  24.153  0.00  0.00    +0.002 C 
ATOM      6  C   UNL     1      10.117   0.672  23.832  0.00  0.00    +0.022 C 
ENDROOT
BRANCH   1   9
ATOM      7  O   UNL     1       7.034   2.782  21.794  0.00  0.00    -0.280 OA
ATOM      8  C   UNL     1       6.839   1.876  22.590  0.00  0.00    +0.325 C 
ATOM      9  N   UNL     1       7.793   1.040  23.108  0.00  0.00    -0.315 N 
ATOM     10  H   UNL     1       7.475   0.252  23.657  0.00  0.00    +0.149 HD
ENDBRANCH   1   9
TORSDOF 1
ENDMDL
MODEL 9
REMARK VINA RESULT:      -3.6      4.119      5.055
REMARK  Name = 
REMARK  1 active torsions:
REMARK  status: ('A' for Active; 'I' for Inactive)
REMARK    1  A    between atoms: N_3  and  C_4
REMARK                            x       y       z     vdW  Elec       q    Type
REMARK                         _______ _______ _______ _____ _____    ______ ____
ROOT
ATOM      1  C   UNL     1       9.149   3.462  23.801  0.00  0.00    +0.073 C 
ATOM      2  C   UNL     1      10.153   2.330  23.544  0.00  0.00    +0.022 C 
ATOM      3  C   UNL     1      10.102   1.823  22.102  0.00  0.00    +0.002 C 
ATOM      4  C   UNL     1       8.688   1.424  21.687  0.00  0.00    +0.000 C 
ATOM      5  C   UNL     1       7.676   2.536  21.941  0.00  0.00    +0.002 C 
ATOM      6  C   UNL     1       7.735   3.038  23.385  0.00  0.00    +0.022 C 
ENDROOT
BRANCH   1   9
ATOM      7  O   UNL     1       9.851   5.986  25.000  0.00  0.00    -0.280 OA
ATOM      8  C   UNL     1       9.891   5.827  23.789  0.00  0.00    +0.325 C 
ATOM      9  N   UNL     1       9.544   4.686  23.114  0.00  0.00    -0.315 N 
ATOM     10  H   UNL     1       9.748   4.650  22.124  0.00  0.00    +0.149 HD
ENDBRANCH   1   9
TORSDOF 1
ENDMDL
