MODEL 1
REMARK VINA RESULT:      -7.2      0.000      0.000
REMARK  Name = 
REMARK  6 active torsions:
REMARK  status: ('A' for Active; 'I' for Inactive)
REMARK    1  A    between atoms: N_1  and  S_2
REMARK    2  A    between atoms: S_2  and  C_5
REMARK    3  A    between atoms: N_13  and  C_23
REMARK    4  A    between atoms: C_14  and  C_15
REMARK    5  A    between atoms: C_15  and  N_16
REMARK    6  A    between atoms: C_25  and  O_26
REMARK                            x       y       z     vdW  Elec       q    Type
REMARK                         _______ _______ _______ _____ _____    ______ ____
ROOT
ATOM      1  C   UNL     1       7.724   3.251  23.383  0.00  0.00    +0.145 A 
ATOM      2  S   UNL     1       7.967   2.702  24.994  0.00  0.00    -0.048 S 
ATOM      3  C   UNL     1       7.873   1.091  24.500  0.00  0.00    +0.155 A 
ATOM      4  S   UNL     1       8.135  -0.218  25.624  0.00  0.00    +0.086 S 
ATOM      5  N   UNL     1       7.767  -1.608  24.709  0.00  0.00    -0.174 N 
ATOM      6  C   UNL     1       7.627  -1.567  23.258  0.00  0.00    +0.049 C 
ATOM      7  C   UNL     1       7.531  -0.373  22.618  0.00  0.00    +0.032 C 
ATOM      8  O   UNL     1       9.556  -0.198  25.905  0.00  0.00    -0.149 OA
ATOM      9  O   UNL     1       7.136  -0.050  26.658  0.00  0.00    -0.149 OA
ATOM     10  C   UNL     1       7.614   0.940  23.170  0.00  0.00    +0.012 A 
ATOM     11  C   UNL     1       7.514   2.195  22.508  0.00  0.00    +0.046 A 
ENDROOT
BRANCH   5  12
ATOM     12  C   UNL     1       7.966  -2.845  25.398  0.00  0.00    +0.060 A 
ATOM     13  C   UNL     1       7.031  -3.243  26.357  0.00  0.00    +0.025 A 
ATOM     14  C   UNL     1       7.181  -4.467  27.010  0.00  0.00    +0.005 A 
ATOM     15  C   UNL     1       8.273  -5.284  26.717  0.00  0.00    +0.045 A 
ATOM     16  C   UNL     1       9.237  -4.843  25.816  0.00  0.00    +0.119 A 
ATOM     17  C   UNL     1       9.099  -3.627  25.155  0.00  0.00    +0.070 A 
BRANCH  16  18
ATOM     18  O   UNL     1      10.323  -5.642  25.610  0.00  0.00    -0.507 OA
ATOM     19  H   UNL     1      10.048  -6.403  25.072  0.00  0.00    +0.292 HD
ENDBRANCH  16  18
ENDBRANCH   5  12
BRANCH   1  20
ATOM     20  S   UNL     1       7.803   5.006  23.143  0.00  0.00    +0.062 S 
ATOM     21  O   UNL     1       7.193   5.266  21.860  0.00  0.00    -0.153 OA
ATOM     22  O   UNL     1       7.316   5.597  24.365  0.00  0.00    -0.153 OA
BRANCH  20  23
ATOM     23  N   UNL     1       9.421   5.440  22.992  0.00  0.00    -0.203 NA
ATOM     24  H   UNL     1       9.500   6.328  22.494  0.00  0.00    +0.144 HD
ATOM     25  H   UNL     1       9.836   5.498  23.922  0.00  0.00    +0.144 HD
ENDBRANCH  20  23
ENDBRANCH   1  20
BRANCH   6  26
ATOM     26  C   UNL     1       7.520  -2.857  22.432  0.00  0.00    +0.137 C 
BRANCH  26  27
ATOM     27  N   UNL     1       6.141  -3.122  21.981  0.00  0.00    -0.293 NA
ATOM     28  C   UNL     1       5.228  -3.495  23.084  0.00  0.00    +0.113 C 
ATOM     29  C   UNL     1       5.320  -4.959  23.543  0.00  0.00    +0.175 C 
ATOM     30  O   UNL     1       5.170  -5.861  22.442  0.00  0.00    -0.377 OA
ATOM     31  C   UNL     1       6.170  -5.603  21.451  0.00  0.00    +0.175 C 
ATOM     32  C   UNL     1       6.068  -4.160  20.929  0.00  0.00    +0.113 C 
ENDBRANCH  26  27
ENDBRANCH   6  26
TORSDOF 6
ENDMDL
MODEL 2
REMARK VINA RESULT:      -7.0      3.312      7.749
REMARK  Name = 
REMARK  6 active torsions:
REMARK  status: ('A' for Active; 'I' for Inactive)
REMARK    1  A    between atoms: N_1  and  S_2
REMARK    2  A    between atoms: S_2  and  C_5
REMARK    3  A    between atoms: N_13  and  C_23
REMARK    4  A    between atoms: C_14  and  C_15
REMARK    5  A    between atoms: C_15  and  N_16
REMARK    6  A    between atoms: C_25  and  O_26
REMARK                            x       y       z     vdW  Elec       q    Type
REMARK                         _______ _______ _______ _____ _____    ______ ____
ROOT
ATOM      1  C   UNL     1       4.357  -5.013  24.243  0.00  0.00    +0.145 A 
ATOM      2  S   UNL     1       5.899  -5.048  23.483  0.00  0.00    -0.048 S 
ATOM      3  C   UNL     1       6.190  -3.442  23.915  0.00  0.00    +0.155 A 
ATOM      4  S   UNL     1       7.717  -2.672  23.566  0.00  0.00    +0.086 S 
ATOM      5  N   UNL     1       7.460  -1.052  24.025  0.00  0.00    -0.174 N 
ATOM      6  C   UNL     1       6.310  -0.645  24.827  0.00  0.00    +0.049 C 
ATOM      7  C   UNL     1       5.274  -1.503  25.012  0.00  0.00    +0.032 C 
ATOM      8  O   UNL     1       8.664  -3.280  24.479  0.00  0.00    -0.149 OA
ATOM      9  O   UNL     1       7.869  -2.741  22.128  0.00  0.00    -0.149 OA
ATOM     10  C   UNL     1       5.149  -2.854  24.571  0.00  0.00    +0.012 A 
ATOM     11  C   UNL     1       4.068  -3.758  24.759  0.00  0.00    +0.046 A 
ENDROOT
BRANCH   5  12
ATOM     12  C   UNL     1       8.606  -0.206  23.894  0.00  0.00    +0.060 A 
ATOM     13  C   UNL     1       9.544  -0.172  24.929  0.00  0.00    +0.025 A 
ATOM     14  C   UNL     1      10.691   0.611  24.804  0.00  0.00    +0.005 A 
ATOM     15  C   UNL     1      10.893   1.372  23.652  0.00  0.00    +0.045 A 
ATOM     16  C   UNL     1       9.917   1.389  22.661  0.00  0.00    +0.119 A 
ATOM     17  C   UNL     1       8.770   0.610  22.771  0.00  0.00    +0.070 A 
BRANCH  16  18
ATOM     18  O   UNL     1      10.123   2.199  21.584  0.00  0.00    -0.507 OA
ATOM     19  H   UNL     1       9.409   2.046  20.942  0.00  0.00    +0.292 HD
ENDBRANCH  16  18
ENDBRANCH   5  12
BRANCH   1  20
ATOM     20  S   UNL     1       3.461  -6.543  24.244  0.00  0.00    +0.062 S 
ATOM     21  O   UNL     1       4.442  -7.586  24.432  0.00  0.00    -0.153 OA
ATOM     22  O   UNL     1       2.351  -6.353  25.145  0.00  0.00    -0.153 OA
BRANCH  20  23
ATOM     23  N   UNL     1       2.818  -6.773  22.706  0.00  0.00    -0.203 NA
ATOM     24  H   UNL     1       1.929  -7.270  22.770  0.00  0.00    +0.144 HD
ATOM     25  H   UNL     1       2.705  -5.864  22.257  0.00  0.00    +0.144 HD
ENDBRANCH  20  23
ENDBRANCH   1  20
BRANCH   6  26
ATOM     26  C   UNL     1       6.213   0.768  25.419  0.00  0.00    +0.137 C 
BRANCH  26  27
ATOM     27  N   UNL     1       5.128   1.559  24.808  0.00  0.00    -0.293 NA
ATOM     28  C   UNL     1       5.525   2.219  23.545  0.00  0.00    +0.113 C 
ATOM     29  C   UNL     1       6.329   3.519  23.712  0.00  0.00    +0.175 C 
ATOM     30  O   UNL     1       5.653   4.444  24.569  0.00  0.00    -0.377 OA
ATOM     31  C   UNL     1       5.423   3.853  25.853  0.00  0.00    +0.175 C 
ATOM     32  C   UNL     1       4.571   2.578  25.726  0.00  0.00    +0.113 C 
ENDBRANCH  26  27
ENDBRANCH   6  26
TORSDOF 6
ENDMDL
MODEL 3
REMARK VINA RESULT:      -6.9      2.399      3.771
REMARK  Name = 
REMARK  6 active torsions:
REMARK  status: ('A' for Active; 'I' for Inactive)
REMARK    1  A    between atoms: N_1  and  S_2
REMARK    2  A    between atoms: S_2  and  C_5
REMARK    3  A    between atoms: N_13  and  C_23
REMARK    4  A    between atoms: C_14  and  C_15
REMARK    5  A    between atoms: C_15  and  N_16
REMARK    6  A    between atoms: C_25  and  O_26
REMARK                            x       y       z     vdW  Elec       q    Type
REMARK                         _______ _______ _______ _____ _____    ______ ____
ROOT
ATOM      1  C   UNL     1       9.166   3.414  24.059  0.00  0.00    +0.145 A 
ATOM      2  S   UNL     1      10.076   2.204  23.243  0.00  0.00    -0.048 S 
ATOM      3  C   UNL     1       8.912   1.035  23.600  0.00  0.00    +0.155 A 
ATOM      4  S   UNL     1       9.049  -0.595  22.992  0.00  0.00    +0.086 S 
ATOM      5  N   UNL     1       7.761  -1.413  23.751  0.00  0.00    -0.174 N 
ATOM      6  C   UNL     1       6.686  -0.702  24.436  0.00  0.00    +0.049 C 
ATOM      7  C   UNL     1       6.815   0.621  24.711  0.00  0.00    +0.032 C 
ATOM      8  O   UNL     1       8.775  -0.494  21.572  0.00  0.00    -0.149 OA
ATOM      9  O   UNL     1      10.304  -1.099  23.507  0.00  0.00    -0.149 OA
ATOM     10  C   UNL     1       7.879   1.503  24.357  0.00  0.00    +0.012 A 
ATOM     11  C   UNL     1       8.021   2.890  24.642  0.00  0.00    +0.046 A 
ENDROOT
BRANCH   5  12
ATOM     12  C   UNL     1       7.614  -2.782  23.364  0.00  0.00    +0.060 A 
ATOM     13  C   UNL     1       8.286  -3.766  24.092  0.00  0.00    +0.025 A 
ATOM     14  C   UNL     1       8.122  -5.112  23.761  0.00  0.00    +0.005 A 
ATOM     15  C   UNL     1       7.299  -5.471  22.693  0.00  0.00    +0.045 A 
ATOM     16  C   UNL     1       6.695  -4.478  21.929  0.00  0.00    +0.119 A 
ATOM     17  C   UNL     1       6.847  -3.133  22.250  0.00  0.00    +0.070 A 
BRANCH  16  18
ATOM     18  O   UNL     1       5.955  -4.870  20.853  0.00  0.00    -0.507 OA
ATOM     19  H   UNL     1       5.104  -5.213  21.173  0.00  0.00    +0.292 HD
ENDBRANCH  16  18
ENDBRANCH   5  12
BRANCH   1  20
ATOM     20  S   UNL     1       9.829   5.057  23.991  0.00  0.00    +0.062 S 
ATOM     21  O   UNL     1       9.444   5.699  25.227  0.00  0.00    -0.153 OA
ATOM     22  O   UNL     1      11.206   4.914  23.590  0.00  0.00    -0.153 OA
BRANCH  20  23
ATOM     23  N   UNL     1       9.037   5.889  22.762  0.00  0.00    -0.203 NA
ATOM     24  H   UNL     1       8.048   5.993  22.992  0.00  0.00    +0.144 HD
ATOM     25  H   UNL     1       9.487   6.796  22.635  0.00  0.00    +0.144 HD
ENDBRANCH  20  23
ENDBRANCH   1  20
BRANCH   6  26
ATOM     26  C   UNL     1       5.427  -1.437  24.916  0.00  0.00    +0.137 C 
BRANCH  26  27
ATOM     27  N   UNL     1       5.367  -1.548  26.386  0.00  0.00    -0.293 NA
ATOM     28  C   UNL     1       6.243  -2.611  26.926  0.00  0.00    +0.113 C 
ATOM     29  C   UNL     1       5.675  -4.037  26.833  0.00  0.00    +0.175 C 
ATOM     30  O   UNL     1       4.371  -4.118  27.415  0.00  0.00    -0.377 OA
ATOM     31  C   UNL     1       3.481  -3.202  26.767  0.00  0.00    +0.175 C 
ATOM     32  C   UNL     1       3.993  -1.757  26.893  0.00  0.00    +0.113 C 
ENDBRANCH  26  27
ENDBRANCH   6  26
TORSDOF 6
ENDMDL
MODEL 4
REMARK VINA RESULT:      -6.8      1.629      1.966
REMARK  Name = 
REMARK  6 active torsions:
REMARK  status: ('A' for Active; 'I' for Inactive)
REMARK    1  A    between atoms: N_1  and  S_2
REMARK    2  A    between atoms: S_2  and  C_5
REMARK    3  A    between atoms: N_13  and  C_23
REMARK    4  A    between atoms: C_14  and  C_15
REMARK    5  A    between atoms: C_15  and  N_16
REMARK    6  A    between atoms: C_25  and  O_26
REMARK                            x       y       z     vdW  Elec       q    Type
REMARK                         _______ _______ _______ _____ _____    ______ ____
ROOT
ATOM      1  C   UNL     1       8.568   2.524  24.070  0.00  0.00    +0.145 A 
ATOM      2  S   UNL     1       7.675   2.205  25.505  0.00  0.00    -0.048 S 
ATOM      3  C   UNL     1       7.602   0.559  25.138  0.00  0.00    +0.155 A 
ATOM      4  S   UNL     1       6.877  -0.584  26.239  0.00  0.00    +0.086 S 
ATOM      5  N   UNL     1       6.890  -2.045  25.363  0.00  0.00    -0.174 N 
ATOM      6  C   UNL     1       7.672  -2.211  24.143  0.00  0.00    +0.049 C 
ATOM      7  C   UNL     1       8.209  -1.126  23.527  0.00  0.00    +0.032 C 
ATOM      8  O   UNL     1       7.808  -0.686  27.346  0.00  0.00    -0.149 OA
ATOM      9  O   UNL     1       5.509  -0.144  26.413  0.00  0.00    -0.149 OA
ATOM     10  C   UNL     1       8.182   0.237  23.946  0.00  0.00    +0.012 A 
ATOM     11  C   UNL     1       8.741   1.379  23.308  0.00  0.00    +0.046 A 
ENDROOT
BRANCH   5  12
ATOM     12  C   UNL     1       6.395  -3.177  26.084  0.00  0.00    +0.060 A 
ATOM     13  C   UNL     1       5.014  -3.349  26.206  0.00  0.00    +0.025 A 
ATOM     14  C   UNL     1       4.507  -4.468  26.867  0.00  0.00    +0.005 A 
ATOM     15  C   UNL     1       5.380  -5.407  27.417  0.00  0.00    +0.045 A 
ATOM     16  C   UNL     1       6.752  -5.186  27.354  0.00  0.00    +0.119 A 
ATOM     17  C   UNL     1       7.271  -4.077  26.697  0.00  0.00    +0.070 A 
BRANCH  16  18
ATOM     18  O   UNL     1       7.567  -6.093  27.965  0.00  0.00    -0.507 OA
ATOM     19  H   UNL     1       7.110  -6.439  28.750  0.00  0.00    +0.292 HD
ENDBRANCH  16  18
ENDBRANCH   5  12
BRANCH   1  20
ATOM     20  S   UNL     1       9.102   4.201  23.849  0.00  0.00    +0.062 S 
ATOM     21  O   UNL     1       8.702   4.912  25.041  0.00  0.00    -0.153 OA
ATOM     22  O   UNL     1      10.475   4.127  23.416  0.00  0.00    -0.153 OA
BRANCH  20  23
ATOM     23  N   UNL     1       8.217   4.868  22.584  0.00  0.00    -0.203 NA
ATOM     24  H   UNL     1       8.824   5.441  21.997  0.00  0.00    +0.144 HD
ATOM     25  H   UNL     1       7.786   4.114  22.049  0.00  0.00    +0.144 HD
ENDBRANCH  20  23
ENDBRANCH   1  20
BRANCH   6  26
ATOM     26  C   UNL     1       7.851  -3.591  23.494  0.00  0.00    +0.137 C 
BRANCH  26  27
ATOM     27  N   UNL     1       7.116  -3.712  22.220  0.00  0.00    -0.293 NA
ATOM     28  C   UNL     1       5.696  -3.312  22.325  0.00  0.00    +0.113 C 
ATOM     29  C   UNL     1       4.760  -4.374  22.924  0.00  0.00    +0.175 C 
ATOM     30  O   UNL     1       4.879  -5.622  22.233  0.00  0.00    -0.377 OA
ATOM     31  C   UNL     1       6.231  -6.089  22.285  0.00  0.00    +0.175 C 
ATOM     32  C   UNL     1       7.188  -5.072  21.641  0.00  0.00    +0.113 C 
ENDBRANCH  26  27
ENDBRANCH   6  26
TORSDOF 6
ENDMDL
MODEL 5
REMARK VINA RESULT:      -6.7      3.097      7.995
REMARK  Name = 
REMARK  6 active torsions:
REMARK  status: ('A' for Active; 'I' for Inactive)
REMARK    1  A    between atoms: N_1  and  S_2
REMARK    2  A    between atoms: S_2  and  C_5
REMARK    3  A    between atoms: N_13  and  C_23
REMARK    4  A    between atoms: C_14  and  C_15
REMARK    5  A    between atoms: C_15  and  N_16
REMARK    6  A    between atoms: C_25  and  O_26
REMARK                            x       y       z     vdW  Elec       q    Type
REMARK                         _______ _______ _______ _____ _____    ______ ____
ROOT
ATOM      1  C   UNL     1       8.164  -3.103  24.523  0.00  0.00    +0.145 A 
ATOM      2  S   UNL     1       9.358  -2.123  23.767  0.00  0.00    -0.048 S 
ATOM      3  C   UNL     1       8.469  -0.725  24.091  0.00  0.00    +0.155 A 
ATOM      4  S   UNL     1       9.091   0.856  23.691  0.00  0.00    +0.086 S 
ATOM      5  N   UNL     1       7.788   1.896  24.042  0.00  0.00    -0.174 N 
ATOM      6  C   UNL     1       6.630   1.457  24.814  0.00  0.00    +0.049 C 
ATOM      7  C   UNL     1       6.437   0.135  25.056  0.00  0.00    +0.032 C 
ATOM      8  O   UNL     1      10.158   1.095  24.643  0.00  0.00    -0.149 OA
ATOM      9  O   UNL     1       9.315   0.838  22.261  0.00  0.00    -0.149 OA
ATOM     10  C   UNL     1       7.276  -0.964  24.706  0.00  0.00    +0.012 A 
ATOM     11  C   UNL     1       7.081  -2.351  24.954  0.00  0.00    +0.046 A 
ENDROOT
BRANCH   5  12
ATOM     12  C   UNL     1       8.068   3.286  23.854  0.00  0.00    +0.060 A 
ATOM     13  C   UNL     1       8.743   3.982  24.860  0.00  0.00    +0.025 A 
ATOM     14  C   UNL     1       9.066   5.327  24.681  0.00  0.00    +0.005 A 
ATOM     15  C   UNL     1       8.701   5.980  23.503  0.00  0.00    +0.045 A 
ATOM     16  C   UNL     1       7.963   5.298  22.541  0.00  0.00    +0.119 A 
ATOM     17  C   UNL     1       7.637   3.956  22.705  0.00  0.00    +0.070 A 
BRANCH  16  18
ATOM     18  O   UNL     1       7.568   5.993  21.437  0.00  0.00    -0.507 OA
ATOM     19  H   UNL     1       8.291   5.979  20.788  0.00  0.00    +0.292 HD
ENDBRANCH  16  18
ENDBRANCH   5  12
BRANCH   1  20
ATOM     20  S   UNL     1       8.535  -4.834  24.626  0.00  0.00    +0.062 S 
ATOM     21  O   UNL     1       7.907  -5.310  25.836  0.00  0.00    -0.153 OA
ATOM     22  O   UNL     1       8.232  -5.383  23.328  0.00  0.00    -0.153 OA
BRANCH  20  23
ATOM     23  N   UNL     1      10.193  -4.999  24.860  0.00  0.00    -0.203 NA
ATOM     24  H   UNL     1      10.598  -4.103  25.134  0.00  0.00    +0.144 HD
ATOM     25  H   UNL     1      10.357  -5.713  25.569  0.00  0.00    +0.144 HD
ENDBRANCH  20  23
ENDBRANCH   1  20
BRANCH   6  26
ATOM     26  C   UNL     1       5.578   2.460  25.310  0.00  0.00    +0.137 C 
BRANCH  26  27
ATOM     27  N   UNL     1       4.281   2.296  24.628  0.00  0.00    -0.293 NA
ATOM     28  C   UNL     1       4.217   2.983  23.320  0.00  0.00    +0.113 C 
ATOM     29  C   UNL     1       3.949   4.495  23.387  0.00  0.00    +0.175 C 
ATOM     30  O   UNL     1       2.780   4.783  24.161  0.00  0.00    -0.377 OA
ATOM     31  C   UNL     1       2.922   4.260  25.486  0.00  0.00    +0.175 C 
ATOM     32  C   UNL     1       3.135   2.737  25.455  0.00  0.00    +0.113 C 
ENDBRANCH  26  27
ENDBRANCH   6  26
TORSDOF 6
ENDMDL
MODEL 6
REMARK VINA RESULT:      -6.6      2.457      3.535
REMARK  Name = 
REMARK  6 active torsions:
REMARK  status: ('A' for Active; 'I' for Inactive)
REMARK    1  A    between atoms: N_1  and  S_2
REMARK    2  A    between atoms: S_2  and  C_5
REMARK    3  A    between atoms: N_13  and  C_23
REMARK    4  A    between atoms: C_14  and  C_15
REMARK    5  A    between atoms: C_15  and  N_16
REMARK    6  A    between atoms: C_25  and  O_26
REMARK                            x       y       z     vdW  Elec       q    Type
REMARK                         _______ _______ _______ _____ _____    ______ ____
ROOT
ATOM      1  C   UNL     1       9.154   3.824  24.300  0.00  0.00    +0.145 A 
ATOM      2  S   UNL     1       9.938   2.651  23.317  0.00  0.00    -0.048 S 
ATOM      3  C   UNL     1       9.059   1.404  24.039  0.00  0.00    +0.155 A 
ATOM      4  S   UNL     1       9.211  -0.246  23.491  0.00  0.00    +0.086 S 
ATOM      5  N   UNL     1       8.285  -1.127  24.618  0.00  0.00    -0.174 N 
ATOM      6  C   UNL     1       7.364  -0.475  25.544  0.00  0.00    +0.049 C 
ATOM      7  C   UNL     1       7.410   0.871  25.712  0.00  0.00    +0.032 C 
ATOM      8  O   UNL     1       8.548  -0.280  22.203  0.00  0.00    -0.149 OA
ATOM      9  O   UNL     1      10.609  -0.585  23.655  0.00  0.00    -0.149 OA
ATOM     10  C   UNL     1       8.227   1.824  25.034  0.00  0.00    +0.012 A 
ATOM     11  C   UNL     1       8.281   3.235  25.204  0.00  0.00    +0.046 A 
ENDROOT
BRANCH   5  12
ATOM     12  C   UNL     1       8.195  -2.529  24.350  0.00  0.00    +0.060 A 
ATOM     13  C   UNL     1       7.281  -2.978  23.395  0.00  0.00    +0.025 A 
ATOM     14  C   UNL     1       7.206  -4.336  23.085  0.00  0.00    +0.005 A 
ATOM     15  C   UNL     1       8.035  -5.246  23.741  0.00  0.00    +0.045 A 
ATOM     16  C   UNL     1       8.888  -4.797  24.744  0.00  0.00    +0.119 A 
ATOM     17  C   UNL     1       8.975  -3.446  25.061  0.00  0.00    +0.070 A 
BRANCH  16  18
ATOM     18  O   UNL     1       9.631  -5.729  25.407  0.00  0.00    -0.507 OA
ATOM     19  H   UNL     1       9.027  -6.378  25.806  0.00  0.00    +0.292 HD
ENDBRANCH  16  18
ENDBRANCH   5  12
BRANCH   1  20
ATOM     20  S   UNL     1       9.579   5.514  23.974  0.00  0.00    +0.062 S 
ATOM     21  O   UNL     1       9.080   6.279  25.094  0.00  0.00    -0.153 OA
ATOM     22  O   UNL     1      10.971   5.510  23.599  0.00  0.00    -0.153 OA
BRANCH  20  23
ATOM     23  N   UNL     1       8.704   6.023  22.630  0.00  0.00    -0.203 NA
ATOM     24  H   UNL     1       9.037   6.937  22.322  0.00  0.00    +0.144 HD
ATOM     25  H   UNL     1       8.797   5.325  21.893  0.00  0.00    +0.144 HD
ENDBRANCH  20  23
ENDBRANCH   1  20
BRANCH   6  26
ATOM     26  C   UNL     1       6.378  -1.292  26.392  0.00  0.00    +0.137 C 
BRANCH  26  27
ATOM     27  N   UNL     1       4.989  -1.171  25.909  0.00  0.00    -0.293 NA
ATOM     28  C   UNL     1       4.093  -0.498  26.875  0.00  0.00    +0.113 C 
ATOM     29  C   UNL     1       3.579  -1.387  28.019  0.00  0.00    +0.175 C 
ATOM     30  O   UNL     1       2.970  -2.581  27.518  0.00  0.00    -0.377 OA
ATOM     31  C   UNL     1       3.904  -3.316  26.720  0.00  0.00    +0.175 C 
ATOM     32  C   UNL     1       4.395  -2.472  25.531  0.00  0.00    +0.113 C 
ENDBRANCH  26  27
ENDBRANCH   6  26
TORSDOF 6
ENDMDL
MODEL 7
REMARK VINA RESULT:      -6.5      3.301      8.550
REMARK  Name = 
REMARK  6 active torsions:
REMARK  status: ('A' for Active; 'I' for Inactive)
REMARK    1  A    between atoms: N_1  and  S_2
REMARK    2  A    between atoms: S_2  and  C_5
REMARK    3  A    between atoms: N_13  and  C_23
REMARK    4  A    between atoms: C_14  and  C_15
REMARK    5  A    between atoms: C_15  and  N_16
REMARK    6  A    between atoms: C_25  and  O_26
REMARK                            x       y       z     vdW  Elec       q    Type
REMARK                         _______ _______ _______ _____ _____    ______ ____
ROOT
ATOM      1  C   UNL     1       8.578  -2.711  25.196  0.00  0.00    +0.145 A 
ATOM      2  S   UNL     1       9.395  -1.860  23.946  0.00  0.00    -0.048 S 
ATOM      3  C   UNL     1       8.694  -0.402  24.429  0.00  0.00    +0.155 A 
ATOM      4  S   UNL     1       9.115   1.106  23.658  0.00  0.00    +0.086 S 
ATOM      5  N   UNL     1       8.041   2.226  24.361  0.00  0.00    -0.174 N 
ATOM      6  C   UNL     1       7.263   1.912  25.555  0.00  0.00    +0.049 C 
ATOM      7  C   UNL     1       7.177   0.629  25.991  0.00  0.00    +0.032 C 
ATOM      8  O   UNL     1      10.463   1.396  24.106  0.00  0.00    -0.149 OA
ATOM      9  O   UNL     1       8.780   0.936  22.260  0.00  0.00    -0.149 OA
ATOM     10  C   UNL     1       7.823  -0.532  25.470  0.00  0.00    +0.012 A 
ATOM     11  C   UNL     1       7.738  -1.878  25.921  0.00  0.00    +0.046 A 
ENDROOT
BRANCH   5  12
ATOM     12  C   UNL     1       8.227   3.578  23.934  0.00  0.00    +0.060 A 
ATOM     13  C   UNL     1       9.191   4.363  24.572  0.00  0.00    +0.025 A 
ATOM     14  C   UNL     1       9.421   5.670  24.144  0.00  0.00    +0.005 A 
ATOM     15  C   UNL     1       8.677   6.199  23.089  0.00  0.00    +0.045 A 
ATOM     16  C   UNL     1       7.669   5.434  22.511  0.00  0.00    +0.119 A 
ATOM     17  C   UNL     1       7.431   4.129  22.925  0.00  0.00    +0.070 A 
BRANCH  16  18
ATOM     18  O   UNL     1       6.920   6.014  21.529  0.00  0.00    -0.507 OA
ATOM     19  H   UNL     1       6.755   6.940  21.773  0.00  0.00    +0.292 HD
ENDBRANCH  16  18
ENDBRANCH   5  12
BRANCH   1  20
ATOM     20  S   UNL     1       8.963  -4.436  25.336  0.00  0.00    +0.062 S 
ATOM     21  O   UNL     1       7.763  -5.149  24.965  0.00  0.00    -0.153 OA
ATOM     22  O   UNL     1      10.217  -4.621  24.648  0.00  0.00    -0.153 OA
BRANCH  20  23
ATOM     23  N   UNL     1       9.233  -4.782  26.960  0.00  0.00    -0.203 NA
ATOM     24  H   UNL     1       9.631  -3.967  27.429  0.00  0.00    +0.144 HD
ATOM     25  H   UNL     1       8.351  -5.063  27.388  0.00  0.00    +0.144 HD
ENDBRANCH  20  23
ENDBRANCH   1  20
BRANCH   6  26
ATOM     26  C   UNL     1       6.477   3.000  26.300  0.00  0.00    +0.137 C 
BRANCH  26  27
ATOM     27  N   UNL     1       7.233   3.560  27.436  0.00  0.00    -0.293 NA
ATOM     28  C   UNL     1       6.915   2.911  28.727  0.00  0.00    +0.113 C 
ATOM     29  C   UNL     1       5.619   3.392  29.399  0.00  0.00    +0.175 C 
ATOM     30  O   UNL     1       5.602   4.817  29.538  0.00  0.00    -0.377 OA
ATOM     31  C   UNL     1       5.739   5.440  28.257  0.00  0.00    +0.175 C 
ATOM     32  C   UNL     1       7.056   5.022  27.581  0.00  0.00    +0.113 C 
ENDBRANCH  26  27
ENDBRANCH   6  26
TORSDOF 6
ENDMDL
MODEL 8
REMARK VINA RESULT:      -6.5      4.074      7.665
REMARK  Name = 
REMARK  6 active torsions:
REMARK  status: ('A' for Active; 'I' for Inactive)
REMARK    1  A    between atoms: N_1  and  S_2
REMARK    2  A    between atoms: S_2  and  C_5
REMARK    3  A    between atoms: N_13  and  C_23
REMARK    4  A    between atoms: C_14  and  C_15
REMARK    5  A    between atoms: C_15  and  N_16
REMARK    6  A    between atoms: C_25  and  O_26
REMARK                            x       y       z     vdW  Elec       q    Type
REMARK                         _______ _______ _______ _____ _____    ______ ____
ROOT
ATOM      1  C   UNL     1       2.993  -6.121  23.972  0.00  0.00    +0.145 A 
ATOM      2  S   UNL     1       2.856  -5.336  25.496  0.00  0.00    -0.048 S 
ATOM      3  C   UNL     1       3.963  -4.151  25.026  0.00  0.00    +0.155 A 
ATOM      4  S   UNL     1       4.343  -2.802  26.066  0.00  0.00    +0.086 S 
ATOM      5  N   UNL     1       5.605  -2.007  25.243  0.00  0.00    -0.174 N 
ATOM      6  C   UNL     1       5.932  -2.303  23.852  0.00  0.00    +0.049 C 
ATOM      7  C   UNL     1       5.410  -3.402  23.251  0.00  0.00    +0.032 C 
ATOM      8  O   UNL     1       3.161  -1.964  26.046  0.00  0.00    -0.149 OA
ATOM      9  O   UNL     1       4.861  -3.384  27.286  0.00  0.00    -0.149 OA
ATOM     10  C   UNL     1       4.478  -4.345  23.778  0.00  0.00    +0.012 A 
ATOM     11  C   UNL     1       3.926  -5.499  23.156  0.00  0.00    +0.046 A 
ENDROOT
BRANCH   5  12
ATOM     12  C   UNL     1       6.063  -0.807  25.871  0.00  0.00    +0.060 A 
ATOM     13  C   UNL     1       5.554   0.420  25.438  0.00  0.00    +0.025 A 
ATOM     14  C   UNL     1       5.953   1.601  26.065  0.00  0.00    +0.005 A 
ATOM     15  C   UNL     1       6.871   1.556  27.114  0.00  0.00    +0.045 A 
ATOM     16  C   UNL     1       7.428   0.337  27.486  0.00  0.00    +0.119 A 
ATOM     17  C   UNL     1       7.038  -0.847  26.872  0.00  0.00    +0.070 A 
BRANCH  16  18
ATOM     18  O   UNL     1       8.373   0.348  28.470  0.00  0.00    -0.507 OA
ATOM     19  H   UNL     1       8.387   1.231  28.875  0.00  0.00    +0.292 HD
ENDBRANCH  16  18
ENDBRANCH   5  12
BRANCH   1  20
ATOM     20  S   UNL     1       1.934  -7.523  23.728  0.00  0.00    +0.062 S 
ATOM     21  O   UNL     1       2.599  -8.644  24.350  0.00  0.00    -0.153 OA
ATOM     22  O   UNL     1       0.613  -7.095  24.114  0.00  0.00    -0.153 OA
BRANCH  20  23
ATOM     23  N   UNL     1       1.886  -7.859  22.080  0.00  0.00    -0.203 NA
ATOM     24  H   UNL     1       1.692  -7.005  21.555  0.00  0.00    +0.144 HD
ATOM     25  H   UNL     1       2.775  -8.273  21.802  0.00  0.00    +0.144 HD
ENDBRANCH  20  23
ENDBRANCH   1  20
BRANCH   6  26
ATOM     26  C   UNL     1       6.915  -1.426  23.062  0.00  0.00    +0.137 C 
BRANCH  26  27
ATOM     27  N   UNL     1       8.210  -2.096  22.840  0.00  0.00    -0.293 NA
ATOM     28  C   UNL     1       9.050  -2.162  24.056  0.00  0.00    +0.113 C 
ATOM     29  C   UNL     1       9.816  -0.873  24.393  0.00  0.00    +0.175 C 
ATOM     30  O   UNL     1      10.587  -0.418  23.276  0.00  0.00    -0.377 OA
ATOM     31  C   UNL     1       9.737  -0.192  22.147  0.00  0.00    +0.175 C 
ATOM     32  C   UNL     1       8.998  -1.480  21.749  0.00  0.00    +0.113 C 
ENDBRANCH  26  27
ENDBRANCH   6  26
TORSDOF 6
ENDMDL
MODEL 9
REMARK VINA RESULT:      -6.4      3.122      8.217
REMARK  Name = 
REMARK  6 active torsions:
REMARK  status: ('A' for Active; 'I' for Inactive)
REMARK    1  A    between atoms: N_1  and  S_2
REMARK    2  A    between atoms: S_2  and  C_5
REMARK    3  A    between atoms: N_13  and  C_23
REMARK    4  A    between atoms: C_14  and  C_15
REMARK    5  A    between atoms: C_15  and  N_16
REMARK    6  A    between atoms: C_25  and  O_26
REMARK                            x       y       z     vdW  Elec       q    Type
REMARK                         _______ _______ _______ _____ _____    ______ ____
ROOT
ATOM      1  C   UNL     1       7.181  -3.159  23.500  0.00  0.00    +0.145 A 
ATOM      2  S   UNL     1       8.397  -2.250  22.691  0.00  0.00    -0.048 S 
ATOM      3  C   UNL     1       7.745  -0.802  23.262  0.00  0.00    +0.155 A 
ATOM      4  S   UNL     1       8.518   0.729  22.938  0.00  0.00    +0.086 S 
ATOM      5  N   UNL     1       7.414   1.871  23.555  0.00  0.00    -0.174 N 
ATOM      6  C   UNL     1       6.308   1.489  24.426  0.00  0.00    +0.049 C 
ATOM      7  C   UNL     1       5.972   0.181  24.563  0.00  0.00    +0.032 C 
ATOM      8  O   UNL     1       9.712   0.732  23.760  0.00  0.00    -0.149 OA
ATOM      9  O   UNL     1       8.568   0.845  21.496  0.00  0.00    -0.149 OA
ATOM     10  C   UNL     1       6.611  -0.964  24.002  0.00  0.00    +0.012 A 
ATOM     11  C   UNL     1       6.265  -2.337  24.139  0.00  0.00    +0.046 A 
ENDROOT
BRANCH   5  12
ATOM     12  C   UNL     1       7.851   3.230  23.467  0.00  0.00    +0.060 A 
ATOM     13  C   UNL     1       8.698   3.734  24.457  0.00  0.00    +0.025 A 
ATOM     14  C   UNL     1       9.173   5.043  24.368  0.00  0.00    +0.005 A 
ATOM     15  C   UNL     1       8.788   5.852  23.300  0.00  0.00    +0.045 A 
ATOM     16  C   UNL     1       7.885   5.365  22.361  0.00  0.00    +0.119 A 
ATOM     17  C   UNL     1       7.407   4.061  22.435  0.00  0.00    +0.070 A 
BRANCH  16  18
ATOM     18  O   UNL     1       7.482   6.212  21.371  0.00  0.00    -0.507 OA
ATOM     19  H   UNL     1       6.529   6.088  21.227  0.00  0.00    +0.292 HD
ENDBRANCH  16  18
ENDBRANCH   5  12
BRANCH   1  20
ATOM     20  S   UNL     1       7.331  -4.923  23.386  0.00  0.00    +0.062 S 
ATOM     21  O   UNL     1       8.669  -5.243  23.824  0.00  0.00    -0.153 OA
ATOM     22  O   UNL     1       6.157  -5.463  24.025  0.00  0.00    -0.153 OA
BRANCH  20  23
ATOM     23  N   UNL     1       7.253  -5.350  21.761  0.00  0.00    -0.203 NA
ATOM     24  H   UNL     1       6.326  -5.719  21.541  0.00  0.00    +0.144 HD
ATOM     25  H   UNL     1       7.471  -4.531  21.194  0.00  0.00    +0.144 HD
ENDBRANCH  20  23
ENDBRANCH   1  20
BRANCH   6  26
ATOM     26  C   UNL     1       5.464   2.548  25.150  0.00  0.00    +0.137 C 
BRANCH  26  27
ATOM     27  N   UNL     1       5.386   2.307  26.603  0.00  0.00    -0.293 NA
ATOM     28  C   UNL     1       4.217   2.952  27.240  0.00  0.00    +0.113 C 
ATOM     29  C   UNL     1       4.378   4.452  27.535  0.00  0.00    +0.175 C 
ATOM     30  O   UNL     1       5.565   4.711  28.290  0.00  0.00    -0.377 OA
ATOM     31  C   UNL     1       6.715   4.234  27.583  0.00  0.00    +0.175 C 
ATOM     32  C   UNL     1       6.611   2.721  27.322  0.00  0.00    +0.113 C 
ENDBRANCH  26  27
ENDBRANCH   6  26
TORSDOF 6
ENDMDL
