MODEL 1
REMARK VINA RESULT:      -6.2      0.000      0.000
REMARK  Name = 
REMARK  6 active torsions:
REMARK  status: ('A' for Active; 'I' for Inactive)
REMARK    1  A    between atoms: C_1  and  S_2
REMARK    2  A    between atoms: S_2  and  N_5
REMARK    3  A    between atoms: N_5  and  C_6
REMARK    4  A    between atoms: C_7  and  O_8
REMARK    5  A    between atoms: O_8  and  C_9
REMARK    6  A    between atoms: C_16  and  N_19
REMARK                            x       y       z     vdW  Elec       q    Type
REMARK                         _______ _______ _______ _____ _____    ______ ____
ROOT
ATOM      1  C   UNL     1       6.888  -1.595  23.679  0.00  0.00    +0.090 A 
ATOM      2  C   UNL     1       6.140  -2.345  24.591  0.00  0.00    +0.035 A 
ATOM      3  C   UNL     1       6.649  -3.544  25.101  0.00  0.00    +0.086 A 
ATOM      4  C   UNL     1       7.940  -3.952  24.745  0.00  0.00    +0.277 A 
ATOM      5  C   UNL     1       8.725  -3.168  23.894  0.00  0.00    +0.132 A 
ATOM      6  C   UNL     1       8.177  -2.023  23.302  0.00  0.00    +0.157 A 
ENDROOT
BRANCH   4   7
ATOM      7  N   UNL     1       8.449  -5.250  25.202  0.00  0.00    +0.080 N 
ATOM      8  O   UNL     1       9.390  -5.754  24.573  0.00  0.00    +0.041 OA
ATOM      9  O   UNL     1       7.936  -5.747  26.216  0.00  0.00    -0.576 OA
ENDBRANCH   4   7
BRANCH   1  10
ATOM     10  N   UNL     1       6.352  -0.349  23.206  0.00  0.00    -0.217 N 
ATOM     11  H   UNL     1       6.909   0.056  22.446  0.00  0.00    +0.173 HD
BRANCH  10  13
ATOM     12  C   UNL     1       6.342   2.335  23.400  0.00  0.00    +0.218 C 
ATOM     13  S   UNL     1       6.168   0.862  24.388  0.00  0.00    +0.040 S 
ATOM     14  O   UNL     1       4.831   0.833  24.930  0.00  0.00    -0.155 OA
ATOM     15  O   UNL     1       7.339   0.764  25.233  0.00  0.00    -0.155 OA
ENDBRANCH  10  13
ENDBRANCH   1  10
BRANCH   6  16
ATOM     16  O   UNL     1       8.858  -1.290  22.354  0.00  0.00    -0.454 OA
BRANCH  16  17
ATOM     17  C   UNL     1       9.523  -0.141  22.744  0.00  0.00    +0.129 A 
ATOM     18  C   UNL     1       9.456   0.941  21.863  0.00  0.00    +0.046 A 
ATOM     19  C   UNL     1      10.100   2.143  22.174  0.00  0.00    +0.004 A 
ATOM     20  C   UNL     1      10.806   2.272  23.369  0.00  0.00    +0.000 A 
ATOM     21  C   UNL     1      10.890   1.193  24.244  0.00  0.00    +0.004 A 
ATOM     22  C   UNL     1      10.278  -0.019  23.919  0.00  0.00    +0.046 A 
ENDBRANCH  16  17
ENDBRANCH   6  16
TORSDOF 5
ENDMDL
MODEL 2
REMARK VINA RESULT:      -6.1      3.124      4.422
REMARK  Name = 
REMARK  6 active torsions:
REMARK  status: ('A' for Active; 'I' for Inactive)
REMARK    1  A    between atoms: C_1  and  S_2
REMARK    2  A    between atoms: S_2  and  N_5
REMARK    3  A    between atoms: N_5  and  C_6
REMARK    4  A    between atoms: C_7  and  O_8
REMARK    5  A    between atoms: O_8  and  C_9
REMARK    6  A    between atoms: C_16  and  N_19
REMARK                            x       y       z     vdW  Elec       q    Type
REMARK                         _______ _______ _______ _____ _____    ______ ____
ROOT
ATOM      1  C   UNL     1       6.418  -5.422  25.008  0.00  0.00    +0.090 A 
ATOM      2  C   UNL     1       5.269  -5.969  25.588  0.00  0.00    +0.035 A 
ATOM      3  C   UNL     1       5.248  -6.277  26.952  0.00  0.00    +0.086 A 
ATOM      4  C   UNL     1       6.359  -5.970  27.746  0.00  0.00    +0.277 A 
ATOM      5  C   UNL     1       7.482  -5.351  27.189  0.00  0.00    +0.132 A 
ATOM      6  C   UNL     1       7.545  -5.139  25.806  0.00  0.00    +0.157 A 
ENDROOT
BRANCH   4   7
ATOM      7  N   UNL     1       6.382  -6.368  29.158  0.00  0.00    +0.080 N 
ATOM      8  O   UNL     1       6.092  -5.510  30.003  0.00  0.00    +0.041 OA
ATOM      9  O   UNL     1       6.649  -7.551  29.420  0.00  0.00    -0.576 OA
ENDBRANCH   4   7
BRANCH   1  10
ATOM     10  N   UNL     1       6.392  -5.082  23.613  0.00  0.00    -0.217 N 
ATOM     11  H   UNL     1       7.311  -4.794  23.261  0.00  0.00    +0.173 HD
BRANCH  10  13
ATOM     12  C   UNL     1       6.075  -3.184  21.732  0.00  0.00    +0.218 C 
ATOM     13  S   UNL     1       5.288  -3.860  23.180  0.00  0.00    +0.040 S 
ATOM     14  O   UNL     1       4.029  -4.442  22.783  0.00  0.00    -0.155 OA
ATOM     15  O   UNL     1       5.375  -2.866  24.228  0.00  0.00    -0.155 OA
ENDBRANCH  10  13
ENDBRANCH   1  10
BRANCH   6  16
ATOM     16  O   UNL     1       8.679  -4.659  25.189  0.00  0.00    -0.454 OA
BRANCH  16  17
ATOM     17  C   UNL     1       8.887  -3.292  25.136  0.00  0.00    +0.129 A 
ATOM     18  C   UNL     1       9.597  -2.817  24.031  0.00  0.00    +0.046 A 
ATOM     19  C   UNL     1       9.857  -1.449  23.895  0.00  0.00    +0.004 A 
ATOM     20  C   UNL     1       9.400  -0.550  24.858  0.00  0.00    +0.000 A 
ATOM     21  C   UNL     1       8.705  -1.018  25.969  0.00  0.00    +0.004 A 
ATOM     22  C   UNL     1       8.476  -2.386  26.124  0.00  0.00    +0.046 A 
ENDBRANCH  16  17
ENDBRANCH   6  16
TORSDOF 5
ENDMDL
MODEL 3
REMARK VINA RESULT:      -6.1      2.113      2.531
REMARK  Name = 
REMARK  6 active torsions:
REMARK  status: ('A' for Active; 'I' for Inactive)
REMARK    1  A    between atoms: C_1  and  S_2
REMARK    2  A    between atoms: S_2  and  N_5
REMARK    3  A    between atoms: N_5  and  C_6
REMARK    4  A    between atoms: C_7  and  O_8
REMARK    5  A    between atoms: O_8  and  C_9
REMARK    6  A    between atoms: C_16  and  N_19
REMARK                            x       y       z     vdW  Elec       q    Type
REMARK                         _______ _______ _______ _____ _____    ______ ____
ROOT
ATOM      1  C   UNL     1       6.851  -2.154  24.515  0.00  0.00    +0.090 A 
ATOM      2  C   UNL     1       5.614  -2.742  24.231  0.00  0.00    +0.035 A 
ATOM      3  C   UNL     1       5.527  -3.783  23.302  0.00  0.00    +0.086 A 
ATOM      4  C   UNL     1       6.694  -4.278  22.708  0.00  0.00    +0.277 A 
ATOM      5  C   UNL     1       7.944  -3.747  23.044  0.00  0.00    +0.132 A 
ATOM      6  C   UNL     1       8.021  -2.637  23.895  0.00  0.00    +0.157 A 
ENDROOT
BRANCH   4   7
ATOM      7  N   UNL     1       6.606  -5.308  21.667  0.00  0.00    +0.080 N 
ATOM      8  O   UNL     1       7.190  -6.382  21.868  0.00  0.00    +0.041 OA
ATOM      9  O   UNL     1       5.918  -5.060  20.666  0.00  0.00    -0.576 OA
ENDBRANCH   4   7
BRANCH   1  10
ATOM     10  N   UNL     1       6.910  -1.114  25.503  0.00  0.00    -0.217 N 
ATOM     11  H   UNL     1       6.496  -1.397  26.398  0.00  0.00    +0.173 HD
BRANCH  10  13
ATOM     12  C   UNL     1       7.103   1.515  26.047  0.00  0.00    +0.218 C 
ATOM     13  S   UNL     1       6.176   0.357  25.060  0.00  0.00    +0.040 S 
ATOM     14  O   UNL     1       6.429   0.642  23.667  0.00  0.00    -0.155 OA
ATOM     15  O   UNL     1       4.834   0.302  25.598  0.00  0.00    -0.155 OA
ENDBRANCH  10  13
ENDBRANCH   1  10
BRANCH   6  16
ATOM     16  O   UNL     1       9.211  -1.992  24.152  0.00  0.00    -0.454 OA
BRANCH  16  17
ATOM     17  C   UNL     1       9.506  -0.828  23.463  0.00  0.00    +0.129 A 
ATOM     18  C   UNL     1      10.083   0.202  24.209  0.00  0.00    +0.046 A 
ATOM     19  C   UNL     1      10.412   1.415  23.597  0.00  0.00    +0.004 A 
ATOM     20  C   UNL     1      10.176   1.601  22.236  0.00  0.00    +0.000 A 
ATOM     21  C   UNL     1       9.587   0.584  21.490  0.00  0.00    +0.004 A 
ATOM     22  C   UNL     1       9.225  -0.614  22.107  0.00  0.00    +0.046 A 
ENDBRANCH  16  17
ENDBRANCH   6  16
TORSDOF 5
ENDMDL
MODEL 4
REMARK VINA RESULT:      -5.8      2.786      5.898
REMARK  Name = 
REMARK  6 active torsions:
REMARK  status: ('A' for Active; 'I' for Inactive)
REMARK    1  A    between atoms: C_1  and  S_2
REMARK    2  A    between atoms: S_2  and  N_5
REMARK    3  A    between atoms: N_5  and  C_6
REMARK    4  A    between atoms: C_7  and  O_8
REMARK    5  A    between atoms: O_8  and  C_9
REMARK    6  A    between atoms: C_16  and  N_19
REMARK                            x       y       z     vdW  Elec       q    Type
REMARK                         _______ _______ _______ _____ _____    ______ ____
ROOT
ATOM      1  C   UNL     1       8.242  -2.908  22.823  0.00  0.00    +0.090 A 
ATOM      2  C   UNL     1       8.287  -1.811  21.956  0.00  0.00    +0.035 A 
ATOM      3  C   UNL     1       9.021  -0.671  22.301  0.00  0.00    +0.086 A 
ATOM      4  C   UNL     1       9.764  -0.662  23.487  0.00  0.00    +0.277 A 
ATOM      5  C   UNL     1       9.787  -1.783  24.322  0.00  0.00    +0.132 A 
ATOM      6  C   UNL     1       8.971  -2.884  24.029  0.00  0.00    +0.157 A 
ENDROOT
BRANCH   4   7
ATOM      7  N   UNL     1      10.465   0.559  23.901  0.00  0.00    +0.080 N 
ATOM      8  O   UNL     1      10.392   1.546  23.156  0.00  0.00    +0.041 OA
ATOM      9  O   UNL     1      11.054   0.544  24.992  0.00  0.00    -0.576 OA
ENDBRANCH   4   7
BRANCH   1  10
ATOM     10  N   UNL     1       7.512  -4.077  22.421  0.00  0.00    -0.217 N 
ATOM     11  H   UNL     1       7.835  -4.453  21.523  0.00  0.00    +0.173 HD
BRANCH  10  13
ATOM     12  C   UNL     1       5.254  -5.511  22.719  0.00  0.00    +0.218 C 
ATOM     13  S   UNL     1       5.826  -3.876  22.297  0.00  0.00    +0.040 S 
ATOM     14  O   UNL     1       5.356  -2.956  23.304  0.00  0.00    -0.155 OA
ATOM     15  O   UNL     1       5.559  -3.671  20.889  0.00  0.00    -0.155 OA
ENDBRANCH  10  13
ENDBRANCH   1  10
BRANCH   6  16
ATOM     16  O   UNL     1       8.852  -3.956  24.886  0.00  0.00    -0.454 OA
BRANCH  16  17
ATOM     17  C   UNL     1       7.737  -4.045  25.701  0.00  0.00    +0.129 A 
ATOM     18  C   UNL     1       7.195  -5.321  25.870  0.00  0.00    +0.046 A 
ATOM     19  C   UNL     1       6.066  -5.505  26.674  0.00  0.00    +0.004 A 
ATOM     20  C   UNL     1       5.479  -4.418  27.319  0.00  0.00    +0.000 A 
ATOM     21  C   UNL     1       6.004  -3.141  27.142  0.00  0.00    +0.004 A 
ATOM     22  C   UNL     1       7.110  -2.950  26.312  0.00  0.00    +0.046 A 
ENDBRANCH  16  17
ENDBRANCH   6  16
TORSDOF 5
ENDMDL
MODEL 5
REMARK VINA RESULT:      -5.8      2.426      2.919
REMARK  Name = 
REMARK  6 active torsions:
REMARK  status: ('A' for Active; 'I' for Inactive)
REMARK    1  A    between atoms: C_1  and  S_2
REMARK    2  A    between atoms: S_2  and  N_5
REMARK    3  A    between atoms: N_5  and  C_6
REMARK    4  A    between atoms: C_7  and  O_8
REMARK    5  A    between atoms: O_8  and  C_9
REMARK    6  A    between atoms: C_16  and  N_19
REMARK                            x       y       z     vdW  Elec       q    Type
REMARK                         _______ _______ _______ _____ _____    ______ ____
ROOT
ATOM      1  C   UNL     1       6.722  -1.963  24.189  0.00  0.00    +0.090 A 
ATOM      2  C   UNL     1       5.500  -2.520  23.799  0.00  0.00    +0.035 A 
ATOM      3  C   UNL     1       5.471  -3.606  22.918  0.00  0.00    +0.086 A 
ATOM      4  C   UNL     1       6.674  -4.174  22.483  0.00  0.00    +0.277 A 
ATOM      5  C   UNL     1       7.901  -3.673  22.931  0.00  0.00    +0.132 A 
ATOM      6  C   UNL     1       7.931  -2.522  23.729  0.00  0.00    +0.157 A 
ENDROOT
BRANCH   4   7
ATOM      7  N   UNL     1       6.657  -5.255  21.492  0.00  0.00    +0.080 N 
ATOM      8  O   UNL     1       7.361  -6.250  21.712  0.00  0.00    +0.041 OA
ATOM      9  O   UNL     1       5.908  -5.127  20.511  0.00  0.00    -0.576 OA
ENDBRANCH   4   7
BRANCH   1  10
ATOM     10  N   UNL     1       6.716  -0.874  25.126  0.00  0.00    -0.217 N 
ATOM     11  H   UNL     1       7.423  -0.164  24.908  0.00  0.00    +0.173 HD
BRANCH  10  13
ATOM     12  C   UNL     1       5.651  -0.366  27.545  0.00  0.00    +0.218 C 
ATOM     13  S   UNL     1       6.938  -1.313  26.756  0.00  0.00    +0.040 S 
ATOM     14  O   UNL     1       6.650  -2.715  26.940  0.00  0.00    -0.155 OA
ATOM     15  O   UNL     1       8.206  -0.735  27.147  0.00  0.00    -0.155 OA
ENDBRANCH  10  13
ENDBRANCH   1  10
BRANCH   6  16
ATOM     16  O   UNL     1       9.112  -1.908  24.085  0.00  0.00    -0.454 OA
BRANCH  16  17
ATOM     17  C   UNL     1       9.458  -0.714  23.478  0.00  0.00    +0.129 A 
ATOM     18  C   UNL     1      10.091   0.231  24.289  0.00  0.00    +0.046 A 
ATOM     19  C   UNL     1      10.474   1.468  23.761  0.00  0.00    +0.004 A 
ATOM     20  C   UNL     1      10.236   1.762  22.419  0.00  0.00    +0.000 A 
ATOM     21  C   UNL     1       9.591   0.831  21.609  0.00  0.00    +0.004 A 
ATOM     22  C   UNL     1       9.177  -0.390  22.143  0.00  0.00    +0.046 A 
ENDBRANCH  16  17
ENDBRANCH   6  16
TORSDOF 5
ENDMDL
MODEL 6
REMARK VINA RESULT:      -5.6      2.978      5.975
REMARK  Name = 
REMARK  6 active torsions:
REMARK  status: ('A' for Active; 'I' for Inactive)
REMARK    1  A    between atoms: C_1  and  S_2
REMARK    2  A    between atoms: S_2  and  N_5
REMARK    3  A    between atoms: N_5  and  C_6
REMARK    4  A    between atoms: C_7  and  O_8
REMARK    5  A    between atoms: O_8  and  C_9
REMARK    6  A    between atoms: C_16  and  N_19
REMARK                            x       y       z     vdW  Elec       q    Type
REMARK                         _______ _______ _______ _____ _____    ______ ____
ROOT
ATOM      1  C   UNL     1       7.058  -2.383  25.611  0.00  0.00    +0.090 A 
ATOM      2  C   UNL     1       8.113  -1.980  26.436  0.00  0.00    +0.035 A 
ATOM      3  C   UNL     1       9.099  -1.118  25.945  0.00  0.00    +0.086 A 
ATOM      4  C   UNL     1       8.987  -0.608  24.646  0.00  0.00    +0.277 A 
ATOM      5  C   UNL     1       7.893  -0.945  23.842  0.00  0.00    +0.132 A 
ATOM      6  C   UNL     1       6.962  -1.889  24.295  0.00  0.00    +0.157 A 
ENDROOT
BRANCH   4   7
ATOM      7  N   UNL     1      10.059   0.225  24.091  0.00  0.00    +0.080 N 
ATOM      8  O   UNL     1      10.902   0.679  24.878  0.00  0.00    +0.041 OA
ATOM      9  O   UNL     1      10.083   0.392  22.863  0.00  0.00    -0.576 OA
ENDBRANCH   4   7
BRANCH   1  10
ATOM     10  N   UNL     1       6.042  -3.238  26.159  0.00  0.00    -0.217 N 
ATOM     11  H   UNL     1       5.617  -2.849  27.008  0.00  0.00    +0.173 HD
BRANCH  10  13
ATOM     12  C   UNL     1       5.020  -5.722  26.333  0.00  0.00    +0.218 C 
ATOM     13  S   UNL     1       6.545  -4.821  26.535  0.00  0.00    +0.040 S 
ATOM     14  O   UNL     1       7.486  -5.293  25.549  0.00  0.00    -0.155 OA
ATOM     15  O   UNL     1       6.858  -4.806  27.948  0.00  0.00    -0.155 OA
ENDBRANCH  10  13
ENDBRANCH   1  10
BRANCH   6  16
ATOM     16  O   UNL     1       5.944  -2.357  23.493  0.00  0.00    -0.454 OA
BRANCH  16  17
ATOM     17  C   UNL     1       6.064  -3.611  22.921  0.00  0.00    +0.129 A 
ATOM     18  C   UNL     1       4.936  -4.432  22.989  0.00  0.00    +0.046 A 
ATOM     19  C   UNL     1       4.965  -5.717  22.439  0.00  0.00    +0.004 A 
ATOM     20  C   UNL     1       6.119  -6.184  21.810  0.00  0.00    +0.000 A 
ATOM     21  C   UNL     1       7.251  -5.378  21.752  0.00  0.00    +0.004 A 
ATOM     22  C   UNL     1       7.234  -4.108  22.331  0.00  0.00    +0.046 A 
ENDBRANCH  16  17
ENDBRANCH   6  16
TORSDOF 5
ENDMDL
MODEL 7
REMARK VINA RESULT:      -5.5      3.178      6.317
REMARK  Name = 
REMARK  6 active torsions:
REMARK  status: ('A' for Active; 'I' for Inactive)
REMARK    1  A    between atoms: C_1  and  S_2
REMARK    2  A    between atoms: S_2  and  N_5
REMARK    3  A    between atoms: N_5  and  C_6
REMARK    4  A    between atoms: C_7  and  O_8
REMARK    5  A    between atoms: O_8  and  C_9
REMARK    6  A    between atoms: C_16  and  N_19
REMARK                            x       y       z     vdW  Elec       q    Type
REMARK                         _______ _______ _______ _____ _____    ______ ____
ROOT
ATOM      1  C   UNL     1       7.864  -3.822  23.262  0.00  0.00    +0.090 A 
ATOM      2  C   UNL     1       8.323  -2.642  22.668  0.00  0.00    +0.035 A 
ATOM      3  C   UNL     1       8.798  -1.594  23.462  0.00  0.00    +0.086 A 
ATOM      4  C   UNL     1       8.876  -1.759  24.850  0.00  0.00    +0.277 A 
ATOM      5  C   UNL     1       8.492  -2.965  25.445  0.00  0.00    +0.132 A 
ATOM      6  C   UNL     1       7.919  -3.975  24.662  0.00  0.00    +0.157 A 
ENDROOT
BRANCH   4   7
ATOM      7  N   UNL     1       9.289  -0.636  25.699  0.00  0.00    +0.080 N 
ATOM      8  O   UNL     1       8.960  -0.666  26.893  0.00  0.00    +0.041 OA
ATOM      9  O   UNL     1       9.977   0.256  25.182  0.00  0.00    -0.576 OA
ENDBRANCH   4   7
BRANCH   1  10
ATOM     10  N   UNL     1       7.419  -4.893  22.415  0.00  0.00    -0.217 N 
ATOM     11  H   UNL     1       8.035  -5.038  21.608  0.00  0.00    +0.173 HD
BRANCH  10  13
ATOM     12  C   UNL     1       4.980  -5.977  22.764  0.00  0.00    +0.218 C 
ATOM     13  S   UNL     1       5.835  -4.736  21.812  0.00  0.00    +0.040 S 
ATOM     14  O   UNL     1       5.293  -3.444  22.159  0.00  0.00    -0.155 OA
ATOM     15  O   UNL     1       5.891  -5.200  20.442  0.00  0.00    -0.155 OA
ENDBRANCH  10  13
ENDBRANCH   1  10
BRANCH   6  16
ATOM     16  O   UNL     1       7.400  -5.126  25.215  0.00  0.00    -0.454 OA
BRANCH  16  17
ATOM     17  C   UNL     1       6.506  -5.022  26.265  0.00  0.00    +0.129 A 
ATOM     18  C   UNL     1       5.300  -4.374  25.988  0.00  0.00    +0.046 A 
ATOM     19  C   UNL     1       4.336  -4.220  26.990  0.00  0.00    +0.004 A 
ATOM     20  C   UNL     1       4.569  -4.722  28.270  0.00  0.00    +0.000 A 
ATOM     21  C   UNL     1       5.775  -5.355  28.557  0.00  0.00    +0.004 A 
ATOM     22  C   UNL     1       6.752  -5.478  27.568  0.00  0.00    +0.046 A 
ENDBRANCH  16  17
ENDBRANCH   6  16
TORSDOF 5
ENDMDL
MODEL 8
REMARK VINA RESULT:      -5.4      2.422      4.445
REMARK  Name = 
REMARK  6 active torsions:
REMARK  status: ('A' for Active; 'I' for Inactive)
REMARK    1  A    between atoms: C_1  and  S_2
REMARK    2  A    between atoms: S_2  and  N_5
REMARK    3  A    between atoms: N_5  and  C_6
REMARK    4  A    between atoms: C_7  and  O_8
REMARK    5  A    between atoms: O_8  and  C_9
REMARK    6  A    between atoms: C_16  and  N_19
REMARK                            x       y       z     vdW  Elec       q    Type
REMARK                         _______ _______ _______ _____ _____    ______ ____
ROOT
ATOM      1  C   UNL     1       6.732  -2.975  24.056  0.00  0.00    +0.090 A 
ATOM      2  C   UNL     1       5.791  -3.205  25.065  0.00  0.00    +0.035 A 
ATOM      3  C   UNL     1       5.188  -2.128  25.723  0.00  0.00    +0.086 A 
ATOM      4  C   UNL     1       5.481  -0.821  25.318  0.00  0.00    +0.277 A 
ATOM      5  C   UNL     1       6.361  -0.584  24.258  0.00  0.00    +0.132 A 
ATOM      6  C   UNL     1       7.044  -1.656  23.669  0.00  0.00    +0.157 A 
ENDROOT
BRANCH   4   7
ATOM      7  N   UNL     1       4.923   0.317  26.058  0.00  0.00    +0.080 N 
ATOM      8  O   UNL     1       5.679   1.264  26.314  0.00  0.00    +0.041 OA
ATOM      9  O   UNL     1       3.718   0.282  26.348  0.00  0.00    -0.576 OA
ENDBRANCH   4   7
BRANCH   1  10
ATOM     10  N   UNL     1       7.302  -4.103  23.375  0.00  0.00    -0.217 N 
ATOM     11  H   UNL     1       8.211  -3.889  22.951  0.00  0.00    +0.173 HD
BRANCH  10  13
ATOM     12  C   UNL     1       5.351  -5.936  23.093  0.00  0.00    +0.218 C 
ATOM     13  S   UNL     1       6.333  -4.784  22.152  0.00  0.00    +0.040 S 
ATOM     14  O   UNL     1       5.453  -3.784  21.597  0.00  0.00    -0.155 OA
ATOM     15  O   UNL     1       7.234  -5.555  21.323  0.00  0.00    -0.155 OA
ENDBRANCH  10  13
ENDBRANCH   1  10
BRANCH   6  16
ATOM     16  O   UNL     1       8.021  -1.469  22.715  0.00  0.00    -0.454 OA
BRANCH  16  17
ATOM     17  C   UNL     1       8.892  -0.401  22.848  0.00  0.00    +0.129 A 
ATOM     18  C   UNL     1       8.874   0.542  21.818  0.00  0.00    +0.046 A 
ATOM     19  C   UNL     1       9.723   1.653  21.866  0.00  0.00    +0.004 A 
ATOM     20  C   UNL     1      10.585   1.830  22.947  0.00  0.00    +0.000 A 
ATOM     21  C   UNL     1      10.619   0.886  23.969  0.00  0.00    +0.004 A 
ATOM     22  C   UNL     1       9.798  -0.241  23.905  0.00  0.00    +0.046 A 
ENDBRANCH  16  17
ENDBRANCH   6  16
TORSDOF 5
ENDMDL
MODEL 9
REMARK VINA RESULT:      -5.3      3.031      5.698
REMARK  Name = 
REMARK  6 active torsions:
REMARK  status: ('A' for Active; 'I' for Inactive)
REMARK    1  A    between atoms: C_1  and  S_2
REMARK    2  A    between atoms: S_2  and  N_5
REMARK    3  A    between atoms: N_5  and  C_6
REMARK    4  A    between atoms: C_7  and  O_8
REMARK    5  A    between atoms: O_8  and  C_9
REMARK    6  A    between atoms: C_16  and  N_19
REMARK                            x       y       z     vdW  Elec       q    Type
REMARK                         _______ _______ _______ _____ _____    ______ ____
ROOT
ATOM      1  C   UNL     1       8.388  -3.112  23.992  0.00  0.00    +0.090 A 
ATOM      2  C   UNL     1       8.138  -2.902  22.632  0.00  0.00    +0.035 A 
ATOM      3  C   UNL     1       7.152  -3.646  21.975  0.00  0.00    +0.086 A 
ATOM      4  C   UNL     1       6.372  -4.552  22.703  0.00  0.00    +0.277 A 
ATOM      5  C   UNL     1       6.563  -4.711  24.079  0.00  0.00    +0.132 A 
ATOM      6  C   UNL     1       7.618  -4.045  24.715  0.00  0.00    +0.157 A 
ENDROOT
BRANCH   4   7
ATOM      7  N   UNL     1       5.397  -5.400  22.009  0.00  0.00    +0.080 N 
ATOM      8  O   UNL     1       5.748  -5.931  20.946  0.00  0.00    +0.041 OA
ATOM      9  O   UNL     1       4.292  -5.569  22.546  0.00  0.00    -0.576 OA
ENDBRANCH   4   7
BRANCH   1  10
ATOM     10  N   UNL     1       9.380  -2.304  24.643  0.00  0.00    -0.217 N 
ATOM     11  H   UNL     1       9.912  -2.825  25.349  0.00  0.00    +0.173 HD
BRANCH  10  13
ATOM     12  C   UNL     1      10.095   0.261  25.037  0.00  0.00    +0.218 C 
ATOM     13  S   UNL     1       8.792  -0.898  25.403  0.00  0.00    +0.040 S 
ATOM     14  O   UNL     1       7.585  -0.446  24.753  0.00  0.00    -0.155 OA
ATOM     15  O   UNL     1       8.839  -1.173  26.823  0.00  0.00    -0.155 OA
ENDBRANCH  10  13
ENDBRANCH   1  10
BRANCH   6  16
ATOM     16  O   UNL     1       7.936  -4.269  26.038  0.00  0.00    -0.454 OA
BRANCH  16  17
ATOM     17  C   UNL     1       6.913  -4.380  26.964  0.00  0.00    +0.129 A 
ATOM     18  C   UNL     1       6.853  -5.579  27.676  0.00  0.00    +0.046 A 
ATOM     19  C   UNL     1       5.851  -5.781  28.632  0.00  0.00    +0.004 A 
ATOM     20  C   UNL     1       4.913  -4.782  28.885  0.00  0.00    +0.000 A 
ATOM     21  C   UNL     1       4.958  -3.590  28.168  0.00  0.00    +0.004 A 
ATOM     22  C   UNL     1       5.935  -3.401  27.189  0.00  0.00    +0.046 A 
ENDBRANCH  16  17
ENDBRANCH   6  16
TORSDOF 5
ENDMDL
