MODEL 1
REMARK VINA RESULT:      -6.5      0.000      0.000
REMARK  Name = 
REMARK  5 active torsions:
REMARK  status: ('A' for Active; 'I' for Inactive)
REMARK    1  A    between atoms: C_1  and  C_2
REMARK    2  A    between atoms: C_2  and  C_3
REMARK    3  A    between atoms: C_3  and  C_4
REMARK    4  A    between atoms: C_4  and  C_5
REMARK    5  A    between atoms: C_9  and  O_10
REMARK                            x       y       z     vdW  Elec       q    Type
REMARK                         _______ _______ _______ _____ _____    ______ ____
ROOT
ATOM      1  C   UNL     1       8.376  -2.763  24.417  0.00  0.00    +0.002 C 
ATOM      2  C   UNL     1       8.115  -4.116  23.697  0.00  0.00    +0.020 C 
ATOM      3  C   UNL     1       7.505  -3.881  22.310  0.00  0.00    +0.081 C 
ATOM      4  C   UNL     1       6.164  -3.194  22.482  0.00  0.00    +0.170 C 
ATOM      5  O   UNL     1       5.223  -3.412  21.719  0.00  0.00    -0.292 OA
ATOM      6  C   UNL     1       6.032  -2.207  23.620  0.00  0.00    +0.064 C 
ATOM      7 BR   UNL     1       4.734  -2.807  24.870  0.00  0.00    -0.046 Br
ATOM      8  C   UNL     1       7.221  -1.776  24.102  0.00  0.00    -0.016 C 
ATOM      9  C   UNL     1       7.867  -0.626  23.439  0.00  0.00    -0.017 A 
ATOM     10  C   UNL     1       9.228  -0.862  23.246  0.00  0.00    -0.036 A 
ATOM     11  C   UNL     1      10.041   0.043  22.578  0.00  0.00    +0.049 A 
ATOM     12  C   UNL     1       9.471   1.235  22.149  0.00  0.00    +0.117 A 
ATOM     13  C   UNL     1       8.128   1.519  22.392  0.00  0.00    +0.046 A 
ATOM     14  C   UNL     1       7.309   0.579  23.032  0.00  0.00    +0.012 A 
ATOM     15  C   UNL     1       9.681  -2.154  23.828  0.00  0.00    +0.047 C 
ENDROOT
BRANCH  12  16
ATOM     16  O   UNL     1      10.219   2.164  21.486  0.00  0.00    -0.507 OA
ATOM     17  H   UNL     1      10.514   1.783  20.641  0.00  0.00    +0.292 HD
ENDBRANCH  12  16
BRANCH   1  18
ATOM     18  C   UNL     1       8.508  -2.979  25.952  0.00  0.00    +0.012 C 
BRANCH  18  19
ATOM     19  C   UNL     1       8.449  -4.449  26.422  0.00  0.00    +0.001 C 
BRANCH  19  21
ATOM     20  C   UNL     1       6.298  -5.784  26.471  0.00  0.00    +0.004 C 
ATOM     21  C   UNL     1       7.151  -4.740  27.180  0.00  0.00    -0.003 C 
ENDBRANCH  19  21
ENDBRANCH  18  19
ENDBRANCH   1  18
TORSDOF 4
ENDMDL
MODEL 2
REMARK VINA RESULT:      -6.3      2.616      5.274
REMARK  Name = 
REMARK  5 active torsions:
REMARK  status: ('A' for Active; 'I' for Inactive)
REMARK    1  A    between atoms: C_1  and  C_2
REMARK    2  A    between atoms: C_2  and  C_3
REMARK    3  A    between atoms: C_3  and  C_4
REMARK    4  A    between atoms: C_4  and  C_5
REMARK    5  A    between atoms: C_9  and  O_10
REMARK                            x       y       z     vdW  Elec       q    Type
REMARK                         _______ _______ _______ _____ _____    ______ ____
ROOT
ATOM      1  C   UNL     1       8.757  -1.741  24.247  0.00  0.00    +0.002 C 
ATOM      2  C   UNL     1       8.690  -1.362  25.754  0.00  0.00    +0.020 C 
ATOM      3  C   UNL     1       7.344  -1.780  26.357  0.00  0.00    +0.081 C 
ATOM      4  C   UNL     1       6.240  -1.018  25.651  0.00  0.00    +0.170 C 
ATOM      5  O   UNL     1       5.220  -0.663  26.240  0.00  0.00    -0.292 OA
ATOM      6  C   UNL     1       6.431  -0.729  24.178  0.00  0.00    +0.064 C 
ATOM      7 BR   UNL     1       6.519   1.145  23.878  0.00  0.00    -0.046 Br
ATOM      8  C   UNL     1       7.370  -1.506  23.592  0.00  0.00    -0.016 C 
ATOM      9  C   UNL     1       6.958  -2.828  23.078  0.00  0.00    -0.017 A 
ATOM     10  C   UNL     1       7.882  -3.811  23.434  0.00  0.00    -0.036 A 
ATOM     11  C   UNL     1       7.683  -5.150  23.128  0.00  0.00    +0.049 A 
ATOM     12  C   UNL     1       6.551  -5.488  22.396  0.00  0.00    +0.117 A 
ATOM     13  C   UNL     1       5.651  -4.511  21.972  0.00  0.00    +0.046 A 
ATOM     14  C   UNL     1       5.843  -3.168  22.323  0.00  0.00    +0.012 A 
ATOM     15  C   UNL     1       9.064  -3.263  24.152  0.00  0.00    +0.047 C 
ENDROOT
BRANCH  12  16
ATOM     16  O   UNL     1       6.300  -6.787  22.065  0.00  0.00    -0.507 OA
ATOM     17  H   UNL     1       5.748  -7.186  22.758  0.00  0.00    +0.292 HD
ENDBRANCH  12  16
BRANCH   1  18
ATOM     18  C   UNL     1       9.851  -0.907  23.523  0.00  0.00    +0.012 C 
BRANCH  18  19
ATOM     19  C   UNL     1       9.828  -0.980  21.980  0.00  0.00    +0.001 C 
BRANCH  19  21
ATOM     20  C   UNL     1       9.973   1.546  22.077  0.00  0.00    +0.004 C 
ATOM     21  C   UNL     1       9.363   0.344  21.367  0.00  0.00    -0.003 C 
ENDBRANCH  19  21
ENDBRANCH  18  19
ENDBRANCH   1  18
TORSDOF 4
ENDMDL
MODEL 3
REMARK VINA RESULT:      -6.1      2.162      3.281
REMARK  Name = 
REMARK  5 active torsions:
REMARK  status: ('A' for Active; 'I' for Inactive)
REMARK    1  A    between atoms: C_1  and  C_2
REMARK    2  A    between atoms: C_2  and  C_3
REMARK    3  A    between atoms: C_3  and  C_4
REMARK    4  A    between atoms: C_4  and  C_5
REMARK    5  A    between atoms: C_9  and  O_10
REMARK                            x       y       z     vdW  Elec       q    Type
REMARK                         _______ _______ _______ _____ _____    ______ ____
ROOT
ATOM      1  C   UNL     1       7.339  -2.769  23.256  0.00  0.00    +0.002 C 
ATOM      2  C   UNL     1       5.923  -2.728  23.898  0.00  0.00    +0.020 C 
ATOM      3  C   UNL     1       5.793  -1.527  24.843  0.00  0.00    +0.081 C 
ATOM      4  C   UNL     1       6.795  -1.688  25.969  0.00  0.00    +0.170 C 
ATOM      5  O   UNL     1       6.554  -1.296  27.110  0.00  0.00    -0.292 OA
ATOM      6  C   UNL     1       8.121  -2.333  25.630  0.00  0.00    +0.064 C 
ATOM      7 BR   UNL     1       8.328  -3.962  26.584  0.00  0.00    -0.046 Br
ATOM      8  C   UNL     1       8.397  -2.337  24.306  0.00  0.00    -0.016 C 
ATOM      9  C   UNL     1       9.050  -1.146  23.726  0.00  0.00    -0.017 A 
ATOM     10  C   UNL     1       8.444  -0.781  22.524  0.00  0.00    -0.036 A 
ATOM     11  C   UNL     1       8.833   0.350  21.821  0.00  0.00    +0.049 A 
ATOM     12  C   UNL     1       9.897   1.092  22.319  0.00  0.00    +0.117 A 
ATOM     13  C   UNL     1      10.560   0.705  23.483  0.00  0.00    +0.046 A 
ATOM     14  C   UNL     1      10.131  -0.417  24.205  0.00  0.00    +0.012 A 
ATOM     15  C   UNL     1       7.371  -1.723  22.106  0.00  0.00    +0.047 C 
ENDROOT
BRANCH  12  16
ATOM     16  O   UNL     1      10.325   2.214  21.674  0.00  0.00    -0.507 OA
ATOM     17  H   UNL     1      10.956   1.956  20.981  0.00  0.00    +0.292 HD
ENDBRANCH  12  16
BRANCH   1  18
ATOM     18  C   UNL     1       7.653  -4.195  22.720  0.00  0.00    +0.012 C 
BRANCH  18  19
ATOM     19  C   UNL     1       6.865  -5.343  23.390  0.00  0.00    +0.001 C 
BRANCH  19  21
ATOM     20  C   UNL     1       6.269  -5.662  20.949  0.00  0.00    +0.004 C 
ATOM     21  C   UNL     1       5.943  -6.044  22.387  0.00  0.00    -0.003 C 
ENDBRANCH  19  21
ENDBRANCH  18  19
ENDBRANCH   1  18
TORSDOF 4
ENDMDL
MODEL 4
REMARK VINA RESULT:      -6.0      2.133      3.103
REMARK  Name = 
REMARK  5 active torsions:
REMARK  status: ('A' for Active; 'I' for Inactive)
REMARK    1  A    between atoms: C_1  and  C_2
REMARK    2  A    between atoms: C_2  and  C_3
REMARK    3  A    between atoms: C_3  and  C_4
REMARK    4  A    between atoms: C_4  and  C_5
REMARK    5  A    between atoms: C_9  and  O_10
REMARK                            x       y       z     vdW  Elec       q    Type
REMARK                         _______ _______ _______ _____ _____    ______ ____
ROOT
ATOM      1  C   UNL     1       6.784  -2.009  24.620  0.00  0.00    +0.002 C 
ATOM      2  C   UNL     1       7.274  -2.683  25.933  0.00  0.00    +0.020 C 
ATOM      3  C   UNL     1       8.795  -2.874  25.906  0.00  0.00    +0.081 C 
ATOM      4  C   UNL     1       9.146  -3.805  24.762  0.00  0.00    +0.170 C 
ATOM      5  O   UNL     1      10.087  -4.594  24.835  0.00  0.00    -0.292 OA
ATOM      6  C   UNL     1       8.304  -3.710  23.509  0.00  0.00    +0.064 C 
ATOM      7 BR   UNL     1       7.382  -5.343  23.206  0.00  0.00    -0.046 Br
ATOM      8  C   UNL     1       7.597  -2.560  23.419  0.00  0.00    -0.016 C 
ATOM      9  C   UNL     1       8.259  -1.379  22.828  0.00  0.00    -0.017 A 
ATOM     10  C   UNL     1       8.009  -0.236  23.587  0.00  0.00    -0.036 A 
ATOM     11  C   UNL     1       8.580   0.990  23.275  0.00  0.00    +0.049 A 
ATOM     12  C   UNL     1       9.374   1.067  22.138  0.00  0.00    +0.117 A 
ATOM     13  C   UNL     1       9.580  -0.049  21.328  0.00  0.00    +0.046 A 
ATOM     14  C   UNL     1       9.031  -1.291  21.677  0.00  0.00    +0.012 A 
ATOM     15  C   UNL     1       7.085  -0.487  24.726  0.00  0.00    +0.047 C 
ENDROOT
BRANCH  12  16
ATOM     16  O   UNL     1       9.964   2.243  21.780  0.00  0.00    -0.507 OA
ATOM     17  H   UNL     1      10.928   2.148  21.860  0.00  0.00    +0.292 HD
ENDBRANCH  12  16
BRANCH   1  18
ATOM     18  C   UNL     1       5.263  -2.262  24.412  0.00  0.00    +0.012 C 
BRANCH  18  19
ATOM     19  C   UNL     1       4.556  -3.024  25.555  0.00  0.00    +0.001 C 
BRANCH  19  21
ATOM     20  C   UNL     1       3.679  -4.491  23.686  0.00  0.00    +0.004 C 
ATOM     21  C   UNL     1       4.178  -4.445  25.125  0.00  0.00    -0.003 C 
ENDBRANCH  19  21
ENDBRANCH  18  19
ENDBRANCH   1  18
TORSDOF 4
ENDMDL
MODEL 5
REMARK VINA RESULT:      -5.9      2.544      5.385
REMARK  Name = 
REMARK  5 active torsions:
REMARK  status: ('A' for Active; 'I' for Inactive)
REMARK    1  A    between atoms: C_1  and  C_2
REMARK    2  A    between atoms: C_2  and  C_3
REMARK    3  A    between atoms: C_3  and  C_4
REMARK    4  A    between atoms: C_4  and  C_5
REMARK    5  A    between atoms: C_9  and  O_10
REMARK                            x       y       z     vdW  Elec       q    Type
REMARK                         _______ _______ _______ _____ _____    ______ ____
ROOT
ATOM      1  C   UNL     1       8.091  -2.889  23.359  0.00  0.00    +0.002 C 
ATOM      2  C   UNL     1       9.365  -2.023  23.146  0.00  0.00    +0.020 C 
ATOM      3  C   UNL     1       9.846  -1.434  24.477  0.00  0.00    +0.081 C 
ATOM      4  C   UNL     1       8.765  -0.521  25.022  0.00  0.00    +0.170 C 
ATOM      5  O   UNL     1       9.036   0.494  25.661  0.00  0.00    -0.292 OA
ATOM      6  C   UNL     1       7.328  -0.921  24.766  0.00  0.00    +0.064 C 
ATOM      7 BR   UNL     1       6.459   0.382  23.691  0.00  0.00    -0.046 Br
ATOM      8  C   UNL     1       7.182  -2.221  24.424  0.00  0.00    -0.016 C 
ATOM      9  C   UNL     1       7.061  -3.218  25.507  0.00  0.00    -0.017 A 
ATOM     10  C   UNL     1       7.857  -4.334  25.248  0.00  0.00    -0.036 A 
ATOM     11  C   UNL     1       7.970  -5.380  26.153  0.00  0.00    +0.049 A 
ATOM     12  C   UNL     1       7.214  -5.316  27.317  0.00  0.00    +0.117 A 
ATOM     13  C   UNL     1       6.360  -4.242  27.562  0.00  0.00    +0.046 A 
ATOM     14  C   UNL     1       6.287  -3.173  26.659  0.00  0.00    +0.012 A 
ATOM     15  C   UNL     1       8.541  -4.265  23.928  0.00  0.00    +0.047 C 
ENDROOT
BRANCH  12  16
ATOM     16  O   UNL     1       7.282  -6.314  28.245  0.00  0.00    -0.507 OA
ATOM     17  H   UNL     1       6.867  -7.113  27.878  0.00  0.00    +0.292 HD
ENDBRANCH  12  16
BRANCH   1  18
ATOM     18  C   UNL     1       7.323  -3.067  22.018  0.00  0.00    +0.012 C 
BRANCH  18  19
ATOM     19  C   UNL     1       5.793  -3.242  22.149  0.00  0.00    +0.001 C 
BRANCH  19  21
ATOM     20  C   UNL     1       6.251  -5.601  21.349  0.00  0.00    +0.004 C 
ATOM     21  C   UNL     1       5.411  -4.721  22.265  0.00  0.00    -0.003 C 
ENDBRANCH  19  21
ENDBRANCH  18  19
ENDBRANCH   1  18
TORSDOF 4
ENDMDL
MODEL 6
REMARK VINA RESULT:      -5.8      2.544      5.924
REMARK  Name = 
REMARK  5 active torsions:
REMARK  status: ('A' for Active; 'I' for Inactive)
REMARK    1  A    between atoms: C_1  and  C_2
REMARK    2  A    between atoms: C_2  and  C_3
REMARK    3  A    between atoms: C_3  and  C_4
REMARK    4  A    between atoms: C_4  and  C_5
REMARK    5  A    between atoms: C_9  and  O_10
REMARK                            x       y       z     vdW  Elec       q    Type
REMARK                         _______ _______ _______ _____ _____    ______ ____
ROOT
ATOM      1  C   UNL     1       7.040  -0.915  24.126  0.00  0.00    +0.002 C 
ATOM      2  C   UNL     1       7.429  -0.727  22.632  0.00  0.00    +0.020 C 
ATOM      3  C   UNL     1       8.396  -1.829  22.182  0.00  0.00    +0.081 C 
ATOM      4  C   UNL     1       9.669  -1.717  22.998  0.00  0.00    +0.170 C 
ATOM      5  O   UNL     1      10.769  -1.991  22.520  0.00  0.00    -0.292 OA
ATOM      6  C   UNL     1       9.532  -1.275  24.438  0.00  0.00    +0.064 C 
ATOM      7 BR   UNL     1      10.425   0.380  24.710  0.00  0.00    -0.046 Br
ATOM      8  C   UNL     1       8.277  -1.403  24.926  0.00  0.00    -0.016 C 
ATOM      9  C   UNL     1       7.879  -2.707  25.493  0.00  0.00    -0.017 A 
ATOM     10  C   UNL     1       6.611  -3.078  25.048  0.00  0.00    -0.036 A 
ATOM     11  C   UNL     1       6.043  -4.298  25.386  0.00  0.00    +0.049 A 
ATOM     12  C   UNL     1       6.754  -5.132  26.240  0.00  0.00    +0.117 A 
ATOM     13  C   UNL     1       7.994  -4.750  26.750  0.00  0.00    +0.046 A 
ATOM     14  C   UNL     1       8.574  -3.532  26.368  0.00  0.00    +0.012 A 
ATOM     15  C   UNL     1       5.966  -2.038  24.201  0.00  0.00    +0.047 C 
ENDROOT
BRANCH  12  16
ATOM     16  O   UNL     1       6.249  -6.344  26.608  0.00  0.00    -0.507 OA
ATOM     17  H   UNL     1       5.284  -6.266  26.702  0.00  0.00    +0.292 HD
ENDBRANCH  12  16
BRANCH   1  18
ATOM     18  C   UNL     1       6.496   0.415  24.719  0.00  0.00    +0.012 C 
BRANCH  18  19
ATOM     19  C   UNL     1       6.363   1.583  23.716  0.00  0.00    +0.001 C 
BRANCH  19  21
ATOM     20  C   UNL     1       8.237   2.992  22.759  0.00  0.00    +0.004 C 
ATOM     21  C   UNL     1       7.402   2.674  23.993  0.00  0.00    -0.003 C 
ENDBRANCH  19  21
ENDBRANCH  18  19
ENDBRANCH   1  18
TORSDOF 4
ENDMDL
MODEL 7
REMARK VINA RESULT:      -5.8      2.579      5.847
REMARK  Name = 
REMARK  5 active torsions:
REMARK  status: ('A' for Active; 'I' for Inactive)
REMARK    1  A    between atoms: C_1  and  C_2
REMARK    2  A    between atoms: C_2  and  C_3
REMARK    3  A    between atoms: C_3  and  C_4
REMARK    4  A    between atoms: C_4  and  C_5
REMARK    5  A    between atoms: C_9  and  O_10
REMARK                            x       y       z     vdW  Elec       q    Type
REMARK                         _______ _______ _______ _____ _____    ______ ____
ROOT
ATOM      1  C   UNL     1       8.523  -2.128  23.949  0.00  0.00    +0.002 C 
ATOM      2  C   UNL     1       9.487  -1.196  24.735  0.00  0.00    +0.020 C 
ATOM      3  C   UNL     1       8.962  -0.947  26.154  0.00  0.00    +0.081 C 
ATOM      4  C   UNL     1       7.625  -0.238  26.057  0.00  0.00    +0.170 C 
ATOM      5  O   UNL     1       7.271   0.591  26.895  0.00  0.00    -0.292 OA
ATOM      6  C   UNL     1       6.728  -0.606  24.896  0.00  0.00    +0.064 C 
ATOM      7 BR   UNL     1       6.454   0.898  23.769  0.00  0.00    -0.046 Br
ATOM      8  C   UNL     1       7.055  -1.781  24.312  0.00  0.00    -0.016 C 
ATOM      9  C   UNL     1       6.496  -3.023  24.884  0.00  0.00    -0.017 A 
ATOM     10  C   UNL     1       7.476  -4.011  24.984  0.00  0.00    -0.036 A 
ATOM     11  C   UNL     1       7.214  -5.247  25.557  0.00  0.00    +0.049 A 
ATOM     12  C   UNL     1       5.917  -5.505  25.983  0.00  0.00    +0.117 A 
ATOM     13  C   UNL     1       4.908  -4.556  25.829  0.00  0.00    +0.046 A 
ATOM     14  C   UNL     1       5.195  -3.296  25.286  0.00  0.00    +0.012 A 
ATOM     15  C   UNL     1       8.785  -3.588  24.417  0.00  0.00    +0.047 C 
ENDROOT
BRANCH  12  16
ATOM     16  O   UNL     1       5.598  -6.702  26.555  0.00  0.00    -0.507 OA
ATOM     17  H   UNL     1       5.008  -7.188  25.955  0.00  0.00    +0.292 HD
ENDBRANCH  12  16
BRANCH   1  18
ATOM     18  C   UNL     1       8.755  -1.986  22.418  0.00  0.00    +0.012 C 
BRANCH  18  19
ATOM     19  C   UNL     1       9.879  -1.010  22.006  0.00  0.00    +0.001 C 
BRANCH  19  21
ATOM     20  C   UNL     1       9.946   1.522  21.976  0.00  0.00    +0.004 C 
ATOM     21  C   UNL     1       9.306   0.270  21.389  0.00  0.00    -0.003 C 
ENDBRANCH  19  21
ENDBRANCH  18  19
ENDBRANCH   1  18
TORSDOF 4
ENDMDL
MODEL 8
REMARK VINA RESULT:      -5.7      3.249      4.998
REMARK  Name = 
REMARK  5 active torsions:
REMARK  status: ('A' for Active; 'I' for Inactive)
REMARK    1  A    between atoms: C_1  and  C_2
REMARK    2  A    between atoms: C_2  and  C_3
REMARK    3  A    between atoms: C_3  and  C_4
REMARK    4  A    between atoms: C_4  and  C_5
REMARK    5  A    between atoms: C_9  and  O_10
REMARK                            x       y       z     vdW  Elec       q    Type
REMARK                         _______ _______ _______ _____ _____    ______ ____
ROOT
ATOM      1  C   UNL     1       9.326   1.474  23.815  0.00  0.00    +0.002 C 
ATOM      2  C   UNL     1       8.583   0.847  22.601  0.00  0.00    +0.020 C 
ATOM      3  C   UNL     1       8.111   1.939  21.633  0.00  0.00    +0.081 C 
ATOM      4  C   UNL     1       7.122   2.831  22.357  0.00  0.00    +0.170 C 
ATOM      5  O   UNL     1       6.171   3.350  21.773  0.00  0.00    -0.292 OA
ATOM      6  C   UNL     1       7.362   3.080  23.830  0.00  0.00    +0.064 C 
ATOM      7 BR   UNL     1       5.927   2.383  24.861  0.00  0.00    -0.046 Br
ATOM      8  C   UNL     1       8.623   2.794  24.228  0.00  0.00    -0.016 C 
ATOM      9  C   UNL     1       9.654   3.841  24.083  0.00  0.00    -0.017 A 
ATOM     10  C   UNL     1      10.830   3.312  23.552  0.00  0.00    -0.036 A 
ATOM     11  C   UNL     1      11.925   4.112  23.256  0.00  0.00    +0.049 A 
ATOM     12  C   UNL     1      11.843   5.465  23.559  0.00  0.00    +0.117 A 
ATOM     13  C   UNL     1      10.701   6.001  24.154  0.00  0.00    +0.046 A 
ATOM     14  C   UNL     1       9.587   5.189  24.410  0.00  0.00    +0.012 A 
ATOM     15  C   UNL     1      10.766   1.839  23.354  0.00  0.00    +0.047 C 
ENDROOT
BRANCH  12  16
ATOM     16  O   UNL     1      12.886   6.302  23.291  0.00  0.00    -0.507 OA
ATOM     17  H   UNL     1      13.121   6.219  22.351  0.00  0.00    +0.292 HD
ENDBRANCH  12  16
BRANCH   1  18
ATOM     18  C   UNL     1       9.360   0.476  25.007  0.00  0.00    +0.012 C 
BRANCH  18  19
ATOM     19  C   UNL     1       9.495  -1.014  24.622  0.00  0.00    +0.001 C 
BRANCH  19  21
ATOM     20  C   UNL     1       7.102  -1.825  24.782  0.00  0.00    +0.004 C 
ATOM     21  C   UNL     1       8.496  -1.881  25.394  0.00  0.00    -0.003 C 
ENDBRANCH  19  21
ENDBRANCH  18  19
ENDBRANCH   1  18
TORSDOF 4
ENDMDL
MODEL 9
REMARK VINA RESULT:      -5.7      2.719      4.627
REMARK  Name = 
REMARK  5 active torsions:
REMARK  status: ('A' for Active; 'I' for Inactive)
REMARK    1  A    between atoms: C_1  and  C_2
REMARK    2  A    between atoms: C_2  and  C_3
REMARK    3  A    between atoms: C_3  and  C_4
REMARK    4  A    between atoms: C_4  and  C_5
REMARK    5  A    between atoms: C_9  and  O_10
REMARK                            x       y       z     vdW  Elec       q    Type
REMARK                         _______ _______ _______ _____ _____    ______ ____
ROOT
ATOM      1  C   UNL     1       4.868  -3.857  24.127  0.00  0.00    +0.002 C 
ATOM      2  C   UNL     1       3.819  -3.238  25.093  0.00  0.00    +0.020 C 
ATOM      3  C   UNL     1       4.499  -2.696  26.356  0.00  0.00    +0.081 C 
ATOM      4  C   UNL     1       5.158  -3.852  27.084  0.00  0.00    +0.170 C 
ATOM      5  O   UNL     1       5.230  -3.886  28.311  0.00  0.00    -0.292 OA
ATOM      6  C   UNL     1       5.748  -4.958  26.237  0.00  0.00    +0.064 C 
ATOM      7 BR   UNL     1       4.848  -6.598  26.569  0.00  0.00    -0.046 Br
ATOM      8  C   UNL     1       5.954  -4.601  24.949  0.00  0.00    -0.016 C 
ATOM      9  C   UNL     1       7.224  -3.928  24.606  0.00  0.00    -0.017 A 
ATOM     10  C   UNL     1       6.999  -2.836  23.769  0.00  0.00    -0.036 A 
ATOM     11  C   UNL     1       8.029  -1.999  23.364  0.00  0.00    +0.049 A 
ATOM     12  C   UNL     1       9.320  -2.312  23.771  0.00  0.00    +0.117 A 
ATOM     13  C   UNL     1       9.574  -3.439  24.552  0.00  0.00    +0.046 A 
ATOM     14  C   UNL     1       8.519  -4.253  24.988  0.00  0.00    +0.012 A 
ATOM     15  C   UNL     1       5.571  -2.689  23.377  0.00  0.00    +0.047 C 
ENDROOT
BRANCH  12  16
ATOM     16  O   UNL     1      10.374  -1.528  23.405  0.00  0.00    -0.507 OA
ATOM     17  H   UNL     1      11.113  -1.690  24.016  0.00  0.00    +0.292 HD
ENDBRANCH  12  16
BRANCH   1  18
ATOM     18  C   UNL     1       4.181  -4.827  23.124  0.00  0.00    +0.012 C 
BRANCH  18  19
ATOM     19  C   UNL     1       5.008  -6.073  22.736  0.00  0.00    +0.001 C 
BRANCH  19  21
ATOM     20  C   UNL     1       7.320  -5.974  21.705  0.00  0.00    +0.004 C 
ATOM     21  C   UNL     1       5.823  -5.825  21.462  0.00  0.00    -0.003 C 
ENDBRANCH  19  21
ENDBRANCH  18  19
ENDBRANCH   1  18
TORSDOF 4
ENDMDL
