MODEL 1
REMARK VINA RESULT:      -6.7      0.000      0.000
REMARK  Name = 
REMARK  9 active torsions:
REMARK  status: ('A' for Active; 'I' for Inactive)
REMARK    1  A    between atoms: O_1  and  C_2
REMARK    2  A    between atoms: C_2  and  C_3
REMARK    3  A    between atoms: C_3  and  O_5
REMARK    4  A    between atoms: C_3  and  C_6
REMARK    5  A    between atoms: C_6  and  O_7
REMARK    6  A    between atoms: O_7  and  N_8
REMARK    7  A    between atoms: C_9  and  C_11
REMARK    8  A    between atoms: C_19  and  N_20
REMARK    9  A    between atoms: N_20  and  C_21
REMARK                            x       y       z     vdW  Elec       q    Type
REMARK                         _______ _______ _______ _____ _____    ______ ____
ROOT
ATOM      1  C   UNL     1       7.871  -1.025  23.356  0.00  0.00    +0.064 A 
ATOM      2  C   UNL     1       8.932  -1.077  24.287  0.00  0.00    +0.082 A 
ATOM      3  C   UNL     1       9.628   0.135  24.526  0.00  0.00    +0.181 A 
ATOM      4  F   UNL     1      10.775   0.128  25.219  0.00  0.00    -0.200 F 
ATOM      5  C   UNL     1       9.163   1.364  24.060  0.00  0.00    +0.174 A 
ATOM      6  F   UNL     1       9.823   2.482  24.395  0.00  0.00    -0.201 F 
ATOM      7  C   UNL     1       8.032   1.412  23.271  0.00  0.00    +0.057 A 
ATOM      8 BR   UNL     1       7.340   3.064  22.673  0.00  0.00    -0.047 Br
ATOM      9  C   UNL     1       7.414   0.225  22.885  0.00  0.00    +0.033 A 
ENDROOT
BRANCH   1  12
ATOM     10  N   UNL     1       5.836  -2.276  22.751  0.00  0.00    -0.190 N 
ATOM     11  H   UNL     1       5.281  -1.431  22.839  0.00  0.00    +0.183 HD
ATOM     12  C   UNL     1       7.210  -2.199  22.717  0.00  0.00    +0.269 C 
ATOM     13  O   UNL     1       7.927  -3.051  22.194  0.00  0.00    -0.268 OA
BRANCH  10  14
ATOM     14  O   UNL     1       5.295  -3.296  21.916  0.00  0.00    -0.277 OA
BRANCH  14  15
ATOM     15  C   UNL     1       4.652  -4.270  22.749  0.00  0.00    +0.223 C 
BRANCH  15  16
ATOM     16  C   UNL     1       5.444  -5.577  22.805  0.00  0.00    +0.168 C 
BRANCH  16  17
ATOM     17  O   UNL     1       6.568  -5.406  23.685  0.00  0.00    -0.387 OA
ATOM     18  H   UNL     1       7.215  -4.895  23.157  0.00  0.00    +0.210 HD
ENDBRANCH  16  17
BRANCH  16  19
ATOM     19  C   UNL     1       5.961  -6.033  21.438  0.00  0.00    +0.189 C 
BRANCH  19  20
ATOM     20  O   UNL     1       7.347  -5.668  21.349  0.00  0.00    -0.392 OA
ATOM     21  H   UNL     1       7.782  -6.026  22.145  0.00  0.00    +0.210 HD
ENDBRANCH  19  20
ENDBRANCH  16  19
ENDBRANCH  15  16
ENDBRANCH  14  15
ENDBRANCH  10  14
ENDBRANCH   1  12
BRANCH   2  22
ATOM     22  N   UNL     1       9.349  -2.294  24.916  0.00  0.00    -0.309 N 
ATOM     23  H   UNL     1      10.254  -2.152  25.372  0.00  0.00    +0.152 HD
BRANCH  22  24
ATOM     24  C   UNL     1       8.508  -3.114  25.738  0.00  0.00    +0.067 A 
ATOM     25  C   UNL     1       8.866  -4.421  26.137  0.00  0.00    +0.145 A 
ATOM     26  F   UNL     1      10.060  -4.936  25.803  0.00  0.00    -0.204 F 
ATOM     27  C   UNL     1       8.008  -5.237  26.871  0.00  0.00    +0.054 A 
ATOM     28  C   UNL     1       6.807  -4.716  27.329  0.00  0.00    +0.016 A 
ATOM     29  I   UNL     1       5.528  -5.915  28.443  0.00  0.00    -0.044 I 
ATOM     30  C   UNL     1       6.473  -3.387  27.058  0.00  0.00    +0.016 A 
ATOM     31  C   UNL     1       7.319  -2.594  26.264  0.00  0.00    +0.027 A 
ENDBRANCH  22  24
ENDBRANCH   2  22
TORSDOF 9
ENDMDL
MODEL 2
REMARK VINA RESULT:      -6.5      4.227      6.412
REMARK  Name = 
REMARK  9 active torsions:
REMARK  status: ('A' for Active; 'I' for Inactive)
REMARK    1  A    between atoms: O_1  and  C_2
REMARK    2  A    between atoms: C_2  and  C_3
REMARK    3  A    between atoms: C_3  and  O_5
REMARK    4  A    between atoms: C_3  and  C_6
REMARK    5  A    between atoms: C_6  and  O_7
REMARK    6  A    between atoms: O_7  and  N_8
REMARK    7  A    between atoms: C_9  and  C_11
REMARK    8  A    between atoms: C_19  and  N_20
REMARK    9  A    between atoms: N_20  and  C_21
REMARK                            x       y       z     vdW  Elec       q    Type
REMARK                         _______ _______ _______ _____ _____    ______ ____
ROOT
ATOM      1  C   UNL     1       6.451  -5.277  25.309  0.00  0.00    +0.064 A 
ATOM      2  C   UNL     1       7.377  -4.933  24.300  0.00  0.00    +0.082 A 
ATOM      3  C   UNL     1       6.993  -5.210  22.964  0.00  0.00    +0.181 A 
ATOM      4  F   UNL     1       7.891  -5.120  21.972  0.00  0.00    -0.200 F 
ATOM      5  C   UNL     1       5.693  -5.582  22.625  0.00  0.00    +0.174 A 
ATOM      6  F   UNL     1       5.375  -5.745  21.332  0.00  0.00    -0.201 F 
ATOM      7  C   UNL     1       4.755  -5.770  23.619  0.00  0.00    +0.057 A 
ATOM      8 BR   UNL     1       2.970  -6.215  23.193  0.00  0.00    -0.047 Br
ATOM      9  C   UNL     1       5.139  -5.661  24.954  0.00  0.00    +0.033 A 
ENDROOT
BRANCH   1  12
ATOM     10  N   UNL     1       5.884  -4.759  27.650  0.00  0.00    -0.190 N 
ATOM     11  H   UNL     1       4.917  -4.594  27.388  0.00  0.00    +0.183 HD
ATOM     12  C   UNL     1       6.743  -5.374  26.768  0.00  0.00    +0.269 C 
ATOM     13  O   UNL     1       7.747  -5.993  27.116  0.00  0.00    -0.268 OA
BRANCH  10  14
ATOM     14  O   UNL     1       6.110  -5.107  29.014  0.00  0.00    -0.277 OA
BRANCH  14  15
ATOM     15  C   UNL     1       4.845  -5.393  29.625  0.00  0.00    +0.223 C 
BRANCH  15  16
ATOM     16  C   UNL     1       4.334  -6.782  29.241  0.00  0.00    +0.168 C 
BRANCH  16  17
ATOM     17  O   UNL     1       5.413  -7.535  28.662  0.00  0.00    -0.387 OA
ATOM     18  H   UNL     1       5.091  -7.774  27.768  0.00  0.00    +0.210 HD
ENDBRANCH  16  17
BRANCH  16  19
ATOM     19  C   UNL     1       3.174  -6.748  28.241  0.00  0.00    +0.189 C 
BRANCH  19  20
ATOM     20  O   UNL     1       3.043  -5.399  27.768  0.00  0.00    -0.392 OA
ATOM     21  H   UNL     1       2.088  -5.215  27.707  0.00  0.00    +0.210 HD
ENDBRANCH  19  20
ENDBRANCH  16  19
ENDBRANCH  15  16
ENDBRANCH  14  15
ENDBRANCH  10  14
ENDBRANCH   1  12
BRANCH   2  22
ATOM     22  N   UNL     1       8.673  -4.397  24.590  0.00  0.00    -0.309 N 
ATOM     23  H   UNL     1       9.391  -4.977  24.149  0.00  0.00    +0.152 HD
BRANCH  22  24
ATOM     24  C   UNL     1       9.022  -3.010  24.480  0.00  0.00    +0.067 A 
ATOM     25  C   UNL     1       8.730  -2.065  25.487  0.00  0.00    +0.145 A 
ATOM     26  F   UNL     1       8.151  -2.445  26.637  0.00  0.00    -0.204 F 
ATOM     27  C   UNL     1       9.005  -0.707  25.337  0.00  0.00    +0.054 A 
ATOM     28  C   UNL     1       9.695  -0.278  24.213  0.00  0.00    +0.016 A 
ATOM     29  I   UNL     1      10.132   1.740  23.987  0.00  0.00    -0.044 I 
ATOM     30  C   UNL     1      10.110  -1.203  23.252  0.00  0.00    +0.016 A 
ATOM     31  C   UNL     1       9.771  -2.560  23.387  0.00  0.00    +0.027 A 
ENDBRANCH  22  24
ENDBRANCH   2  22
TORSDOF 9
ENDMDL
MODEL 3
REMARK VINA RESULT:      -6.4      2.945      3.930
REMARK  Name = 
REMARK  9 active torsions:
REMARK  status: ('A' for Active; 'I' for Inactive)
REMARK    1  A    between atoms: O_1  and  C_2
REMARK    2  A    between atoms: C_2  and  C_3
REMARK    3  A    between atoms: C_3  and  O_5
REMARK    4  A    between atoms: C_3  and  C_6
REMARK    5  A    between atoms: C_6  and  O_7
REMARK    6  A    between atoms: O_7  and  N_8
REMARK    7  A    between atoms: C_9  and  C_11
REMARK    8  A    between atoms: C_19  and  N_20
REMARK    9  A    between atoms: N_20  and  C_21
REMARK                            x       y       z     vdW  Elec       q    Type
REMARK                         _______ _______ _______ _____ _____    ______ ____
ROOT
ATOM      1  C   UNL     1       9.116   0.403  25.039  0.00  0.00    +0.064 A 
ATOM      2  C   UNL     1       9.738  -0.344  24.015  0.00  0.00    +0.082 A 
ATOM      3  C   UNL     1      10.099   0.365  22.841  0.00  0.00    +0.181 A 
ATOM      4  F   UNL     1      10.488  -0.301  21.745  0.00  0.00    -0.200 F 
ATOM      5  C   UNL     1      10.065   1.756  22.772  0.00  0.00    +0.174 A 
ATOM      6  F   UNL     1      10.503   2.367  21.661  0.00  0.00    -0.201 F 
ATOM      7  C   UNL     1       9.591   2.483  23.846  0.00  0.00    +0.057 A 
ATOM      8 BR   UNL     1       9.587   4.371  23.810  0.00  0.00    -0.047 Br
ATOM      9  C   UNL     1       9.080   1.812  24.954  0.00  0.00    +0.033 A 
ENDROOT
BRANCH   1  12
ATOM     10  N   UNL     1       7.166   0.396  26.545  0.00  0.00    -0.190 N 
ATOM     11  H   UNL     1       6.611   0.873  25.842  0.00  0.00    +0.183 HD
ATOM     12  C   UNL     1       8.379  -0.159  26.207  0.00  0.00    +0.269 C 
ATOM     13  O   UNL     1       8.896  -1.091  26.821  0.00  0.00    -0.268 OA
BRANCH  10  14
ATOM     14  O   UNL     1       6.436  -0.356  27.512  0.00  0.00    -0.277 OA
BRANCH  14  15
ATOM     15  C   UNL     1       5.174  -0.725  26.940  0.00  0.00    +0.223 C 
BRANCH  15  16
ATOM     16  C   UNL     1       5.199  -2.151  26.388  0.00  0.00    +0.168 C 
BRANCH  16  17
ATOM     17  O   UNL     1       6.367  -2.826  26.887  0.00  0.00    -0.387 OA
ATOM     18  H   UNL     1       6.517  -2.432  27.771  0.00  0.00    +0.210 HD
ENDBRANCH  16  17
BRANCH  16  19
ATOM     19  C   UNL     1       5.218  -2.211  24.858  0.00  0.00    +0.189 C 
BRANCH  19  20
ATOM     20  O   UNL     1       5.500  -0.889  24.372  0.00  0.00    -0.392 OA
ATOM     21  H   UNL     1       6.298  -0.583  24.839  0.00  0.00    +0.210 HD
ENDBRANCH  19  20
ENDBRANCH  16  19
ENDBRANCH  15  16
ENDBRANCH  14  15
ENDBRANCH  10  14
ENDBRANCH   1  12
BRANCH   2  22
ATOM     22  N   UNL     1       9.941  -1.759  24.103  0.00  0.00    -0.309 N 
ATOM     23  H   UNL     1      10.309  -1.996  25.028  0.00  0.00    +0.152 HD
BRANCH  22  24
ATOM     24  C   UNL     1       8.986  -2.744  23.685  0.00  0.00    +0.067 A 
ATOM     25  C   UNL     1       8.712  -3.910  24.433  0.00  0.00    +0.145 A 
ATOM     26  F   UNL     1       9.305  -4.119  25.619  0.00  0.00    -0.204 F 
ATOM     27  C   UNL     1       7.839  -4.898  23.980  0.00  0.00    +0.054 A 
ATOM     28  C   UNL     1       7.123  -4.682  22.812  0.00  0.00    +0.016 A 
ATOM     29  I   UNL     1       5.802  -6.136  22.136  0.00  0.00    -0.044 I 
ATOM     30  C   UNL     1       7.277  -3.485  22.109  0.00  0.00    +0.016 A 
ATOM     31  C   UNL     1       8.206  -2.525  22.544  0.00  0.00    +0.027 A 
ENDBRANCH  22  24
ENDBRANCH   2  22
TORSDOF 9
ENDMDL
MODEL 4
REMARK VINA RESULT:      -6.4      1.924      2.498
REMARK  Name = 
REMARK  9 active torsions:
REMARK  status: ('A' for Active; 'I' for Inactive)
REMARK    1  A    between atoms: O_1  and  C_2
REMARK    2  A    between atoms: C_2  and  C_3
REMARK    3  A    between atoms: C_3  and  O_5
REMARK    4  A    between atoms: C_3  and  C_6
REMARK    5  A    between atoms: C_6  and  O_7
REMARK    6  A    between atoms: O_7  and  N_8
REMARK    7  A    between atoms: C_9  and  C_11
REMARK    8  A    between atoms: C_19  and  N_20
REMARK    9  A    between atoms: N_20  and  C_21
REMARK                            x       y       z     vdW  Elec       q    Type
REMARK                         _______ _______ _______ _____ _____    ______ ____
ROOT
ATOM      1  C   UNL     1       8.634  -2.749  24.231  0.00  0.00    +0.064 A 
ATOM      2  C   UNL     1       8.610  -2.224  25.542  0.00  0.00    +0.082 A 
ATOM      3  C   UNL     1       9.128  -0.915  25.711  0.00  0.00    +0.181 A 
ATOM      4  F   UNL     1       9.345  -0.430  26.941  0.00  0.00    -0.200 F 
ATOM      5  C   UNL     1       9.432  -0.089  24.629  0.00  0.00    +0.174 A 
ATOM      6  F   UNL     1       9.835   1.169  24.860  0.00  0.00    -0.201 F 
ATOM      7  C   UNL     1       9.305  -0.573  23.343  0.00  0.00    +0.057 A 
ATOM      8 BR   UNL     1       9.649   0.536  21.854  0.00  0.00    -0.047 Br
ATOM      9  C   UNL     1       8.950  -1.905  23.144  0.00  0.00    +0.033 A 
ENDROOT
BRANCH   1  12
ATOM     10  N   UNL     1       7.460  -4.496  22.949  0.00  0.00    -0.190 N 
ATOM     11  H   UNL     1       7.150  -3.803  22.274  0.00  0.00    +0.183 HD
ATOM     12  C   UNL     1       8.443  -4.180  23.859  0.00  0.00    +0.269 C 
ATOM     13  O   UNL     1       9.170  -5.018  24.392  0.00  0.00    -0.268 OA
BRANCH  10  14
ATOM     14  O   UNL     1       7.514  -5.842  22.483  0.00  0.00    -0.277 OA
BRANCH  14  15
ATOM     15  C   UNL     1       6.178  -6.276  22.197  0.00  0.00    +0.223 C 
BRANCH  15  16
ATOM     16  C   UNL     1       5.261  -6.116  23.410  0.00  0.00    +0.168 C 
BRANCH  16  17
ATOM     17  O   UNL     1       4.733  -7.403  23.771  0.00  0.00    -0.387 OA
ATOM     18  H   UNL     1       4.070  -7.208  24.466  0.00  0.00    +0.210 HD
ENDBRANCH  16  17
BRANCH  16  19
ATOM     19  C   UNL     1       4.089  -5.161  23.164  0.00  0.00    +0.189 C 
BRANCH  19  20
ATOM     20  O   UNL     1       4.593  -4.027  22.441  0.00  0.00    -0.392 OA
ATOM     21  H   UNL     1       3.819  -3.568  22.066  0.00  0.00    +0.210 HD
ENDBRANCH  19  20
ENDBRANCH  16  19
ENDBRANCH  15  16
ENDBRANCH  14  15
ENDBRANCH  10  14
ENDBRANCH   1  12
BRANCH   2  22
ATOM     22  N   UNL     1       8.158  -2.980  26.670  0.00  0.00    -0.309 N 
ATOM     23  H   UNL     1       8.328  -2.451  27.529  0.00  0.00    +0.152 HD
BRANCH  22  24
ATOM     24  C   UNL     1       6.891  -3.649  26.746  0.00  0.00    +0.067 A 
ATOM     25  C   UNL     1       6.763  -5.008  27.109  0.00  0.00    +0.145 A 
ATOM     26  F   UNL     1       7.840  -5.728  27.459  0.00  0.00    -0.204 F 
ATOM     27  C   UNL     1       5.535  -5.667  27.105  0.00  0.00    +0.054 A 
ATOM     28  C   UNL     1       4.380  -4.942  26.851  0.00  0.00    +0.016 A 
ATOM     29  I   UNL     1       2.541  -5.908  26.864  0.00  0.00    -0.044 I 
ATOM     30  C   UNL     1       4.456  -3.569  26.609  0.00  0.00    +0.016 A 
ATOM     31  C   UNL     1       5.706  -2.929  26.555  0.00  0.00    +0.027 A 
ENDBRANCH  22  24
ENDBRANCH   2  22
TORSDOF 9
ENDMDL
MODEL 5
REMARK VINA RESULT:      -6.3      3.913      5.386
REMARK  Name = 
REMARK  9 active torsions:
REMARK  status: ('A' for Active; 'I' for Inactive)
REMARK    1  A    between atoms: O_1  and  C_2
REMARK    2  A    between atoms: C_2  and  C_3
REMARK    3  A    between atoms: C_3  and  O_5
REMARK    4  A    between atoms: C_3  and  C_6
REMARK    5  A    between atoms: C_6  and  O_7
REMARK    6  A    between atoms: O_7  and  N_8
REMARK    7  A    between atoms: C_9  and  C_11
REMARK    8  A    between atoms: C_19  and  N_20
REMARK    9  A    between atoms: N_20  and  C_21
REMARK                            x       y       z     vdW  Elec       q    Type
REMARK                         _______ _______ _______ _____ _____    ______ ____
ROOT
ATOM      1  C   UNL     1       9.263   0.427  25.000  0.00  0.00    +0.064 A 
ATOM      2  C   UNL     1       9.703  -0.399  23.941  0.00  0.00    +0.082 A 
ATOM      3  C   UNL     1      10.007   0.248  22.716  0.00  0.00    +0.181 A 
ATOM      4  F   UNL     1      10.217  -0.475  21.607  0.00  0.00    -0.200 F 
ATOM      5  C   UNL     1      10.098   1.635  22.609  0.00  0.00    +0.174 A 
ATOM      6  F   UNL     1      10.475   2.178  21.442  0.00  0.00    -0.201 F 
ATOM      7  C   UNL     1       9.808   2.425  23.703  0.00  0.00    +0.057 A 
ATOM      8 BR   UNL     1       9.980   4.303  23.611  0.00  0.00    -0.047 Br
ATOM      9  C   UNL     1       9.353   1.830  24.877  0.00  0.00    +0.033 A 
ENDROOT
BRANCH   1  12
ATOM     10  N   UNL     1       7.615   0.750  26.803  0.00  0.00    -0.190 N 
ATOM     11  H   UNL     1       7.088   1.390  26.216  0.00  0.00    +0.183 HD
ATOM     12  C   UNL     1       8.600  -0.038  26.252  0.00  0.00    +0.269 C 
ATOM     13  O   UNL     1       8.971  -1.104  26.741  0.00  0.00    -0.268 OA
BRANCH  10  14
ATOM     14  O   UNL     1       6.884   0.115  27.849  0.00  0.00    -0.277 OA
BRANCH  14  15
ATOM     15  C   UNL     1       5.948   1.059  28.386  0.00  0.00    +0.223 C 
BRANCH  15  16
ATOM     16  C   UNL     1       6.629   2.057  29.323  0.00  0.00    +0.168 C 
BRANCH  16  17
ATOM     17  O   UNL     1       7.452   2.944  28.546  0.00  0.00    -0.387 OA
ATOM     18  H   UNL     1       7.470   3.776  29.063  0.00  0.00    +0.210 HD
ENDBRANCH  16  17
BRANCH  16  19
ATOM     19  C   UNL     1       7.503   1.392  30.390  0.00  0.00    +0.189 C 
BRANCH  19  20
ATOM     20  O   UNL     1       8.716   0.960  29.755  0.00  0.00    -0.392 OA
ATOM     21  H   UNL     1       8.679  -0.013  29.713  0.00  0.00    +0.210 HD
ENDBRANCH  19  20
ENDBRANCH  16  19
ENDBRANCH  15  16
ENDBRANCH  14  15
ENDBRANCH  10  14
ENDBRANCH   1  12
BRANCH   2  22
ATOM     22  N   UNL     1       9.778  -1.824  24.051  0.00  0.00    -0.309 N 
ATOM     23  H   UNL     1      10.291  -2.076  24.900  0.00  0.00    +0.152 HD
BRANCH  22  24
ATOM     24  C   UNL     1       8.670  -2.714  23.862  0.00  0.00    +0.067 A 
ATOM     25  C   UNL     1       8.669  -4.047  24.328  0.00  0.00    +0.145 A 
ATOM     26  F   UNL     1       9.707  -4.527  25.032  0.00  0.00    -0.204 F 
ATOM     27  C   UNL     1       7.618  -4.925  24.072  0.00  0.00    +0.054 A 
ATOM     28  C   UNL     1       6.479  -4.449  23.441  0.00  0.00    +0.016 A 
ATOM     29  I   UNL     1       4.895  -5.743  23.072  0.00  0.00    -0.044 I 
ATOM     30  C   UNL     1       6.393  -3.104  23.074  0.00  0.00    +0.016 A 
ATOM     31  C   UNL     1       7.485  -2.245  23.283  0.00  0.00    +0.027 A 
ENDBRANCH  22  24
ENDBRANCH   2  22
TORSDOF 9
ENDMDL
MODEL 6
REMARK VINA RESULT:      -6.2      2.991      4.084
REMARK  Name = 
REMARK  9 active torsions:
REMARK  status: ('A' for Active; 'I' for Inactive)
REMARK    1  A    between atoms: O_1  and  C_2
REMARK    2  A    between atoms: C_2  and  C_3
REMARK    3  A    between atoms: C_3  and  O_5
REMARK    4  A    between atoms: C_3  and  C_6
REMARK    5  A    between atoms: C_6  and  O_7
REMARK    6  A    between atoms: O_7  and  N_8
REMARK    7  A    between atoms: C_9  and  C_11
REMARK    8  A    between atoms: C_19  and  N_20
REMARK    9  A    between atoms: N_20  and  C_21
REMARK                            x       y       z     vdW  Elec       q    Type
REMARK                         _______ _______ _______ _____ _____    ______ ____
ROOT
ATOM      1  C   UNL     1       9.110   0.027  25.002  0.00  0.00    +0.064 A 
ATOM      2  C   UNL     1       9.646  -0.742  23.945  0.00  0.00    +0.082 A 
ATOM      3  C   UNL     1       9.982  -0.042  22.758  0.00  0.00    +0.181 A 
ATOM      4  F   UNL     1      10.286  -0.718  21.641  0.00  0.00    -0.200 F 
ATOM      5  C   UNL     1      10.008   1.350  22.697  0.00  0.00    +0.174 A 
ATOM      6  F   UNL     1      10.419   1.947  21.568  0.00  0.00    -0.201 F 
ATOM      7  C   UNL     1       9.622   2.090  23.795  0.00  0.00    +0.057 A 
ATOM      8 BR   UNL     1       9.703   3.977  23.768  0.00  0.00    -0.047 Br
ATOM      9  C   UNL     1       9.135   1.437  24.925  0.00  0.00    +0.033 A 
ENDROOT
BRANCH   1  12
ATOM     10  N   UNL     1       7.046  -0.318  26.303  0.00  0.00    -0.190 N 
ATOM     11  H   UNL     1       6.487  -0.187  25.466  0.00  0.00    +0.183 HD
ATOM     12  C   UNL     1       8.406  -0.508  26.202  0.00  0.00    +0.269 C 
ATOM     13  O   UNL     1       9.076  -1.090  27.053  0.00  0.00    -0.268 OA
BRANCH  10  14
ATOM     14  O   UNL     1       6.435  -1.065  27.352  0.00  0.00    -0.277 OA
BRANCH  14  15
ATOM     15  C   UNL     1       6.014  -2.329  26.821  0.00  0.00    +0.223 C 
BRANCH  15  16
ATOM     16  C   UNL     1       4.682  -2.214  26.079  0.00  0.00    +0.168 C 
BRANCH  16  17
ATOM     17  O   UNL     1       4.914  -1.623  24.789  0.00  0.00    -0.387 OA
ATOM     18  H   UNL     1       5.727  -1.089  24.909  0.00  0.00    +0.210 HD
ENDBRANCH  16  17
BRANCH  16  19
ATOM     19  C   UNL     1       3.643  -1.370  26.822  0.00  0.00    +0.189 C 
BRANCH  19  20
ATOM     20  O   UNL     1       3.859   0.004  26.467  0.00  0.00    -0.392 OA
ATOM     21  H   UNL     1       4.653   0.296  26.952  0.00  0.00    +0.210 HD
ENDBRANCH  19  20
ENDBRANCH  16  19
ENDBRANCH  15  16
ENDBRANCH  14  15
ENDBRANCH  10  14
ENDBRANCH   1  12
BRANCH   2  22
ATOM     22  N   UNL     1       9.787  -2.164  24.018  0.00  0.00    -0.309 N 
ATOM     23  H   UNL     1      10.435  -2.407  24.771  0.00  0.00    +0.152 HD
BRANCH  22  24
ATOM     24  C   UNL     1       8.694  -3.092  23.990  0.00  0.00    +0.067 A 
ATOM     25  C   UNL     1       7.742  -3.123  22.947  0.00  0.00    +0.145 A 
ATOM     26  F   UNL     1       7.858  -2.305  21.889  0.00  0.00    -0.204 F 
ATOM     27  C   UNL     1       6.641  -3.977  22.968  0.00  0.00    +0.054 A 
ATOM     28  C   UNL     1       6.532  -4.913  23.986  0.00  0.00    +0.016 A 
ATOM     29  I   UNL     1       4.907  -6.207  24.018  0.00  0.00    -0.044 I 
ATOM     30  C   UNL     1       7.520  -4.994  24.970  0.00  0.00    +0.016 A 
ATOM     31  C   UNL     1       8.592  -4.086  24.970  0.00  0.00    +0.027 A 
ENDBRANCH  22  24
ENDBRANCH   2  22
TORSDOF 9
ENDMDL
MODEL 7
REMARK VINA RESULT:      -5.8      3.276      4.960
REMARK  Name = 
REMARK  9 active torsions:
REMARK  status: ('A' for Active; 'I' for Inactive)
REMARK    1  A    between atoms: O_1  and  C_2
REMARK    2  A    between atoms: C_2  and  C_3
REMARK    3  A    between atoms: C_3  and  O_5
REMARK    4  A    between atoms: C_3  and  C_6
REMARK    5  A    between atoms: C_6  and  O_7
REMARK    6  A    between atoms: O_7  and  N_8
REMARK    7  A    between atoms: C_9  and  C_11
REMARK    8  A    between atoms: C_19  and  N_20
REMARK    9  A    between atoms: N_20  and  C_21
REMARK                            x       y       z     vdW  Elec       q    Type
REMARK                         _______ _______ _______ _____ _____    ______ ____
ROOT
ATOM      1  C   UNL     1       8.903  -3.109  24.753  0.00  0.00    +0.064 A 
ATOM      2  C   UNL     1       8.279  -3.239  23.492  0.00  0.00    +0.082 A 
ATOM      3  C   UNL     1       8.241  -2.077  22.680  0.00  0.00    +0.181 A 
ATOM      4  F   UNL     1       7.482  -2.052  21.575  0.00  0.00    -0.200 F 
ATOM      5  C   UNL     1       8.972  -0.931  22.986  0.00  0.00    +0.174 A 
ATOM      6  F   UNL     1       8.960   0.102  22.130  0.00  0.00    -0.201 F 
ATOM      7  C   UNL     1       9.702  -0.877  24.157  0.00  0.00    +0.057 A 
ATOM      8 BR   UNL     1      10.752   0.635  24.574  0.00  0.00    -0.047 Br
ATOM      9  C   UNL     1       9.635  -1.940  25.055  0.00  0.00    +0.033 A 
ENDROOT
BRANCH   1  12
ATOM     10  N   UNL     1       7.686  -4.008  26.697  0.00  0.00    -0.190 N 
ATOM     11  H   UNL     1       6.817  -3.621  26.342  0.00  0.00    +0.183 HD
ATOM     12  C   UNL     1       8.795  -4.073  25.885  0.00  0.00    +0.269 C 
ATOM     13  O   UNL     1       9.710  -4.880  26.046  0.00  0.00    -0.268 OA
BRANCH  10  14
ATOM     14  O   UNL     1       7.559  -5.112  27.591  0.00  0.00    -0.277 OA
BRANCH  14  15
ATOM     15  C   UNL     1       6.175  -5.483  27.658  0.00  0.00    +0.223 C 
BRANCH  15  16
ATOM     16  C   UNL     1       5.870  -6.301  28.913  0.00  0.00    +0.168 C 
BRANCH  16  17
ATOM     17  O   UNL     1       5.599  -7.660  28.533  0.00  0.00    -0.387 OA
ATOM     18  H   UNL     1       4.744  -7.613  28.056  0.00  0.00    +0.210 HD
ENDBRANCH  16  17
BRANCH  16  19
ATOM     19  C   UNL     1       4.674  -5.770  29.709  0.00  0.00    +0.189 C 
BRANCH  19  20
ATOM     20  O   UNL     1       4.708  -4.336  29.646  0.00  0.00    -0.392 OA
ATOM     21  H   UNL     1       5.568  -4.060  30.013  0.00  0.00    +0.210 HD
ENDBRANCH  19  20
ENDBRANCH  16  19
ENDBRANCH  15  16
ENDBRANCH  14  15
ENDBRANCH  10  14
ENDBRANCH   1  12
BRANCH   2  22
ATOM     22  N   UNL     1       7.647  -4.450  23.063  0.00  0.00    -0.309 N 
ATOM     23  H   UNL     1       8.190  -5.254  23.386  0.00  0.00    +0.152 HD
BRANCH  22  24
ATOM     24  C   UNL     1       6.244  -4.721  23.183  0.00  0.00    +0.067 A 
ATOM     25  C   UNL     1       5.648  -5.903  22.691  0.00  0.00    +0.145 A 
ATOM     26  F   UNL     1       6.396  -6.865  22.129  0.00  0.00    -0.204 F 
ATOM     27  C   UNL     1       4.273  -6.122  22.745  0.00  0.00    +0.054 A 
ATOM     28  C   UNL     1       3.469  -5.207  23.408  0.00  0.00    +0.016 A 
ATOM     29  I   UNL     1       1.420  -5.532  23.516  0.00  0.00    -0.044 I 
ATOM     30  C   UNL     1       4.040  -4.086  24.015  0.00  0.00    +0.016 A 
ATOM     31  C   UNL     1       5.419  -3.846  23.899  0.00  0.00    +0.027 A 
ENDBRANCH  22  24
ENDBRANCH   2  22
TORSDOF 9
ENDMDL
MODEL 8
REMARK VINA RESULT:      -5.7      4.055      6.324
REMARK  Name = 
REMARK  9 active torsions:
REMARK  status: ('A' for Active; 'I' for Inactive)
REMARK    1  A    between atoms: O_1  and  C_2
REMARK    2  A    between atoms: C_2  and  C_3
REMARK    3  A    between atoms: C_3  and  O_5
REMARK    4  A    between atoms: C_3  and  C_6
REMARK    5  A    between atoms: C_6  and  O_7
REMARK    6  A    between atoms: O_7  and  N_8
REMARK    7  A    between atoms: C_9  and  C_11
REMARK    8  A    between atoms: C_19  and  N_20
REMARK    9  A    between atoms: N_20  and  C_21
REMARK                            x       y       z     vdW  Elec       q    Type
REMARK                         _______ _______ _______ _____ _____    ______ ____
ROOT
ATOM      1  C   UNL     1       7.848  -3.054  23.637  0.00  0.00    +0.064 A 
ATOM      2  C   UNL     1       6.831  -2.871  24.600  0.00  0.00    +0.082 A 
ATOM      3  C   UNL     1       5.557  -3.413  24.289  0.00  0.00    +0.181 A 
ATOM      4  F   UNL     1       4.491  -3.099  25.038  0.00  0.00    -0.200 F 
ATOM      5  C   UNL     1       5.359  -4.279  23.215  0.00  0.00    +0.174 A 
ATOM      6  F   UNL     1       4.148  -4.824  23.029  0.00  0.00    -0.201 F 
ATOM      7  C   UNL     1       6.408  -4.566  22.366  0.00  0.00    +0.057 A 
ATOM      8 BR   UNL     1       6.191  -5.780  20.936  0.00  0.00    -0.047 Br
ATOM      9  C   UNL     1       7.632  -3.927  22.548  0.00  0.00    +0.033 A 
ENDROOT
BRANCH   1  12
ATOM     10  N   UNL     1       9.150  -1.016  23.167  0.00  0.00    -0.190 N 
ATOM     11  H   UNL     1       8.313  -0.450  23.260  0.00  0.00    +0.183 HD
ATOM     12  C   UNL     1       9.148  -2.326  23.590  0.00  0.00    +0.269 C 
ATOM     13  O   UNL     1      10.163  -2.935  23.924  0.00  0.00    -0.268 OA
BRANCH  10  14
ATOM     14  O   UNL     1      10.387  -0.342  23.385  0.00  0.00    -0.277 OA
BRANCH  14  15
ATOM     15  C   UNL     1      10.236   0.528  24.514  0.00  0.00    +0.223 C 
BRANCH  15  16
ATOM     16  C   UNL     1       9.689   1.896  24.104  0.00  0.00    +0.168 C 
BRANCH  16  17
ATOM     17  O   UNL     1       8.397   1.721  23.497  0.00  0.00    -0.387 OA
ATOM     18  H   UNL     1       8.258   2.542  22.981  0.00  0.00    +0.210 HD
ENDBRANCH  16  17
BRANCH  16  19
ATOM     19  C   UNL     1      10.593   2.643  23.119  0.00  0.00    +0.189 C 
BRANCH  19  20
ATOM     20  O   UNL     1      10.249   2.209  21.794  0.00  0.00    -0.392 OA
ATOM     21  H   UNL     1      11.054   2.299  21.253  0.00  0.00    +0.210 HD
ENDBRANCH  19  20
ENDBRANCH  16  19
ENDBRANCH  15  16
ENDBRANCH  14  15
ENDBRANCH  10  14
ENDBRANCH   1  12
BRANCH   2  22
ATOM     22  N   UNL     1       7.030  -2.120  25.802  0.00  0.00    -0.309 N 
ATOM     23  H   UNL     1       7.955  -2.325  26.186  0.00  0.00    +0.152 HD
BRANCH  22  24
ATOM     24  C   UNL     1       6.734  -0.725  25.947  0.00  0.00    +0.067 A 
ATOM     25  C   UNL     1       7.430   0.117  26.842  0.00  0.00    +0.145 A 
ATOM     26  F   UNL     1       8.456  -0.354  27.568  0.00  0.00    -0.204 F 
ATOM     27  C   UNL     1       7.083   1.454  27.030  0.00  0.00    +0.054 A 
ATOM     28  C   UNL     1       6.099   2.015  26.230  0.00  0.00    +0.016 A 
ATOM     29  I   UNL     1       5.588   4.013  26.484  0.00  0.00    -0.044 I 
ATOM     30  C   UNL     1       5.473   1.245  25.248  0.00  0.00    +0.016 A 
ATOM     31  C   UNL     1       5.789  -0.118  25.111  0.00  0.00    +0.027 A 
ENDBRANCH  22  24
ENDBRANCH   2  22
TORSDOF 9
ENDMDL
MODEL 9
REMARK VINA RESULT:      -5.7      4.263      5.798
REMARK  Name = 
REMARK  9 active torsions:
REMARK  status: ('A' for Active; 'I' for Inactive)
REMARK    1  A    between atoms: O_1  and  C_2
REMARK    2  A    between atoms: C_2  and  C_3
REMARK    3  A    between atoms: C_3  and  O_5
REMARK    4  A    between atoms: C_3  and  C_6
REMARK    5  A    between atoms: C_6  and  O_7
REMARK    6  A    between atoms: O_7  and  N_8
REMARK    7  A    between atoms: C_9  and  C_11
REMARK    8  A    between atoms: C_19  and  N_20
REMARK    9  A    between atoms: N_20  and  C_21
REMARK                            x       y       z     vdW  Elec       q    Type
REMARK                         _______ _______ _______ _____ _____    ______ ____
ROOT
ATOM      1  C   UNL     1       8.447   0.903  25.256  0.00  0.00    +0.064 A 
ATOM      2  C   UNL     1       9.379   0.125  24.536  0.00  0.00    +0.082 A 
ATOM      3  C   UNL     1      10.093   0.784  23.502  0.00  0.00    +0.181 A 
ATOM      4  F   UNL     1      10.828   0.075  22.634  0.00  0.00    -0.200 F 
ATOM      5  C   UNL     1      10.064   2.168  23.344  0.00  0.00    +0.174 A 
ATOM      6  F   UNL     1      10.831   2.735  22.401  0.00  0.00    -0.201 F 
ATOM      7  C   UNL     1       9.256   2.933  24.161  0.00  0.00    +0.057 A 
ATOM      8 BR   UNL     1       9.237   4.815  24.014  0.00  0.00    -0.047 Br
ATOM      9  C   UNL     1       8.421   2.304  25.081  0.00  0.00    +0.033 A 
ENDROOT
BRANCH   1  12
ATOM     10  N   UNL     1       7.444   0.674  27.495  0.00  0.00    -0.190 N 
ATOM     11  H   UNL     1       7.937   1.504  27.809  0.00  0.00    +0.183 HD
ATOM     12  C   UNL     1       7.378   0.378  26.152  0.00  0.00    +0.269 C 
ATOM     13  O   UNL     1       6.487  -0.305  25.650  0.00  0.00    -0.268 OA
BRANCH  10  14
ATOM     14  O   UNL     1       6.264   0.336  28.220  0.00  0.00    -0.277 OA
BRANCH  14  15
ATOM     15  C   UNL     1       6.251   1.090  29.440  0.00  0.00    +0.223 C 
BRANCH  15  16
ATOM     16  C   UNL     1       7.490   1.976  29.569  0.00  0.00    +0.168 C 
BRANCH  16  17
ATOM     17  O   UNL     1       8.575   1.192  30.092  0.00  0.00    -0.387 OA
ATOM     18  H   UNL     1       9.369   1.540  29.636  0.00  0.00    +0.210 HD
ENDBRANCH  16  17
BRANCH  16  19
ATOM     19  C   UNL     1       7.279   3.187  30.484  0.00  0.00    +0.189 C 
BRANCH  19  20
ATOM     20  O   UNL     1       7.636   4.363  29.742  0.00  0.00    -0.392 OA
ATOM     21  H   UNL     1       8.163   4.923  30.342  0.00  0.00    +0.210 HD
ENDBRANCH  19  20
ENDBRANCH  16  19
ENDBRANCH  15  16
ENDBRANCH  14  15
ENDBRANCH  10  14
ENDBRANCH   1  12
BRANCH   2  22
ATOM     22  N   UNL     1       9.562  -1.276  24.769  0.00  0.00    -0.309 N 
ATOM     23  H   UNL     1       9.602  -1.455  25.775  0.00  0.00    +0.152 HD
BRANCH  22  24
ATOM     24  C   UNL     1       8.818  -2.313  24.113  0.00  0.00    +0.067 A 
ATOM     25  C   UNL     1       8.662  -3.606  24.659  0.00  0.00    +0.145 A 
ATOM     26  F   UNL     1       9.168  -3.905  25.866  0.00  0.00    -0.204 F 
ATOM     27  C   UNL     1       8.003  -4.627  23.979  0.00  0.00    +0.054 A 
ATOM     28  C   UNL     1       7.374  -4.341  22.776  0.00  0.00    +0.016 A 
ATOM     29  I   UNL     1       6.368  -5.850  21.762  0.00  0.00    -0.044 I 
ATOM     30  C   UNL     1       7.402  -3.042  22.265  0.00  0.00    +0.016 A 
ATOM     31  C   UNL     1       8.123  -2.036  22.930  0.00  0.00    +0.027 A 
ENDBRANCH  22  24
ENDBRANCH   2  22
TORSDOF 9
ENDMDL
