MODEL 1
REMARK VINA RESULT:      -7.2      0.000      0.000
REMARK  Name = 
REMARK  7 active torsions:
REMARK  status: ('A' for Active; 'I' for Inactive)
REMARK    1  A    between atoms: C_1  and  O_2
REMARK    2  A    between atoms: O_2  and  C_3
REMARK    3  A    between atoms: C_4  and  O_5
REMARK    4  A    between atoms: O_5  and  C_6
REMARK    5  A    between atoms: C_6  and  C_7
REMARK    6  A    between atoms: N_10  and  C_11
REMARK    7  A    between atoms: N_20  and  C_21
REMARK                            x       y       z     vdW  Elec       q    Type
REMARK                         _______ _______ _______ _____ _____    ______ ____
ROOT
ATOM      1  C   UNL     1       6.675  -2.171  24.747  0.00  0.00    +0.162 A 
ATOM      2  C   UNL     1       5.613  -2.904  24.210  0.00  0.00    +0.062 A 
ATOM      3  C   UNL     1       5.853  -3.929  23.255  0.00  0.00    +0.044 A 
ATOM      4  C   UNL     1       7.154  -4.137  22.787  0.00  0.00    +0.080 A 
ATOM      5  N   UNL     1       7.457  -5.050  21.860  0.00  0.00    -0.235 NA
ATOM      6  C   UNL     1       6.458  -5.816  21.420  0.00  0.00    +0.223 A 
ATOM      7  N   UNL     1       5.196  -5.775  21.847  0.00  0.00    -0.220 NA
ATOM      8  C   UNL     1       8.197  -3.412  23.344  0.00  0.00    +0.078 A 
ATOM      9  C   UNL     1       4.897  -4.842  22.772  0.00  0.00    +0.134 A 
ATOM     10  N   UNL     1       3.614  -4.891  23.352  0.00  0.00    -0.297 N 
ATOM     11  H   UNL     1       3.055  -4.058  23.226  0.00  0.00    +0.154 HD
ATOM     12  C   UNL     1       7.990  -2.468  24.355  0.00  0.00    +0.164 A 
ENDROOT
BRANCH  10  13
ATOM     13  C   UNL     1       2.908  -6.045  23.747  0.00  0.00    +0.068 A 
ATOM     14  C   UNL     1       1.847  -6.558  22.985  0.00  0.00    +0.027 A 
ATOM     15  C   UNL     1       1.213  -7.751  23.335  0.00  0.00    +0.017 A 
ATOM     16  C   UNL     1       1.646  -8.452  24.458  0.00  0.00    +0.021 A 
ATOM     17 BR   UNL     1       0.818 -10.092  24.903  0.00  0.00    -0.050 Br
ATOM     18  C   UNL     1       2.680  -7.957  25.244  0.00  0.00    +0.055 A 
ATOM     19  C   UNL     1       3.301  -6.766  24.882  0.00  0.00    +0.145 A 
ATOM     20  F   UNL     1       4.319  -6.311  25.633  0.00  0.00    -0.204 F 
ENDBRANCH  10  13
BRANCH   1  22
ATOM     21  C   UNL     1       5.318  -0.455  25.655  0.00  0.00    +0.277 C 
ATOM     22  O   UNL     1       6.507  -1.234  25.737  0.00  0.00    -0.491 OA
ENDBRANCH   1  22
BRANCH  12  23
ATOM     23  O   UNL     1       8.997  -1.797  25.001  0.00  0.00    -0.488 OA
BRANCH  23  24
ATOM     24  C   UNL     1       9.910  -1.007  24.223  0.00  0.00    +0.232 C 
BRANCH  24  25
ATOM     25  C   UNL     1      10.082   0.361  24.918  0.00  0.00    +0.029 C 
ATOM     26  C   UNL     1       8.749   1.056  25.235  0.00  0.00    +0.022 C 
ATOM     27  C   UNL     1       8.057   1.656  24.002  0.00  0.00    +0.084 C 
ATOM     28  N   UNL     1       8.917   2.440  23.108  0.00  0.00    -0.305 NA
ATOM     29  C   UNL     1       9.115   3.812  23.565  0.00  0.00    +0.104 C 
ATOM     30  C   UNL     1      10.193   1.775  22.821  0.00  0.00    +0.084 C 
ATOM     31  C   UNL     1      10.939   1.317  24.077  0.00  0.00    +0.022 C 
ENDBRANCH  24  25
ENDBRANCH  23  24
ENDBRANCH  12  23
TORSDOF 5
ENDMDL
MODEL 2
REMARK VINA RESULT:      -7.1      4.059      8.906
REMARK  Name = 
REMARK  7 active torsions:
REMARK  status: ('A' for Active; 'I' for Inactive)
REMARK    1  A    between atoms: C_1  and  O_2
REMARK    2  A    between atoms: O_2  and  C_3
REMARK    3  A    between atoms: C_4  and  O_5
REMARK    4  A    between atoms: O_5  and  C_6
REMARK    5  A    between atoms: C_6  and  C_7
REMARK    6  A    between atoms: N_10  and  C_11
REMARK    7  A    between atoms: N_20  and  C_21
REMARK                            x       y       z     vdW  Elec       q    Type
REMARK                         _______ _______ _______ _____ _____    ______ ____
ROOT
ATOM      1  C   UNL     1       7.513  -2.983  26.130  0.00  0.00    +0.162 A 
ATOM      2  C   UNL     1       8.108  -1.732  25.940  0.00  0.00    +0.062 A 
ATOM      3  C   UNL     1       8.943  -1.493  24.815  0.00  0.00    +0.044 A 
ATOM      4  C   UNL     1       9.239  -2.548  23.946  0.00  0.00    +0.080 A 
ATOM      5  N   UNL     1      10.048  -2.417  22.891  0.00  0.00    -0.235 NA
ATOM      6  C   UNL     1      10.537  -1.198  22.654  0.00  0.00    +0.223 A 
ATOM      7  N   UNL     1      10.263  -0.098  23.355  0.00  0.00    -0.220 NA
ATOM      8  C   UNL     1       8.626  -3.777  24.142  0.00  0.00    +0.078 A 
ATOM      9  C   UNL     1       9.457  -0.242  24.425  0.00  0.00    +0.134 A 
ATOM     10  N   UNL     1       9.027   0.930  25.076  0.00  0.00    -0.297 N 
ATOM     11  H   UNL     1       9.284   0.998  26.051  0.00  0.00    +0.154 HD
ATOM     12  C   UNL     1       7.726  -4.001  25.187  0.00  0.00    +0.164 A 
ENDROOT
BRANCH  10  13
ATOM     13  C   UNL     1       8.624   2.136  24.467  0.00  0.00    +0.068 A 
ATOM     14  C   UNL     1       9.479   3.247  24.390  0.00  0.00    +0.027 A 
ATOM     15  C   UNL     1       9.105   4.404  23.707  0.00  0.00    +0.017 A 
ATOM     16  C   UNL     1       7.862   4.459  23.082  0.00  0.00    +0.021 A 
ATOM     17 BR   UNL     1       7.376   6.010  22.117  0.00  0.00    -0.050 Br
ATOM     18  C   UNL     1       6.985   3.383  23.161  0.00  0.00    +0.055 A 
ATOM     19  C   UNL     1       7.372   2.236  23.846  0.00  0.00    +0.145 A 
ATOM     20  F   UNL     1       6.528   1.191  23.892  0.00  0.00    -0.204 F 
ENDBRANCH  10  13
BRANCH   1  22
ATOM     21  C   UNL     1       5.492  -2.384  27.209  0.00  0.00    +0.277 C 
ATOM     22  O   UNL     1       6.629  -3.238  27.149  0.00  0.00    -0.491 OA
ENDBRANCH   1  22
BRANCH  12  23
ATOM     23  O   UNL     1       7.025  -5.166  25.365  0.00  0.00    -0.488 OA
BRANCH  23  24
ATOM     24  C   UNL     1       6.026  -5.524  24.398  0.00  0.00    +0.232 C 
BRANCH  24  25
ATOM     25  C   UNL     1       4.642  -5.137  24.963  0.00  0.00    +0.029 C 
ATOM     26  C   UNL     1       4.036  -6.210  25.880  0.00  0.00    +0.022 C 
ATOM     27  C   UNL     1       3.497  -7.434  25.126  0.00  0.00    +0.084 C 
ATOM     28  N   UNL     1       2.665  -7.143  23.952  0.00  0.00    -0.305 NA
ATOM     29  C   UNL     1       1.278  -6.843  24.295  0.00  0.00    +0.104 C 
ATOM     30  C   UNL     1       3.244  -6.108  23.088  0.00  0.00    +0.084 C 
ATOM     31  C   UNL     1       3.639  -4.834  23.842  0.00  0.00    +0.022 C 
ENDBRANCH  24  25
ENDBRANCH  23  24
ENDBRANCH  12  23
TORSDOF 5
ENDMDL
MODEL 3
REMARK VINA RESULT:      -6.9      4.057      8.931
REMARK  Name = 
REMARK  7 active torsions:
REMARK  status: ('A' for Active; 'I' for Inactive)
REMARK    1  A    between atoms: C_1  and  O_2
REMARK    2  A    between atoms: O_2  and  C_3
REMARK    3  A    between atoms: C_4  and  O_5
REMARK    4  A    between atoms: O_5  and  C_6
REMARK    5  A    between atoms: C_6  and  C_7
REMARK    6  A    between atoms: N_10  and  C_11
REMARK    7  A    between atoms: N_20  and  C_21
REMARK                            x       y       z     vdW  Elec       q    Type
REMARK                         _______ _______ _______ _____ _____    ______ ____
ROOT
ATOM      1  C   UNL     1       8.917  -1.749  25.144  0.00  0.00    +0.162 A 
ATOM      2  C   UNL     1       8.962  -0.369  25.364  0.00  0.00    +0.062 A 
ATOM      3  C   UNL     1       9.340   0.518  24.319  0.00  0.00    +0.044 A 
ATOM      4  C   UNL     1       9.756  -0.009  23.093  0.00  0.00    +0.080 A 
ATOM      5  N   UNL     1      10.166   0.753  22.075  0.00  0.00    -0.235 NA
ATOM      6  C   UNL     1      10.115   2.074  22.253  0.00  0.00    +0.223 A 
ATOM      7  N   UNL     1       9.660   2.698  23.339  0.00  0.00    -0.220 NA
ATOM      8  C   UNL     1       9.688  -1.379  22.887  0.00  0.00    +0.078 A 
ATOM      9  C   UNL     1       9.261   1.922  24.365  0.00  0.00    +0.134 A 
ATOM     10  N   UNL     1       8.628   2.557  25.451  0.00  0.00    -0.297 N 
ATOM     11  H   UNL     1       9.085   2.436  26.344  0.00  0.00    +0.154 HD
ATOM     12  C   UNL     1       9.226  -2.257  23.872  0.00  0.00    +0.164 A 
ENDROOT
BRANCH  10  13
ATOM     13  C   UNL     1       7.683   3.601  25.386  0.00  0.00    +0.068 A 
ATOM     14  C   UNL     1       8.023   4.926  25.704  0.00  0.00    +0.027 A 
ATOM     15  C   UNL     1       7.107   5.966  25.551  0.00  0.00    +0.017 A 
ATOM     16  C   UNL     1       5.832   5.690  25.065  0.00  0.00    +0.021 A 
ATOM     17 BR   UNL     1       4.607   7.108  24.812  0.00  0.00    -0.050 Br
ATOM     18  C   UNL     1       5.459   4.385  24.762  0.00  0.00    +0.055 A 
ATOM     19  C   UNL     1       6.384   3.358  24.922  0.00  0.00    +0.145 A 
ATOM     20  F   UNL     1       6.023   2.103  24.600  0.00  0.00    -0.204 F 
ENDBRANCH  10  13
BRANCH   1  22
ATOM     21  C   UNL     1       7.228  -2.320  26.702  0.00  0.00    +0.277 C 
ATOM     22  O   UNL     1       8.473  -2.639  26.091  0.00  0.00    -0.491 OA
ENDBRANCH   1  22
BRANCH  12  23
ATOM     23  O   UNL     1       9.052  -3.605  23.684  0.00  0.00    -0.488 OA
BRANCH  23  24
ATOM     24  C   UNL     1       8.026  -4.048  22.783  0.00  0.00    +0.232 C 
BRANCH  24  25
ATOM     25  C   UNL     1       7.312  -5.260  23.419  0.00  0.00    +0.029 C 
ATOM     26  C   UNL     1       6.745  -6.245  22.385  0.00  0.00    +0.022 C 
ATOM     27  C   UNL     1       5.477  -5.740  21.681  0.00  0.00    +0.084 C 
ATOM     28  N   UNL     1       4.447  -5.167  22.556  0.00  0.00    -0.305 NA
ATOM     29  C   UNL     1       3.601  -6.181  23.179  0.00  0.00    +0.104 C 
ATOM     30  C   UNL     1       4.999  -4.238  23.549  0.00  0.00    +0.084 C 
ATOM     31  C   UNL     1       6.170  -4.820  24.345  0.00  0.00    +0.022 C 
ENDBRANCH  24  25
ENDBRANCH  23  24
ENDBRANCH  12  23
TORSDOF 5
ENDMDL
MODEL 4
REMARK VINA RESULT:      -6.8      4.394      9.187
REMARK  Name = 
REMARK  7 active torsions:
REMARK  status: ('A' for Active; 'I' for Inactive)
REMARK    1  A    between atoms: C_1  and  O_2
REMARK    2  A    between atoms: O_2  and  C_3
REMARK    3  A    between atoms: C_4  and  O_5
REMARK    4  A    between atoms: O_5  and  C_6
REMARK    5  A    between atoms: C_6  and  C_7
REMARK    6  A    between atoms: N_10  and  C_11
REMARK    7  A    between atoms: N_20  and  C_21
REMARK                            x       y       z     vdW  Elec       q    Type
REMARK                         _______ _______ _______ _____ _____    ______ ____
ROOT
ATOM      1  C   UNL     1       8.051  -3.021  25.470  0.00  0.00    +0.162 A 
ATOM      2  C   UNL     1       8.676  -1.781  25.312  0.00  0.00    +0.062 A 
ATOM      3  C   UNL     1       9.063  -1.325  24.022  0.00  0.00    +0.044 A 
ATOM      4  C   UNL     1       8.894  -2.169  22.920  0.00  0.00    +0.080 A 
ATOM      5  N   UNL     1       9.269  -1.834  21.682  0.00  0.00    -0.235 NA
ATOM      6  C   UNL     1       9.776  -0.611  21.518  0.00  0.00    +0.223 A 
ATOM      7  N   UNL     1       9.909   0.314  22.468  0.00  0.00    -0.220 NA
ATOM      8  C   UNL     1       8.256  -3.388  23.094  0.00  0.00    +0.078 A 
ATOM      9  C   UNL     1       9.541  -0.038  23.716  0.00  0.00    +0.134 A 
ATOM     10  N   UNL     1       9.520   0.974  24.695  0.00  0.00    -0.297 N 
ATOM     11  H   UNL     1      10.122   0.812  25.491  0.00  0.00    +0.154 HD
ATOM     12  C   UNL     1       7.782  -3.809  24.339  0.00  0.00    +0.164 A 
ENDROOT
BRANCH  10  13
ATOM     13  C   UNL     1       9.066   2.299  24.534  0.00  0.00    +0.068 A 
ATOM     14  C   UNL     1       7.771   2.687  24.910  0.00  0.00    +0.027 A 
ATOM     15  C   UNL     1       7.361   4.018  24.831  0.00  0.00    +0.017 A 
ATOM     16  C   UNL     1       8.255   4.984  24.377  0.00  0.00    +0.021 A 
ATOM     17 BR   UNL     1       7.714   6.794  24.315  0.00  0.00    -0.050 Br
ATOM     18  C   UNL     1       9.538   4.626  23.976  0.00  0.00    +0.055 A 
ATOM     19  C   UNL     1       9.931   3.294  24.060  0.00  0.00    +0.145 A 
ATOM     20  F   UNL     1      11.182   2.963  23.697  0.00  0.00    -0.204 F 
ENDBRANCH  10  13
BRANCH   1  22
ATOM     21  C   UNL     1       6.346  -2.897  27.109  0.00  0.00    +0.277 C 
ATOM     22  O   UNL     1       7.578  -3.467  26.679  0.00  0.00    -0.491 OA
ENDBRANCH   1  22
BRANCH  12  23
ATOM     23  O   UNL     1       7.063  -4.959  24.543  0.00  0.00    -0.488 OA
BRANCH  23  24
ATOM     24  C   UNL     1       5.933  -5.225  23.698  0.00  0.00    +0.232 C 
BRANCH  24  25
ATOM     25  C   UNL     1       4.649  -4.872  24.479  0.00  0.00    +0.029 C 
ATOM     26  C   UNL     1       4.370  -5.821  25.654  0.00  0.00    +0.022 C 
ATOM     27  C   UNL     1       3.848  -7.200  25.224  0.00  0.00    +0.084 C 
ATOM     28  N   UNL     1       2.775  -7.191  24.222  0.00  0.00    -0.305 NA
ATOM     29  C   UNL     1       1.455  -6.962  24.803  0.00  0.00    +0.104 C 
ATOM     30  C   UNL     1       3.044  -6.272  23.110  0.00  0.00    +0.084 C 
ATOM     31  C   UNL     1       3.417  -4.858  23.563  0.00  0.00    +0.022 C 
ENDBRANCH  24  25
ENDBRANCH  23  24
ENDBRANCH  12  23
TORSDOF 5
ENDMDL
MODEL 5
REMARK VINA RESULT:      -6.7      2.330      3.219
REMARK  Name = 
REMARK  7 active torsions:
REMARK  status: ('A' for Active; 'I' for Inactive)
REMARK    1  A    between atoms: C_1  and  O_2
REMARK    2  A    between atoms: O_2  and  C_3
REMARK    3  A    between atoms: C_4  and  O_5
REMARK    4  A    between atoms: O_5  and  C_6
REMARK    5  A    between atoms: C_6  and  C_7
REMARK    6  A    between atoms: N_10  and  C_11
REMARK    7  A    between atoms: N_20  and  C_21
REMARK                            x       y       z     vdW  Elec       q    Type
REMARK                         _______ _______ _______ _____ _____    ______ ____
ROOT
ATOM      1  C   UNL     1       8.287  -1.319  23.475  0.00  0.00    +0.162 A 
ATOM      2  C   UNL     1       7.695  -2.586  23.465  0.00  0.00    +0.062 A 
ATOM      3  C   UNL     1       7.685  -3.388  24.638  0.00  0.00    +0.044 A 
ATOM      4  C   UNL     1       8.354  -2.938  25.781  0.00  0.00    +0.080 A 
ATOM      5  N   UNL     1       8.428  -3.649  26.909  0.00  0.00    -0.235 NA
ATOM      6  C   UNL     1       7.779  -4.815  26.929  0.00  0.00    +0.223 A 
ATOM      7  N   UNL     1       7.038  -5.313  25.940  0.00  0.00    -0.220 NA
ATOM      8  C   UNL     1       8.920  -1.672  25.777  0.00  0.00    +0.078 A 
ATOM      9  C   UNL     1       6.981  -4.596  24.801  0.00  0.00    +0.134 A 
ATOM     10  N   UNL     1       6.076  -5.023  23.810  0.00  0.00    -0.297 N 
ATOM     11  H   UNL     1       6.494  -5.251  22.918  0.00  0.00    +0.154 HD
ATOM     12  C   UNL     1       8.854  -0.830  24.663  0.00  0.00    +0.164 A 
ENDROOT
BRANCH  10  13
ATOM     13  C   UNL     1       4.768  -5.506  24.011  0.00  0.00    +0.068 A 
ATOM     14  C   UNL     1       4.488  -6.881  24.067  0.00  0.00    +0.027 A 
ATOM     15  C   UNL     1       3.206  -7.349  24.356  0.00  0.00    +0.017 A 
ATOM     16  C   UNL     1       2.183  -6.437  24.602  0.00  0.00    +0.021 A 
ATOM     17 BR   UNL     1       0.458  -7.073  25.041  0.00  0.00    -0.050 Br
ATOM     18  C   UNL     1       2.425  -5.069  24.532  0.00  0.00    +0.055 A 
ATOM     19  C   UNL     1       3.709  -4.618  24.241  0.00  0.00    +0.145 A 
ATOM     20  F   UNL     1       3.938  -3.294  24.203  0.00  0.00    -0.204 F 
ENDBRANCH  10  13
BRANCH   1  22
ATOM     21  C   UNL     1       9.332  -0.573  21.486  0.00  0.00    +0.277 C 
ATOM     22  O   UNL     1       8.244  -0.469  22.397  0.00  0.00    -0.491 OA
ENDBRANCH   1  22
BRANCH  12  23
ATOM     23  O   UNL     1       9.314   0.462  24.644  0.00  0.00    -0.488 OA
BRANCH  23  24
ATOM     24  C   UNL     1       8.438   1.513  25.082  0.00  0.00    +0.232 C 
BRANCH  24  25
ATOM     25  C   UNL     1       9.005   2.858  24.580  0.00  0.00    +0.029 C 
ATOM     26  C   UNL     1       8.209   4.076  25.071  0.00  0.00    +0.022 C 
ATOM     27  C   UNL     1       6.862   4.263  24.357  0.00  0.00    +0.084 C 
ATOM     28  N   UNL     1       6.896   4.149  22.894  0.00  0.00    -0.305 NA
ATOM     29  C   UNL     1       7.325   5.379  22.235  0.00  0.00    +0.104 C 
ATOM     30  C   UNL     1       7.670   2.990  22.433  0.00  0.00    +0.084 C 
ATOM     31  C   UNL     1       9.070   2.907  23.048  0.00  0.00    +0.022 C 
ENDBRANCH  24  25
ENDBRANCH  23  24
ENDBRANCH  12  23
TORSDOF 5
ENDMDL
MODEL 6
REMARK VINA RESULT:      -6.6      2.832      4.750
REMARK  Name = 
REMARK  7 active torsions:
REMARK  status: ('A' for Active; 'I' for Inactive)
REMARK    1  A    between atoms: C_1  and  O_2
REMARK    2  A    between atoms: O_2  and  C_3
REMARK    3  A    between atoms: C_4  and  O_5
REMARK    4  A    between atoms: O_5  and  C_6
REMARK    5  A    between atoms: C_6  and  C_7
REMARK    6  A    between atoms: N_10  and  C_11
REMARK    7  A    between atoms: N_20  and  C_21
REMARK                            x       y       z     vdW  Elec       q    Type
REMARK                         _______ _______ _______ _____ _____    ______ ____
ROOT
ATOM      1  C   UNL     1       9.597   0.395  23.021  0.00  0.00    +0.162 A 
ATOM      2  C   UNL     1       9.198  -0.944  23.036  0.00  0.00    +0.062 A 
ATOM      3  C   UNL     1       8.915  -1.601  24.264  0.00  0.00    +0.044 A 
ATOM      4  C   UNL     1       9.127  -0.921  25.467  0.00  0.00    +0.080 A 
ATOM      5  N   UNL     1       8.925  -1.480  26.664  0.00  0.00    -0.235 NA
ATOM      6  C   UNL     1       8.450  -2.726  26.674  0.00  0.00    +0.223 A 
ATOM      7  N   UNL     1       8.128  -3.448  25.601  0.00  0.00    -0.220 NA
ATOM      8  C   UNL     1       9.506   0.412  25.432  0.00  0.00    +0.078 A 
ATOM      9  C   UNL     1       8.347  -2.882  24.399  0.00  0.00    +0.134 A 
ATOM     10  N   UNL     1       7.862  -3.561  23.264  0.00  0.00    -0.297 N 
ATOM     11  H   UNL     1       8.566  -3.815  22.584  0.00  0.00    +0.154 HD
ATOM     12  C   UNL     1       9.695   1.101  24.231  0.00  0.00    +0.164 A 
ENDROOT
BRANCH  10  13
ATOM     13  C   UNL     1       6.627  -4.227  23.141  0.00  0.00    +0.068 A 
ATOM     14  C   UNL     1       6.552  -5.616  22.956  0.00  0.00    +0.027 A 
ATOM     15  C   UNL     1       5.324  -6.279  22.926  0.00  0.00    +0.017 A 
ATOM     16  C   UNL     1       4.149  -5.551  23.090  0.00  0.00    +0.021 A 
ATOM     17 BR   UNL     1       2.489  -6.456  23.097  0.00  0.00    -0.050 Br
ATOM     18  C   UNL     1       4.191  -4.171  23.254  0.00  0.00    +0.055 A 
ATOM     19  C   UNL     1       5.422  -3.525  23.280  0.00  0.00    +0.145 A 
ATOM     20  F   UNL     1       5.453  -2.193  23.467  0.00  0.00    -0.204 F 
ENDBRANCH  10  13
BRANCH   1  22
ATOM     21  C   UNL     1       8.653   1.243  21.021  0.00  0.00    +0.277 C 
ATOM     22  O   UNL     1       9.795   1.100  21.859  0.00  0.00    -0.491 OA
ENDBRANCH   1  22
BRANCH  12  23
ATOM     23  O   UNL     1       9.976   2.441  24.145  0.00  0.00    -0.488 OA
BRANCH  23  24
ATOM     24  C   UNL     1       8.952   3.385  24.494  0.00  0.00    +0.232 C 
BRANCH  24  25
ATOM     25  C   UNL     1       8.720   4.317  23.285  0.00  0.00    +0.029 C 
ATOM     26  C   UNL     1       8.983   5.798  23.599  0.00  0.00    +0.022 C 
ATOM     27  C   UNL     1       7.883   6.456  24.445  0.00  0.00    +0.084 C 
ATOM     28  N   UNL     1       6.505   6.195  24.012  0.00  0.00    -0.305 NA
ATOM     29  C   UNL     1       6.075   7.065  22.922  0.00  0.00    +0.104 C 
ATOM     30  C   UNL     1       6.265   4.781  23.702  0.00  0.00    +0.084 C 
ATOM     31  C   UNL     1       7.293   4.185  22.736  0.00  0.00    +0.022 C 
ENDBRANCH  24  25
ENDBRANCH  23  24
ENDBRANCH  12  23
TORSDOF 5
ENDMDL
MODEL 7
REMARK VINA RESULT:      -6.6      4.391      8.463
REMARK  Name = 
REMARK  7 active torsions:
REMARK  status: ('A' for Active; 'I' for Inactive)
REMARK    1  A    between atoms: C_1  and  O_2
REMARK    2  A    between atoms: O_2  and  C_3
REMARK    3  A    between atoms: C_4  and  O_5
REMARK    4  A    between atoms: O_5  and  C_6
REMARK    5  A    between atoms: C_6  and  C_7
REMARK    6  A    between atoms: N_10  and  C_11
REMARK    7  A    between atoms: N_20  and  C_21
REMARK                            x       y       z     vdW  Elec       q    Type
REMARK                         _______ _______ _______ _____ _____    ______ ____
ROOT
ATOM      1  C   UNL     1       6.056  -6.021  25.880  0.00  0.00    +0.162 A 
ATOM      2  C   UNL     1       6.979  -5.184  25.247  0.00  0.00    +0.062 A 
ATOM      3  C   UNL     1       6.770  -4.759  23.907  0.00  0.00    +0.044 A 
ATOM      4  C   UNL     1       5.677  -5.261  23.193  0.00  0.00    +0.080 A 
ATOM      5  N   UNL     1       5.433  -4.945  21.918  0.00  0.00    -0.235 NA
ATOM      6  C   UNL     1       6.260  -4.069  21.346  0.00  0.00    +0.223 A 
ATOM      7  N   UNL     1       7.283  -3.457  21.943  0.00  0.00    -0.220 NA
ATOM      8  C   UNL     1       4.762  -6.077  23.843  0.00  0.00    +0.078 A 
ATOM      9  C   UNL     1       7.529  -3.791  23.224  0.00  0.00    +0.134 A 
ATOM     10  N   UNL     1       8.497  -3.038  23.916  0.00  0.00    -0.297 N 
ATOM     11  H   UNL     1       9.280  -3.570  24.273  0.00  0.00    +0.154 HD
ATOM     12  C   UNL     1       4.901  -6.425  25.190  0.00  0.00    +0.164 A 
ENDROOT
BRANCH  10  13
ATOM     13  C   UNL     1       8.688  -1.643  23.853  0.00  0.00    +0.068 A 
ATOM     14  C   UNL     1       7.847  -0.751  24.538  0.00  0.00    +0.027 A 
ATOM     15  C   UNL     1       8.097   0.621  24.544  0.00  0.00    +0.017 A 
ATOM     16  C   UNL     1       9.206   1.118  23.864  0.00  0.00    +0.021 A 
ATOM     17 BR   UNL     1       9.570   2.973  23.912  0.00  0.00    -0.050 Br
ATOM     18  C   UNL     1      10.044   0.261  23.159  0.00  0.00    +0.055 A 
ATOM     19  C   UNL     1       9.780  -1.105  23.162  0.00  0.00    +0.145 A 
ATOM     20  F   UNL     1      10.613  -1.927  22.500  0.00  0.00    -0.204 F 
ENDBRANCH  10  13
BRANCH   1  22
ATOM     21  C   UNL     1       6.401  -5.324  28.117  0.00  0.00    +0.277 C 
ATOM     22  O   UNL     1       6.165  -6.386  27.199  0.00  0.00    -0.491 OA
ENDBRANCH   1  22
BRANCH  12  23
ATOM     23  O   UNL     1       3.977  -7.149  25.899  0.00  0.00    -0.488 OA
BRANCH  23  24
ATOM     24  C   UNL     1       2.583  -6.859  25.712  0.00  0.00    +0.232 C 
BRANCH  24  25
ATOM     25  C   UNL     1       1.893  -6.884  27.092  0.00  0.00    +0.029 C 
ATOM     26  C   UNL     1       0.474  -6.295  27.075  0.00  0.00    +0.022 C 
ATOM     27  C   UNL     1       0.443  -4.762  26.975  0.00  0.00    +0.084 C 
ATOM     28  N   UNL     1       1.353  -4.046  27.877  0.00  0.00    -0.305 NA
ATOM     29  C   UNL     1       0.814  -3.889  29.225  0.00  0.00    +0.104 C 
ATOM     30  C   UNL     1       2.702  -4.624  27.898  0.00  0.00    +0.084 C 
ATOM     31  C   UNL     1       2.716  -6.134  28.149  0.00  0.00    +0.022 C 
ENDBRANCH  24  25
ENDBRANCH  23  24
ENDBRANCH  12  23
TORSDOF 5
ENDMDL
MODEL 8
REMARK VINA RESULT:      -6.6      4.012      8.671
REMARK  Name = 
REMARK  7 active torsions:
REMARK  status: ('A' for Active; 'I' for Inactive)
REMARK    1  A    between atoms: C_1  and  O_2
REMARK    2  A    between atoms: O_2  and  C_3
REMARK    3  A    between atoms: C_4  and  O_5
REMARK    4  A    between atoms: O_5  and  C_6
REMARK    5  A    between atoms: C_6  and  C_7
REMARK    6  A    between atoms: N_10  and  C_11
REMARK    7  A    between atoms: N_20  and  C_21
REMARK                            x       y       z     vdW  Elec       q    Type
REMARK                         _______ _______ _______ _____ _____    ______ ____
ROOT
ATOM      1  C   UNL     1       6.814  -5.210  26.425  0.00  0.00    +0.162 A 
ATOM      2  C   UNL     1       7.752  -4.274  25.978  0.00  0.00    +0.062 A 
ATOM      3  C   UNL     1       7.795  -3.891  24.610  0.00  0.00    +0.044 A 
ATOM      4  C   UNL     1       6.949  -4.526  23.695  0.00  0.00    +0.080 A 
ATOM      5  N   UNL     1       6.957  -4.254  22.387  0.00  0.00    -0.235 NA
ATOM      6  C   UNL     1       7.783  -3.290  21.977  0.00  0.00    +0.223 A 
ATOM      7  N   UNL     1       8.574  -2.555  22.759  0.00  0.00    -0.220 NA
ATOM      8  C   UNL     1       6.015  -5.439  24.160  0.00  0.00    +0.078 A 
ATOM      9  C   UNL     1       8.570  -2.845  24.074  0.00  0.00    +0.134 A 
ATOM     10  N   UNL     1       9.270  -1.976  24.933  0.00  0.00    -0.297 N 
ATOM     11  H   UNL     1      10.010  -2.407  25.469  0.00  0.00    +0.154 HD
ATOM     12  C   UNL     1       5.894  -5.756  25.516  0.00  0.00    +0.164 A 
ENDROOT
BRANCH  10  13
ATOM     13  C   UNL     1       9.308  -0.569  24.863  0.00  0.00    +0.068 A 
ATOM     14  C   UNL     1      10.423   0.116  24.352  0.00  0.00    +0.027 A 
ATOM     15  C   UNL     1      10.416   1.503  24.204  0.00  0.00    +0.017 A 
ATOM     16  C   UNL     1       9.281   2.225  24.561  0.00  0.00    +0.021 A 
ATOM     17 BR   UNL     1       9.256   4.099  24.314  0.00  0.00    -0.050 Br
ATOM     18  C   UNL     1       8.170   1.576  25.091  0.00  0.00    +0.055 A 
ATOM     19  C   UNL     1       8.192   0.193  25.234  0.00  0.00    +0.145 A 
ATOM     20  F   UNL     1       7.103  -0.427  25.720  0.00  0.00    -0.204 F 
ENDBRANCH  10  13
BRANCH   1  22
ATOM     21  C   UNL     1       5.844  -4.684  28.520  0.00  0.00    +0.277 C 
ATOM     22  O   UNL     1       6.672  -5.547  27.749  0.00  0.00    -0.491 OA
ENDBRANCH   1  22
BRANCH  12  23
ATOM     23  O   UNL     1       4.925  -6.578  26.033  0.00  0.00    -0.488 OA
BRANCH  23  24
ATOM     24  C   UNL     1       3.585  -6.076  26.149  0.00  0.00    +0.232 C 
BRANCH  24  25
ATOM     25  C   UNL     1       2.635  -7.061  25.435  0.00  0.00    +0.029 C 
ATOM     26  C   UNL     1       3.064  -7.388  23.996  0.00  0.00    +0.022 C 
ATOM     27  C   UNL     1       2.797  -6.250  22.999  0.00  0.00    +0.084 C 
ATOM     28  N   UNL     1       1.467  -5.633  23.078  0.00  0.00    -0.305 NA
ATOM     29  C   UNL     1       0.443  -6.391  22.365  0.00  0.00    +0.104 C 
ATOM     30  C   UNL     1       1.059  -5.337  24.456  0.00  0.00    +0.084 C 
ATOM     31  C   UNL     1       1.194  -6.534  25.403  0.00  0.00    +0.022 C 
ENDBRANCH  24  25
ENDBRANCH  23  24
ENDBRANCH  12  23
TORSDOF 5
ENDMDL
MODEL 9
REMARK VINA RESULT:      -6.5      2.362      3.949
REMARK  Name = 
REMARK  7 active torsions:
REMARK  status: ('A' for Active; 'I' for Inactive)
REMARK    1  A    between atoms: C_1  and  O_2
REMARK    2  A    between atoms: O_2  and  C_3
REMARK    3  A    between atoms: C_4  and  O_5
REMARK    4  A    between atoms: O_5  and  C_6
REMARK    5  A    between atoms: C_6  and  C_7
REMARK    6  A    between atoms: N_10  and  C_11
REMARK    7  A    between atoms: N_20  and  C_21
REMARK                            x       y       z     vdW  Elec       q    Type
REMARK                         _______ _______ _______ _____ _____    ______ ____
ROOT
ATOM      1  C   UNL     1       7.884  -1.003  22.943  0.00  0.00    +0.162 A 
ATOM      2  C   UNL     1       7.416  -2.113  23.653  0.00  0.00    +0.062 A 
ATOM      3  C   UNL     1       6.364  -1.975  24.598  0.00  0.00    +0.044 A 
ATOM      4  C   UNL     1       5.861  -0.701  24.881  0.00  0.00    +0.080 A 
ATOM      5  N   UNL     1       4.903  -0.481  25.785  0.00  0.00    -0.235 NA
ATOM      6  C   UNL     1       4.388  -1.553  26.391  0.00  0.00    +0.223 A 
ATOM      7  N   UNL     1       4.721  -2.821  26.148  0.00  0.00    -0.220 NA
ATOM      8  C   UNL     1       6.326   0.385  24.154  0.00  0.00    +0.078 A 
ATOM      9  C   UNL     1       5.697  -3.032  25.245  0.00  0.00    +0.134 A 
ATOM     10  N   UNL     1       5.945  -4.363  24.858  0.00  0.00    -0.297 N 
ATOM     11  H   UNL     1       6.885  -4.693  25.034  0.00  0.00    +0.154 HD
ATOM     12  C   UNL     1       7.291   0.252  23.152  0.00  0.00    +0.164 A 
ENDROOT
BRANCH  10  13
ATOM     13  C   UNL     1       4.985  -5.365  24.609  0.00  0.00    +0.068 A 
ATOM     14  C   UNL     1       4.787  -6.435  25.496  0.00  0.00    +0.027 A 
ATOM     15  C   UNL     1       3.774  -7.371  25.287  0.00  0.00    +0.017 A 
ATOM     16  C   UNL     1       2.937  -7.240  24.183  0.00  0.00    +0.021 A 
ATOM     17 BR   UNL     1       1.535  -8.482  23.928  0.00  0.00    -0.050 Br
ATOM     18  C   UNL     1       3.124  -6.203  23.275  0.00  0.00    +0.055 A 
ATOM     19  C   UNL     1       4.139  -5.278  23.496  0.00  0.00    +0.145 A 
ATOM     20  F   UNL     1       4.293  -4.264  22.628  0.00  0.00    -0.204 F 
ENDBRANCH  10  13
BRANCH   1  22
ATOM     21  C   UNL     1      10.144  -1.446  22.391  0.00  0.00    +0.277 C 
ATOM     22  O   UNL     1       8.834  -1.098  21.956  0.00  0.00    -0.491 OA
ENDBRANCH   1  22
BRANCH  12  23
ATOM     23  O   UNL     1       7.712   1.278  22.345  0.00  0.00    -0.488 OA
BRANCH  23  24
ATOM     24  C   UNL     1       6.913   2.469  22.271  0.00  0.00    +0.232 C 
BRANCH  24  25
ATOM     25  C   UNL     1       7.847   3.690  22.422  0.00  0.00    +0.029 C 
ATOM     26  C   UNL     1       8.994   3.460  23.418  0.00  0.00    +0.022 C 
ATOM     27  C   UNL     1       8.550   3.491  24.888  0.00  0.00    +0.084 C 
ATOM     28  N   UNL     1       7.673   4.607  25.266  0.00  0.00    -0.305 NA
ATOM     29  C   UNL     1       8.405   5.839  25.544  0.00  0.00    +0.104 C 
ATOM     30  C   UNL     1       6.589   4.827  24.302  0.00  0.00    +0.084 C 
ATOM     31  C   UNL     1       7.073   4.943  22.854  0.00  0.00    +0.022 C 
ENDBRANCH  24  25
ENDBRANCH  23  24
ENDBRANCH  12  23
TORSDOF 5
ENDMDL
