MODEL 1
REMARK VINA RESULT:      -5.9      0.000      0.000
REMARK  Name = 
REMARK  11 active torsions:
REMARK  status: ('A' for Active; 'I' for Inactive)
REMARK    1  A    between atoms: C_2  and  C_3
REMARK    2  A    between atoms: C_2  and  O_4
REMARK    3  A    between atoms: C_2  and  C_5
REMARK    4  A    between atoms: C_5  and  C_7
REMARK    5  A    between atoms: C_5  and  N_13
REMARK    6  A    between atoms: C_7  and  C_8
REMARK    7  A    between atoms: C_8  and  C_9
REMARK    8  A    between atoms: C_9  and  C_10
REMARK    9  A    between atoms: C_10  and  C_11
REMARK   10  A    between atoms: C_11  and  C_12
REMARK   11  A    between atoms: C_17  and  N_18
REMARK                            x       y       z     vdW  Elec       q    Type
REMARK                         _______ _______ _______ _____ _____    ______ ____
ROOT
ATOM      1  N   UNL     1       8.368  -2.820  24.096  0.00  0.00    -0.309 N 
ATOM      2  C   UNL     1       7.339  -3.183  23.264  0.00  0.00    +0.166 A 
ATOM      3  C   UNL     1       7.446  -4.563  23.151  0.00  0.00    +0.147 A 
ATOM      4  C   UNL     1       6.528  -5.204  22.303  0.00  0.00    +0.147 A 
ATOM      5  N   UNL     1       5.587  -4.455  21.685  0.00  0.00    -0.219 NA
ATOM      6  C   UNL     1       5.601  -3.118  21.889  0.00  0.00    +0.225 A 
ATOM      7  N   UNL     1       8.479  -5.043  23.926  0.00  0.00    -0.231 NA
ATOM      8  N   UNL     1       6.438  -2.391  22.659  0.00  0.00    -0.216 NA
ATOM      9  C   UNL     1       9.015  -3.970  24.468  0.00  0.00    +0.202 A 
ENDROOT
BRANCH   4  10
ATOM     10  N   UNL     1       6.539  -6.574  22.074  0.00  0.00    -0.341 N 
ATOM     11  H   UNL     1       6.256  -6.814  21.134  0.00  0.00    +0.144 HD
ATOM     12  H   UNL     1       6.155  -7.112  22.842  0.00  0.00    +0.144 HD
ENDBRANCH   4  10
BRANCH   1  13
ATOM     13  C   UNL     1       8.760  -1.451  24.440  0.00  0.00    +0.118 C 
BRANCH  13  14
ATOM     14  C   UNL     1       8.781  -1.250  25.980  0.00  0.00    +0.134 C 
ATOM     15  C   UNL     1       7.386  -1.149  26.591  0.00  0.00    +0.040 C 
BRANCH  14  16
ATOM     16  O   UNL     1       9.479  -0.048  26.323  0.00  0.00    -0.390 OA
ATOM     17  H   UNL     1       9.205   0.643  25.692  0.00  0.00    +0.210 HD
ENDBRANCH  14  16
ENDBRANCH  13  14
BRANCH  13  18
ATOM     18  C   UNL     1      10.092  -1.054  23.765  0.00  0.00    +0.028 C 
BRANCH  18  19
ATOM     19  C   UNL     1      10.163  -1.402  22.274  0.00  0.00    +0.002 C 
BRANCH  19  20
ATOM     20  C   UNL     1       9.393  -0.371  21.445  0.00  0.00    +0.000 C 
BRANCH  20  21
ATOM     21  C   UNL     1       9.710   1.055  21.894  0.00  0.00    -0.000 C 
BRANCH  21  22
ATOM     22  C   UNL     1       8.488   1.961  21.761  0.00  0.00    -0.003 C 
ATOM     23  C   UNL     1       7.294   1.392  22.509  0.00  0.00    +0.004 C 
ENDBRANCH  21  22
ENDBRANCH  20  21
ENDBRANCH  19  20
ENDBRANCH  18  19
ENDBRANCH  13  18
ENDBRANCH   1  13
TORSDOF 9
ENDMDL
MODEL 2
REMARK VINA RESULT:      -5.4      3.047      5.941
REMARK  Name = 
REMARK  11 active torsions:
REMARK  status: ('A' for Active; 'I' for Inactive)
REMARK    1  A    between atoms: C_2  and  C_3
REMARK    2  A    between atoms: C_2  and  O_4
REMARK    3  A    between atoms: C_2  and  C_5
REMARK    4  A    between atoms: C_5  and  C_7
REMARK    5  A    between atoms: C_5  and  N_13
REMARK    6  A    between atoms: C_7  and  C_8
REMARK    7  A    between atoms: C_8  and  C_9
REMARK    8  A    between atoms: C_9  and  C_10
REMARK    9  A    between atoms: C_10  and  C_11
REMARK   10  A    between atoms: C_11  and  C_12
REMARK   11  A    between atoms: C_17  and  N_18
REMARK                            x       y       z     vdW  Elec       q    Type
REMARK                         _______ _______ _______ _____ _____    ______ ____
ROOT
ATOM      1  N   UNL     1       8.815  -1.911  23.255  0.00  0.00    -0.309 N 
ATOM      2  C   UNL     1       8.279  -0.697  22.907  0.00  0.00    +0.166 A 
ATOM      3  C   UNL     1       9.355   0.042  22.434  0.00  0.00    +0.147 A 
ATOM      4  C   UNL     1       9.095   1.366  22.047  0.00  0.00    +0.147 A 
ATOM      5  N   UNL     1       7.824   1.824  22.123  0.00  0.00    -0.219 NA
ATOM      6  C   UNL     1       6.874   0.990  22.603  0.00  0.00    +0.225 A 
ATOM      7  N   UNL     1      10.511  -0.707  22.445  0.00  0.00    -0.231 NA
ATOM      8  N   UNL     1       7.004  -0.286  23.022  0.00  0.00    -0.216 NA
ATOM      9  C   UNL     1      10.152  -1.866  22.952  0.00  0.00    +0.202 A 
ENDROOT
BRANCH   4  10
ATOM     10  N   UNL     1      10.081   2.227  21.584  0.00  0.00    -0.341 N 
ATOM     11  H   UNL     1      10.891   1.737  21.230  0.00  0.00    +0.144 HD
ATOM     12  H   UNL     1      10.232   3.027  22.188  0.00  0.00    +0.144 HD
ENDBRANCH   4  10
BRANCH   1  13
ATOM     13  C   UNL     1       8.109  -3.010  23.917  0.00  0.00    +0.118 C 
BRANCH  13  14
ATOM     14  C   UNL     1       7.470  -3.968  22.875  0.00  0.00    +0.134 C 
ATOM     15  C   UNL     1       5.945  -3.889  22.843  0.00  0.00    +0.040 C 
BRANCH  14  16
ATOM     16  O   UNL     1       7.814  -5.328  23.160  0.00  0.00    -0.390 OA
ATOM     17  H   UNL     1       8.778  -5.366  23.302  0.00  0.00    +0.210 HD
ENDBRANCH  14  16
ENDBRANCH  13  14
BRANCH  13  18
ATOM     18  C   UNL     1       9.020  -3.745  24.927  0.00  0.00    +0.028 C 
BRANCH  18  19
ATOM     19  C   UNL     1       8.464  -3.782  26.355  0.00  0.00    +0.002 C 
BRANCH  19  20
ATOM     20  C   UNL     1       8.126  -5.218  26.762  0.00  0.00    +0.000 C 
BRANCH  20  21
ATOM     21  C   UNL     1       6.657  -5.353  27.160  0.00  0.00    -0.000 C 
BRANCH  21  22
ATOM     22  C   UNL     1       5.824  -5.924  26.014  0.00  0.00    -0.003 C 
ATOM     23  C   UNL     1       4.687  -6.788  26.534  0.00  0.00    +0.004 C 
ENDBRANCH  21  22
ENDBRANCH  20  21
ENDBRANCH  19  20
ENDBRANCH  18  19
ENDBRANCH  13  18
ENDBRANCH   1  13
TORSDOF 9
ENDMDL
MODEL 3
REMARK VINA RESULT:      -5.4      2.732      5.480
REMARK  Name = 
REMARK  11 active torsions:
REMARK  status: ('A' for Active; 'I' for Inactive)
REMARK    1  A    between atoms: C_2  and  C_3
REMARK    2  A    between atoms: C_2  and  O_4
REMARK    3  A    between atoms: C_2  and  C_5
REMARK    4  A    between atoms: C_5  and  C_7
REMARK    5  A    between atoms: C_5  and  N_13
REMARK    6  A    between atoms: C_7  and  C_8
REMARK    7  A    between atoms: C_8  and  C_9
REMARK    8  A    between atoms: C_9  and  C_10
REMARK    9  A    between atoms: C_10  and  C_11
REMARK   10  A    between atoms: C_11  and  C_12
REMARK   11  A    between atoms: C_17  and  N_18
REMARK                            x       y       z     vdW  Elec       q    Type
REMARK                         _______ _______ _______ _____ _____    ______ ____
ROOT
ATOM      1  N   UNL     1       8.478  -2.392  25.512  0.00  0.00    -0.309 N 
ATOM      2  C   UNL     1       9.158  -1.811  24.472  0.00  0.00    +0.166 A 
ATOM      3  C   UNL     1       9.401  -0.510  24.892  0.00  0.00    +0.147 A 
ATOM      4  C   UNL     1      10.054   0.339  23.984  0.00  0.00    +0.147 A 
ATOM      5  N   UNL     1      10.431  -0.163  22.786  0.00  0.00    -0.219 NA
ATOM      6  C   UNL     1      10.128  -1.452  22.511  0.00  0.00    +0.225 A 
ATOM      7  N   UNL     1       8.930  -0.308  26.171  0.00  0.00    -0.231 NA
ATOM      8  N   UNL     1       9.492  -2.354  23.289  0.00  0.00    -0.216 NA
ATOM      9  C   UNL     1       8.374  -1.453  26.505  0.00  0.00    +0.202 A 
ENDROOT
BRANCH   4  10
ATOM     10  N   UNL     1      10.334   1.671  24.261  0.00  0.00    -0.341 N 
ATOM     11  H   UNL     1      11.312   1.831  24.459  0.00  0.00    +0.144 HD
ATOM     12  H   UNL     1       9.645   2.109  24.863  0.00  0.00    +0.144 HD
ENDBRANCH   4  10
BRANCH   1  13
ATOM     13  C   UNL     1       7.889  -3.734  25.519  0.00  0.00    +0.118 C 
BRANCH  13  14
ATOM     14  C   UNL     1       8.768  -4.723  26.333  0.00  0.00    +0.134 C 
ATOM     15  C   UNL     1       9.954  -5.265  25.540  0.00  0.00    +0.040 C 
BRANCH  14  16
ATOM     16  O   UNL     1       7.996  -5.850  26.760  0.00  0.00    -0.390 OA
ATOM     17  H   UNL     1       7.081  -5.546  26.904  0.00  0.00    +0.210 HD
ENDBRANCH  14  16
ENDBRANCH  13  14
BRANCH  13  18
ATOM     18  C   UNL     1       6.419  -3.707  25.992  0.00  0.00    +0.028 C 
BRANCH  18  19
ATOM     19  C   UNL     1       5.408  -4.102  24.910  0.00  0.00    +0.002 C 
BRANCH  19  20
ATOM     20  C   UNL     1       5.391  -3.063  23.786  0.00  0.00    +0.000 C 
BRANCH  20  21
ATOM     21  C   UNL     1       5.698  -3.702  22.432  0.00  0.00    -0.000 C 
BRANCH  21  22
ATOM     22  C   UNL     1       5.810  -5.221  22.550  0.00  0.00    -0.003 C 
ATOM     23  C   UNL     1       7.138  -5.721  22.004  0.00  0.00    +0.004 C 
ENDBRANCH  21  22
ENDBRANCH  20  21
ENDBRANCH  19  20
ENDBRANCH  18  19
ENDBRANCH  13  18
ENDBRANCH   1  13
TORSDOF 9
ENDMDL
MODEL 4
REMARK VINA RESULT:      -5.4      2.071      2.956
REMARK  Name = 
REMARK  11 active torsions:
REMARK  status: ('A' for Active; 'I' for Inactive)
REMARK    1  A    between atoms: C_2  and  C_3
REMARK    2  A    between atoms: C_2  and  O_4
REMARK    3  A    between atoms: C_2  and  C_5
REMARK    4  A    between atoms: C_5  and  C_7
REMARK    5  A    between atoms: C_5  and  N_13
REMARK    6  A    between atoms: C_7  and  C_8
REMARK    7  A    between atoms: C_8  and  C_9
REMARK    8  A    between atoms: C_9  and  C_10
REMARK    9  A    between atoms: C_10  and  C_11
REMARK   10  A    between atoms: C_11  and  C_12
REMARK   11  A    between atoms: C_17  and  N_18
REMARK                            x       y       z     vdW  Elec       q    Type
REMARK                         _______ _______ _______ _____ _____    ______ ____
ROOT
ATOM      1  N   UNL     1       8.606  -1.740  23.318  0.00  0.00    -0.309 N 
ATOM      2  C   UNL     1       7.982  -2.804  23.916  0.00  0.00    +0.166 A 
ATOM      3  C   UNL     1       9.014  -3.651  24.297  0.00  0.00    +0.147 A 
ATOM      4  C   UNL     1       8.650  -4.864  24.902  0.00  0.00    +0.147 A 
ATOM      5  N   UNL     1       7.337  -5.116  25.108  0.00  0.00    -0.219 NA
ATOM      6  C   UNL     1       6.439  -4.198  24.685  0.00  0.00    +0.225 A 
ATOM      7  N   UNL     1      10.240  -3.105  23.986  0.00  0.00    -0.231 NA
ATOM      8  N   UNL     1       6.664  -3.014  24.078  0.00  0.00    -0.216 NA
ATOM      9  C   UNL     1       9.956  -1.966  23.391  0.00  0.00    +0.202 A 
ENDROOT
BRANCH   4  10
ATOM     10  N   UNL     1       9.577  -5.817  25.305  0.00  0.00    -0.341 N 
ATOM     11  H   UNL     1      10.147  -5.503  26.079  0.00  0.00    +0.144 HD
ATOM     12  H   UNL     1      10.036  -6.283  24.530  0.00  0.00    +0.144 HD
ENDBRANCH   4  10
BRANCH   1  13
ATOM     13  C   UNL     1       7.948  -0.620  22.639  0.00  0.00    +0.118 C 
BRANCH  13  14
ATOM     14  C   UNL     1       7.315   0.358  23.667  0.00  0.00    +0.134 C 
ATOM     15  C   UNL     1       8.007   0.329  25.028  0.00  0.00    +0.040 C 
BRANCH  14  16
ATOM     16  O   UNL     1       5.938   0.036  23.889  0.00  0.00    -0.390 OA
ATOM     17  H   UNL     1       5.877  -0.927  24.026  0.00  0.00    +0.210 HD
ENDBRANCH  14  16
ENDBRANCH  13  14
BRANCH  13  18
ATOM     18  C   UNL     1       8.901   0.085  21.649  0.00  0.00    +0.028 C 
BRANCH  18  19
ATOM     19  C   UNL     1       9.101   1.578  21.932  0.00  0.00    +0.002 C 
BRANCH  19  20
ATOM     20  C   UNL     1      10.498   1.835  22.503  0.00  0.00    +0.000 C 
BRANCH  20  21
ATOM     21  C   UNL     1      10.524   3.096  23.365  0.00  0.00    -0.000 C 
BRANCH  21  22
ATOM     22  C   UNL     1       9.114   3.631  23.606  0.00  0.00    -0.003 C 
ATOM     23  C   UNL     1       9.127   5.130  23.856  0.00  0.00    +0.004 C 
ENDBRANCH  21  22
ENDBRANCH  20  21
ENDBRANCH  19  20
ENDBRANCH  18  19
ENDBRANCH  13  18
ENDBRANCH   1  13
TORSDOF 9
ENDMDL
MODEL 5
REMARK VINA RESULT:      -5.4      1.336      2.611
REMARK  Name = 
REMARK  11 active torsions:
REMARK  status: ('A' for Active; 'I' for Inactive)
REMARK    1  A    between atoms: C_2  and  C_3
REMARK    2  A    between atoms: C_2  and  O_4
REMARK    3  A    between atoms: C_2  and  C_5
REMARK    4  A    between atoms: C_5  and  C_7
REMARK    5  A    between atoms: C_5  and  N_13
REMARK    6  A    between atoms: C_7  and  C_8
REMARK    7  A    between atoms: C_8  and  C_9
REMARK    8  A    between atoms: C_9  and  C_10
REMARK    9  A    between atoms: C_10  and  C_11
REMARK   10  A    between atoms: C_11  and  C_12
REMARK   11  A    between atoms: C_17  and  N_18
REMARK                            x       y       z     vdW  Elec       q    Type
REMARK                         _______ _______ _______ _____ _____    ______ ____
ROOT
ATOM      1  N   UNL     1       7.871  -1.262  24.423  0.00  0.00    -0.309 N 
ATOM      2  C   UNL     1       8.230  -2.585  24.378  0.00  0.00    +0.166 A 
ATOM      3  C   UNL     1       7.294  -3.177  23.542  0.00  0.00    +0.147 A 
ATOM      4  C   UNL     1       7.398  -4.565  23.353  0.00  0.00    +0.147 A 
ATOM      5  N   UNL     1       8.410  -5.226  23.959  0.00  0.00    -0.219 NA
ATOM      6  C   UNL     1       9.252  -4.517  24.747  0.00  0.00    +0.225 A 
ATOM      7  N   UNL     1       6.411  -2.242  23.049  0.00  0.00    -0.231 NA
ATOM      8  N   UNL     1       9.242  -3.196  25.019  0.00  0.00    -0.216 NA
ATOM      9  C   UNL     1       6.781  -1.109  23.606  0.00  0.00    +0.202 A 
ENDROOT
BRANCH   4  10
ATOM     10  N   UNL     1       6.511  -5.290  22.568  0.00  0.00    -0.341 N 
ATOM     11  H   UNL     1       6.975  -5.819  21.843  0.00  0.00    +0.144 HD
ATOM     12  H   UNL     1       5.675  -4.772  22.323  0.00  0.00    +0.144 HD
ENDBRANCH   4  10
BRANCH   1  13
ATOM     13  C   UNL     1       8.479  -0.229  25.265  0.00  0.00    +0.118 C 
BRANCH  13  14
ATOM     14  C   UNL     1       8.063  -0.408  26.752  0.00  0.00    +0.134 C 
ATOM     15  C   UNL     1       7.178   0.724  27.268  0.00  0.00    +0.040 C 
BRANCH  14  16
ATOM     16  O   UNL     1       9.218  -0.458  27.596  0.00  0.00    -0.390 OA
ATOM     17  H   UNL     1       9.891  -1.000  27.146  0.00  0.00    +0.210 HD
ENDBRANCH  14  16
ENDBRANCH  13  14
BRANCH  13  18
ATOM     18  C   UNL     1      10.010  -0.167  25.074  0.00  0.00    +0.028 C 
BRANCH  18  19
ATOM     19  C   UNL     1      10.520   1.180  24.550  0.00  0.00    +0.002 C 
BRANCH  19  20
ATOM     20  C   UNL     1       9.469   1.840  23.653  0.00  0.00    +0.000 C 
BRANCH  20  21
ATOM     21  C   UNL     1       9.898   1.822  22.187  0.00  0.00    -0.000 C 
BRANCH  21  22
ATOM     22  C   UNL     1       9.028   0.870  21.368  0.00  0.00    -0.003 C 
ATOM     23  C   UNL     1       9.592  -0.542  21.380  0.00  0.00    +0.004 C 
ENDBRANCH  21  22
ENDBRANCH  20  21
ENDBRANCH  19  20
ENDBRANCH  18  19
ENDBRANCH  13  18
ENDBRANCH   1  13
TORSDOF 9
ENDMDL
MODEL 6
REMARK VINA RESULT:      -5.3      2.644      4.604
REMARK  Name = 
REMARK  11 active torsions:
REMARK  status: ('A' for Active; 'I' for Inactive)
REMARK    1  A    between atoms: C_2  and  C_3
REMARK    2  A    between atoms: C_2  and  O_4
REMARK    3  A    between atoms: C_2  and  C_5
REMARK    4  A    between atoms: C_5  and  C_7
REMARK    5  A    between atoms: C_5  and  N_13
REMARK    6  A    between atoms: C_7  and  C_8
REMARK    7  A    between atoms: C_8  and  C_9
REMARK    8  A    between atoms: C_9  and  C_10
REMARK    9  A    between atoms: C_10  and  C_11
REMARK   10  A    between atoms: C_11  and  C_12
REMARK   11  A    between atoms: C_17  and  N_18
REMARK                            x       y       z     vdW  Elec       q    Type
REMARK                         _______ _______ _______ _____ _____    ______ ____
ROOT
ATOM      1  N   UNL     1       8.554  -3.216  24.927  0.00  0.00    -0.309 N 
ATOM      2  C   UNL     1       7.572  -3.396  25.867  0.00  0.00    +0.166 A 
ATOM      3  C   UNL     1       7.860  -4.623  26.449  0.00  0.00    +0.147 A 
ATOM      4  C   UNL     1       6.969  -5.085  27.431  0.00  0.00    +0.147 A 
ATOM      5  N   UNL     1       5.920  -4.303  27.772  0.00  0.00    -0.219 NA
ATOM      6  C   UNL     1       5.763  -3.128  27.121  0.00  0.00    +0.225 A 
ATOM      7  N   UNL     1       9.011  -5.162  25.918  0.00  0.00    -0.231 NA
ATOM      8  N   UNL     1       6.535  -2.590  26.154  0.00  0.00    -0.216 NA
ATOM      9  C   UNL     1       9.392  -4.298  25.003  0.00  0.00    +0.202 A 
ENDROOT
BRANCH   4  10
ATOM     10  N   UNL     1       7.119  -6.308  28.073  0.00  0.00    -0.341 N 
ATOM     11  H   UNL     1       7.890  -6.849  27.706  0.00  0.00    +0.144 HD
ATOM     12  H   UNL     1       6.239  -6.782  28.243  0.00  0.00    +0.144 HD
ENDBRANCH   4  10
BRANCH   1  13
ATOM     13  C   UNL     1       8.634  -2.120  23.958  0.00  0.00    +0.118 C 
BRANCH  13  14
ATOM     14  C   UNL     1      10.102  -1.651  23.768  0.00  0.00    +0.134 C 
ATOM     15  C   UNL     1      10.298  -0.163  24.048  0.00  0.00    +0.040 C 
BRANCH  14  16
ATOM     16  O   UNL     1      10.539  -1.887  22.426  0.00  0.00    -0.390 OA
ATOM     17  H   UNL     1      10.653  -1.020  21.995  0.00  0.00    +0.210 HD
ENDBRANCH  14  16
ENDBRANCH  13  14
BRANCH  13  18
ATOM     18  C   UNL     1       7.945  -2.489  22.625  0.00  0.00    +0.028 C 
BRANCH  18  19
ATOM     19  C   UNL     1       6.453  -2.140  22.576  0.00  0.00    +0.002 C 
BRANCH  19  20
ATOM     20  C   UNL     1       5.649  -3.302  21.988  0.00  0.00    +0.000 C 
BRANCH  20  21
ATOM     21  C   UNL     1       5.476  -4.430  23.005  0.00  0.00    -0.000 C 
BRANCH  21  22
ATOM     22  C   UNL     1       5.660  -5.797  22.350  0.00  0.00    -0.003 C 
ATOM     23  C   UNL     1       7.061  -5.952  21.779  0.00  0.00    +0.004 C 
ENDBRANCH  21  22
ENDBRANCH  20  21
ENDBRANCH  19  20
ENDBRANCH  18  19
ENDBRANCH  13  18
ENDBRANCH   1  13
TORSDOF 9
ENDMDL
MODEL 7
REMARK VINA RESULT:      -5.3      3.031      3.714
REMARK  Name = 
REMARK  11 active torsions:
REMARK  status: ('A' for Active; 'I' for Inactive)
REMARK    1  A    between atoms: C_2  and  C_3
REMARK    2  A    between atoms: C_2  and  O_4
REMARK    3  A    between atoms: C_2  and  C_5
REMARK    4  A    between atoms: C_5  and  C_7
REMARK    5  A    between atoms: C_5  and  N_13
REMARK    6  A    between atoms: C_7  and  C_8
REMARK    7  A    between atoms: C_8  and  C_9
REMARK    8  A    between atoms: C_9  and  C_10
REMARK    9  A    between atoms: C_10  and  C_11
REMARK   10  A    between atoms: C_11  and  C_12
REMARK   11  A    between atoms: C_17  and  N_18
REMARK                            x       y       z     vdW  Elec       q    Type
REMARK                         _______ _______ _______ _____ _____    ______ ____
ROOT
ATOM      1  N   UNL     1       6.876  -4.076  25.442  0.00  0.00    -0.309 N 
ATOM      2  C   UNL     1       5.971  -5.105  25.487  0.00  0.00    +0.166 A 
ATOM      3  C   UNL     1       6.069  -5.605  26.779  0.00  0.00    +0.147 A 
ATOM      4  C   UNL     1       5.271  -6.718  27.091  0.00  0.00    +0.147 A 
ATOM      5  N   UNL     1       4.442  -7.207  26.141  0.00  0.00    -0.219 NA
ATOM      6  C   UNL     1       4.451  -6.617  24.923  0.00  0.00    +0.225 A 
ATOM      7  N   UNL     1       6.971  -4.878  27.523  0.00  0.00    -0.231 NA
ATOM      8  N   UNL     1       5.181  -5.564  24.501  0.00  0.00    -0.216 NA
ATOM      9  C   UNL     1       7.442  -3.977  26.687  0.00  0.00    +0.202 A 
ENDROOT
BRANCH   4  10
ATOM     10  N   UNL     1       5.290  -7.338  28.334  0.00  0.00    -0.341 N 
ATOM     11  H   UNL     1       5.327  -6.677  29.098  0.00  0.00    +0.144 HD
ATOM     12  H   UNL     1       5.901  -8.146  28.370  0.00  0.00    +0.144 HD
ENDBRANCH   4  10
BRANCH   1  13
ATOM     13  C   UNL     1       7.239  -3.294  24.258  0.00  0.00    +0.118 C 
BRANCH  13  14
ATOM     14  C   UNL     1       5.995  -2.584  23.657  0.00  0.00    +0.134 C 
ATOM     15  C   UNL     1       5.779  -2.899  22.179  0.00  0.00    +0.040 C 
BRANCH  14  16
ATOM     16  O   UNL     1       6.121  -1.163  23.770  0.00  0.00    -0.390 OA
ATOM     17  H   UNL     1       6.225  -0.802  22.870  0.00  0.00    +0.210 HD
ENDBRANCH  14  16
ENDBRANCH  13  14
BRANCH  13  18
ATOM     18  C   UNL     1       8.401  -2.320  24.553  0.00  0.00    +0.028 C 
BRANCH  18  19
ATOM     19  C   UNL     1       9.664  -2.586  23.725  0.00  0.00    +0.002 C 
BRANCH  19  20
ATOM     20  C   UNL     1      10.160  -1.293  23.072  0.00  0.00    +0.000 C 
BRANCH  20  21
ATOM     21  C   UNL     1       9.409  -1.001  21.774  0.00  0.00    -0.000 C 
BRANCH  21  22
ATOM     22  C   UNL     1       9.408   0.493  21.459  0.00  0.00    -0.003 C 
ATOM     23  C   UNL     1       8.199   1.186  22.067  0.00  0.00    +0.004 C 
ENDBRANCH  21  22
ENDBRANCH  20  21
ENDBRANCH  19  20
ENDBRANCH  18  19
ENDBRANCH  13  18
ENDBRANCH   1  13
TORSDOF 9
ENDMDL
MODEL 8
REMARK VINA RESULT:      -5.3      2.491      5.633
REMARK  Name = 
REMARK  11 active torsions:
REMARK  status: ('A' for Active; 'I' for Inactive)
REMARK    1  A    between atoms: C_2  and  C_3
REMARK    2  A    between atoms: C_2  and  O_4
REMARK    3  A    between atoms: C_2  and  C_5
REMARK    4  A    between atoms: C_5  and  C_7
REMARK    5  A    between atoms: C_5  and  N_13
REMARK    6  A    between atoms: C_7  and  C_8
REMARK    7  A    between atoms: C_8  and  C_9
REMARK    8  A    between atoms: C_9  and  C_10
REMARK    9  A    between atoms: C_10  and  C_11
REMARK   10  A    between atoms: C_11  and  C_12
REMARK   11  A    between atoms: C_17  and  N_18
REMARK                            x       y       z     vdW  Elec       q    Type
REMARK                         _______ _______ _______ _____ _____    ______ ____
ROOT
ATOM      1  N   UNL     1       8.378  -1.712  23.218  0.00  0.00    -0.309 N 
ATOM      2  C   UNL     1       8.622  -0.431  23.643  0.00  0.00    +0.166 A 
ATOM      3  C   UNL     1       9.211   0.196  22.554  0.00  0.00    +0.147 A 
ATOM      4  C   UNL     1       9.615   1.530  22.731  0.00  0.00    +0.147 A 
ATOM      5  N   UNL     1       9.377   2.125  23.922  0.00  0.00    -0.219 NA
ATOM      6  C   UNL     1       8.792   1.390  24.895  0.00  0.00    +0.225 A 
ATOM      7  N   UNL     1       9.286  -0.656  21.474  0.00  0.00    -0.231 NA
ATOM      8  N   UNL     1       8.381   0.106  24.852  0.00  0.00    -0.216 NA
ATOM      9  C   UNL     1       8.788  -1.792  21.912  0.00  0.00    +0.202 A 
ENDROOT
BRANCH   4  10
ATOM     10  N   UNL     1      10.243   2.268  21.737  0.00  0.00    -0.341 N 
ATOM     11  H   UNL     1      10.821   1.698  21.134  0.00  0.00    +0.144 HD
ATOM     12  H   UNL     1      10.620   3.149  22.068  0.00  0.00    +0.144 HD
ENDBRANCH   4  10
BRANCH   1  13
ATOM     13  C   UNL     1       7.867  -2.814  24.038  0.00  0.00    +0.118 C 
BRANCH  13  14
ATOM     14  C   UNL     1       8.916  -3.250  25.098  0.00  0.00    +0.134 C 
ATOM     15  C   UNL     1       9.015  -4.766  25.255  0.00  0.00    +0.040 C 
BRANCH  14  16
ATOM     16  O   UNL     1       8.588  -2.715  26.384  0.00  0.00    -0.390 OA
ATOM     17  H   UNL     1       7.676  -2.988  26.595  0.00  0.00    +0.210 HD
ENDBRANCH  14  16
ENDBRANCH  13  14
BRANCH  13  18
ATOM     18  C   UNL     1       6.494  -2.471  24.659  0.00  0.00    +0.028 C 
BRANCH  18  19
ATOM     19  C   UNL     1       5.397  -3.495  24.349  0.00  0.00    +0.002 C 
BRANCH  19  20
ATOM     20  C   UNL     1       5.381  -3.831  22.856  0.00  0.00    +0.000 C 
BRANCH  20  21
ATOM     21  C   UNL     1       4.998  -5.291  22.617  0.00  0.00    -0.000 C 
BRANCH  21  22
ATOM     22  C   UNL     1       5.933  -5.950  21.605  0.00  0.00    -0.003 C 
ATOM     23  C   UNL     1       7.378  -5.900  22.074  0.00  0.00    +0.004 C 
ENDBRANCH  21  22
ENDBRANCH  20  21
ENDBRANCH  19  20
ENDBRANCH  18  19
ENDBRANCH  13  18
ENDBRANCH   1  13
TORSDOF 9
ENDMDL
MODEL 9
REMARK VINA RESULT:      -5.3      2.243      3.353
REMARK  Name = 
REMARK  11 active torsions:
REMARK  status: ('A' for Active; 'I' for Inactive)
REMARK    1  A    between atoms: C_2  and  C_3
REMARK    2  A    between atoms: C_2  and  O_4
REMARK    3  A    between atoms: C_2  and  C_5
REMARK    4  A    between atoms: C_5  and  C_7
REMARK    5  A    between atoms: C_5  and  N_13
REMARK    6  A    between atoms: C_7  and  C_8
REMARK    7  A    between atoms: C_8  and  C_9
REMARK    8  A    between atoms: C_9  and  C_10
REMARK    9  A    between atoms: C_10  and  C_11
REMARK   10  A    between atoms: C_11  and  C_12
REMARK   11  A    between atoms: C_17  and  N_18
REMARK                            x       y       z     vdW  Elec       q    Type
REMARK                         _______ _______ _______ _____ _____    ______ ____
ROOT
ATOM      1  N   UNL     1       6.539  -3.118  23.159  0.00  0.00    -0.309 N 
ATOM      2  C   UNL     1       6.230  -4.177  23.975  0.00  0.00    +0.166 A 
ATOM      3  C   UNL     1       5.210  -4.847  23.312  0.00  0.00    +0.147 A 
ATOM      4  C   UNL     1       4.661  -5.967  23.958  0.00  0.00    +0.147 A 
ATOM      5  N   UNL     1       5.174  -6.340  25.152  0.00  0.00    -0.219 NA
ATOM      6  C   UNL     1       6.170  -5.592  25.680  0.00  0.00    +0.225 A 
ATOM      7  N   UNL     1       4.931  -4.249  22.103  0.00  0.00    -0.231 NA
ATOM      8  N   UNL     1       6.762  -4.492  25.168  0.00  0.00    -0.216 NA
ATOM      9  C   UNL     1       5.737  -3.211  22.051  0.00  0.00    +0.202 A 
ENDROOT
BRANCH   4  10
ATOM     10  N   UNL     1       3.618  -6.712  23.425  0.00  0.00    -0.341 N 
ATOM     11  H   UNL     1       3.164  -6.248  22.650  0.00  0.00    +0.144 HD
ATOM     12  H   UNL     1       3.035  -7.149  24.130  0.00  0.00    +0.144 HD
ENDBRANCH   4  10
BRANCH   1  13
ATOM     13  C   UNL     1       7.478  -2.036  23.465  0.00  0.00    +0.118 C 
BRANCH  13  14
ATOM     14  C   UNL     1       8.872  -2.317  22.837  0.00  0.00    +0.134 C 
ATOM     15  C   UNL     1      10.029  -2.018  23.788  0.00  0.00    +0.040 C 
BRANCH  14  16
ATOM     16  O   UNL     1       9.070  -1.516  21.668  0.00  0.00    -0.390 OA
ATOM     17  H   UNL     1       8.765  -2.034  20.900  0.00  0.00    +0.210 HD
ENDBRANCH  14  16
ENDBRANCH  13  14
BRANCH  13  18
ATOM     18  C   UNL     1       6.908  -0.657  23.066  0.00  0.00    +0.028 C 
BRANCH  18  19
ATOM     19  C   UNL     1       6.990   0.397  24.176  0.00  0.00    +0.002 C 
BRANCH  19  20
ATOM     20  C   UNL     1       7.910   1.546  23.757  0.00  0.00    +0.000 C 
BRANCH  20  21
ATOM     21  C   UNL     1       9.236   1.503  24.516  0.00  0.00    -0.000 C 
BRANCH  21  22
ATOM     22  C   UNL     1      10.411   1.825  23.595  0.00  0.00    -0.003 C 
ATOM     23  C   UNL     1      10.003   1.750  22.132  0.00  0.00    +0.004 C 
ENDBRANCH  21  22
ENDBRANCH  20  21
ENDBRANCH  19  20
ENDBRANCH  18  19
ENDBRANCH  13  18
ENDBRANCH   1  13
TORSDOF 9
ENDMDL
