MODEL 1
REMARK VINA RESULT:      -6.7      0.000      0.000
REMARK  Name = 
REMARK  6 active torsions:
REMARK  status: ('A' for Active; 'I' for Inactive)
REMARK    1  A    between atoms: C_1  and  C_2
REMARK    2  A    between atoms: C_4  and  S_9
REMARK    3  A    between atoms: C_6  and  C_7
REMARK    4  A    between atoms: S_9  and  C_12
REMARK    5  A    between atoms: C_13  and  C_14
REMARK    6  A    between atoms: C_16  and  N_17
REMARK                            x       y       z     vdW  Elec       q    Type
REMARK                         _______ _______ _______ _____ _____    ______ ____
ROOT
ATOM      1  S   UNL     1       9.035  -2.602  24.171  0.00  0.00    +0.026 S 
ATOM      2  O   UNL     1      10.377  -2.982  23.758  0.00  0.00    -0.164 OA
ATOM      3  O   UNL     1       8.790  -2.231  25.558  0.00  0.00    -0.164 OA
ENDROOT
BRANCH   1  10
ATOM      4  C   UNL     1       6.157  -5.702  20.966  0.00  0.00    +0.044 C 
ATOM      5  C   UNL     1       6.572  -5.280  22.348  0.00  0.00    -0.048 A 
ATOM      6  C   UNL     1       5.874  -5.798  23.452  0.00  0.00    +0.006 A 
ATOM      7  C   UNL     1       6.212  -5.428  24.756  0.00  0.00    -0.048 A 
ATOM      8  C   UNL     1       5.396  -5.918  25.914  0.00  0.00    +0.044 C 
ATOM      9  C   UNL     1       7.274  -4.543  24.963  0.00  0.00    +0.030 A 
ATOM     10  C   UNL     1       7.950  -3.986  23.873  0.00  0.00    +0.094 A 
ATOM     11  C   UNL     1       7.601  -4.349  22.563  0.00  0.00    +0.030 A 
ENDBRANCH   1  10
BRANCH   1  12
ATOM     12  C   UNL     1       8.648  -1.160  23.213  0.00  0.00    +0.113 A 
ATOM     13  C   UNL     1       9.616  -0.750  22.281  0.00  0.00    +0.029 A 
ATOM     14  C   UNL     1       9.406   0.390  21.513  0.00  0.00    +0.004 A 
ATOM     15  C   UNL     1       8.283   1.178  21.749  0.00  0.00    +0.024 A 
ATOM     16  C   UNL     1       7.334   0.811  22.717  0.00  0.00    +0.044 A 
ATOM     17  C   UNL     1       7.456  -0.448  23.346  0.00  0.00    +0.097 A 
BRANCH  16  18
ATOM     18  N   UNL     1       6.193   1.624  22.857  0.00  0.00    -0.357 N 
ATOM     19  H   UNL     1       6.044   1.953  23.808  0.00  0.00    +0.142 HD
ATOM     20  H   UNL     1       5.336   1.230  22.471  0.00  0.00    +0.142 HD
ENDBRANCH  16  18
BRANCH  17  21
ATOM     21  C   UNL     1       6.304  -1.028  23.985  0.00  0.00    +0.103 C 
ATOM     22  N   UNL     1       5.394  -1.473  24.554  0.00  0.00    -0.191 NA
ENDBRANCH  17  21
ENDBRANCH   1  12
TORSDOF 4
ENDMDL
MODEL 2
REMARK VINA RESULT:      -6.4      2.829      6.215
REMARK  Name = 
REMARK  6 active torsions:
REMARK  status: ('A' for Active; 'I' for Inactive)
REMARK    1  A    between atoms: C_1  and  C_2
REMARK    2  A    between atoms: C_4  and  S_9
REMARK    3  A    between atoms: C_6  and  C_7
REMARK    4  A    between atoms: S_9  and  C_12
REMARK    5  A    between atoms: C_13  and  C_14
REMARK    6  A    between atoms: C_16  and  N_17
REMARK                            x       y       z     vdW  Elec       q    Type
REMARK                         _______ _______ _______ _____ _____    ______ ____
ROOT
ATOM      1  S   UNL     1       6.364  -3.931  22.706  0.00  0.00    +0.026 S 
ATOM      2  O   UNL     1       7.369  -4.653  21.942  0.00  0.00    -0.164 OA
ATOM      3  O   UNL     1       5.047  -3.708  22.128  0.00  0.00    -0.164 OA
ENDROOT
BRANCH   1  10
ATOM      4  C   UNL     1       5.850   0.988  24.627  0.00  0.00    +0.044 C 
ATOM      5  C   UNL     1       6.630  -0.035  23.849  0.00  0.00    -0.048 A 
ATOM      6  C   UNL     1       7.758   0.382  23.123  0.00  0.00    +0.006 A 
ATOM      7  C   UNL     1       8.508  -0.528  22.374  0.00  0.00    -0.048 A 
ATOM      8  C   UNL     1       9.653  -0.047  21.532  0.00  0.00    +0.044 C 
ATOM      9  C   UNL     1       8.139  -1.875  22.364  0.00  0.00    +0.030 A 
ATOM     10  C   UNL     1       6.994  -2.298  23.046  0.00  0.00    +0.094 A 
ATOM     11  C   UNL     1       6.233  -1.381  23.787  0.00  0.00    +0.030 A 
ENDBRANCH   1  10
BRANCH   1  12
ATOM     12  C   UNL     1       6.091  -4.918  24.155  0.00  0.00    +0.113 A 
ATOM     13  C   UNL     1       4.822  -5.508  24.281  0.00  0.00    +0.029 A 
ATOM     14  C   UNL     1       4.514  -6.269  25.402  0.00  0.00    +0.004 A 
ATOM     15  C   UNL     1       5.433  -6.355  26.445  0.00  0.00    +0.024 A 
ATOM     16  C   UNL     1       6.685  -5.724  26.359  0.00  0.00    +0.044 A 
ATOM     17  C   UNL     1       7.061  -5.125  25.136  0.00  0.00    +0.097 A 
BRANCH  16  18
ATOM     18  N   UNL     1       7.584  -5.906  27.426  0.00  0.00    -0.357 N 
ATOM     19  H   UNL     1       8.279  -5.166  27.501  0.00  0.00    +0.142 HD
ATOM     20  H   UNL     1       8.027  -6.823  27.462  0.00  0.00    +0.142 HD
ENDBRANCH  16  18
BRANCH  17  21
ATOM     21  C   UNL     1       8.454  -4.874  24.877  0.00  0.00    +0.103 C 
ATOM     22  N   UNL     1       9.584  -4.650  24.724  0.00  0.00    -0.191 NA
ENDBRANCH  17  21
ENDBRANCH   1  12
TORSDOF 4
ENDMDL
MODEL 3
REMARK VINA RESULT:      -6.4      2.893      5.932
REMARK  Name = 
REMARK  6 active torsions:
REMARK  status: ('A' for Active; 'I' for Inactive)
REMARK    1  A    between atoms: C_1  and  C_2
REMARK    2  A    between atoms: C_4  and  S_9
REMARK    3  A    between atoms: C_6  and  C_7
REMARK    4  A    between atoms: S_9  and  C_12
REMARK    5  A    between atoms: C_13  and  C_14
REMARK    6  A    between atoms: C_16  and  N_17
REMARK                            x       y       z     vdW  Elec       q    Type
REMARK                         _______ _______ _______ _____ _____    ______ ____
ROOT
ATOM      1  S   UNL     1       6.368  -4.350  22.477  0.00  0.00    +0.026 S 
ATOM      2  O   UNL     1       7.432  -5.101  21.829  0.00  0.00    -0.164 OA
ATOM      3  O   UNL     1       5.061  -4.264  21.840  0.00  0.00    -0.164 OA
ENDROOT
BRANCH   1  10
ATOM      4  C   UNL     1      10.011  -0.519  22.025  0.00  0.00    +0.044 C 
ATOM      5  C   UNL     1       8.668  -0.994  22.507  0.00  0.00    -0.048 A 
ATOM      6  C   UNL     1       7.924  -0.165  23.363  0.00  0.00    +0.006 A 
ATOM      7  C   UNL     1       6.677  -0.567  23.848  0.00  0.00    -0.048 A 
ATOM      8  C   UNL     1       5.941   0.291  24.834  0.00  0.00    +0.044 C 
ATOM      9  C   UNL     1       6.156  -1.803  23.459  0.00  0.00    +0.030 A 
ATOM     10  C   UNL     1       6.905  -2.658  22.642  0.00  0.00    +0.094 A 
ATOM     11  C   UNL     1       8.163  -2.259  22.166  0.00  0.00    +0.030 A 
ENDBRANCH   1  10
BRANCH   1  12
ATOM     12  C   UNL     1       6.095  -5.178  24.023  0.00  0.00    +0.113 A 
ATOM     13  C   UNL     1       4.844  -5.793  24.191  0.00  0.00    +0.029 A 
ATOM     14  C   UNL     1       4.537  -6.435  25.385  0.00  0.00    +0.004 A 
ATOM     15  C   UNL     1       5.435  -6.372  26.447  0.00  0.00    +0.024 A 
ATOM     16  C   UNL     1       6.667  -5.712  26.313  0.00  0.00    +0.044 A 
ATOM     17  C   UNL     1       7.050  -5.240  25.038  0.00  0.00    +0.097 A 
BRANCH  16  18
ATOM     18  N   UNL     1       7.549  -5.742  27.410  0.00  0.00    -0.357 N 
ATOM     19  H   UNL     1       8.459  -5.334  27.210  0.00  0.00    +0.142 HD
ATOM     20  H   UNL     1       7.651  -6.654  27.853  0.00  0.00    +0.142 HD
ENDBRANCH  16  18
BRANCH  17  21
ATOM     21  C   UNL     1       8.440  -4.972  24.777  0.00  0.00    +0.103 C 
ATOM     22  N   UNL     1       9.574  -4.773  24.623  0.00  0.00    -0.191 NA
ENDBRANCH  17  21
ENDBRANCH   1  12
TORSDOF 4
ENDMDL
MODEL 4
REMARK VINA RESULT:      -6.4      0.473      1.980
REMARK  Name = 
REMARK  6 active torsions:
REMARK  status: ('A' for Active; 'I' for Inactive)
REMARK    1  A    between atoms: C_1  and  C_2
REMARK    2  A    between atoms: C_4  and  S_9
REMARK    3  A    between atoms: C_6  and  C_7
REMARK    4  A    between atoms: S_9  and  C_12
REMARK    5  A    between atoms: C_13  and  C_14
REMARK    6  A    between atoms: C_16  and  N_17
REMARK                            x       y       z     vdW  Elec       q    Type
REMARK                         _______ _______ _______ _____ _____    ______ ____
ROOT
ATOM      1  S   UNL     1       8.926  -2.269  24.170  0.00  0.00    +0.026 S 
ATOM      2  O   UNL     1      10.170  -2.817  23.652  0.00  0.00    -0.164 OA
ATOM      3  O   UNL     1       8.846  -1.870  25.568  0.00  0.00    -0.164 OA
ENDROOT
BRANCH   1  10
ATOM      4  C   UNL     1       5.677  -5.998  26.094  0.00  0.00    +0.044 C 
ATOM      5  C   UNL     1       6.285  -5.271  24.927  0.00  0.00    -0.048 A 
ATOM      6  C   UNL     1       6.062  -5.766  23.631  0.00  0.00    +0.006 A 
ATOM      7  C   UNL     1       6.615  -5.135  22.514  0.00  0.00    -0.048 A 
ATOM      8  C   UNL     1       6.443  -5.732  21.149  0.00  0.00    +0.044 C 
ATOM      9  C   UNL     1       7.386  -3.983  22.691  0.00  0.00    +0.030 A 
ATOM     10  C   UNL     1       7.654  -3.504  23.977  0.00  0.00    +0.094 A 
ATOM     11  C   UNL     1       7.108  -4.146  25.099  0.00  0.00    +0.030 A 
ENDBRANCH   1  10
BRANCH   1  12
ATOM     12  C   UNL     1       8.647  -0.790  23.231  0.00  0.00    +0.113 A 
ATOM     13  C   UNL     1       9.572  -0.512  22.211  0.00  0.00    +0.029 A 
ATOM     14  C   UNL     1       9.446   0.644  21.450  0.00  0.00    +0.004 A 
ATOM     15  C   UNL     1       8.460   1.573  21.775  0.00  0.00    +0.024 A 
ATOM     16  C   UNL     1       7.562   1.336  22.828  0.00  0.00    +0.044 A 
ATOM     17  C   UNL     1       7.575   0.072  23.459  0.00  0.00    +0.097 A 
BRANCH  16  18
ATOM     18  N   UNL     1       6.555   2.292  23.057  0.00  0.00    -0.357 N 
ATOM     19  H   UNL     1       6.736   2.885  23.864  0.00  0.00    +0.142 HD
ATOM     20  H   UNL     1       5.608   1.917  23.088  0.00  0.00    +0.142 HD
ENDBRANCH  16  18
BRANCH  17  21
ATOM     21  C   UNL     1       6.419  -0.350  24.206  0.00  0.00    +0.103 C 
ATOM     22  N   UNL     1       5.464  -0.636  24.802  0.00  0.00    -0.191 NA
ENDBRANCH  17  21
ENDBRANCH   1  12
TORSDOF 4
ENDMDL
MODEL 5
REMARK VINA RESULT:      -6.2      2.485      5.873
REMARK  Name = 
REMARK  6 active torsions:
REMARK  status: ('A' for Active; 'I' for Inactive)
REMARK    1  A    between atoms: C_1  and  C_2
REMARK    2  A    between atoms: C_4  and  S_9
REMARK    3  A    between atoms: C_6  and  C_7
REMARK    4  A    between atoms: S_9  and  C_12
REMARK    5  A    between atoms: C_13  and  C_14
REMARK    6  A    between atoms: C_16  and  N_17
REMARK                            x       y       z     vdW  Elec       q    Type
REMARK                         _______ _______ _______ _____ _____    ______ ____
ROOT
ATOM      1  S   UNL     1       8.594  -4.465  25.588  0.00  0.00    +0.026 S 
ATOM      2  O   UNL     1       8.902  -4.765  26.978  0.00  0.00    -0.164 OA
ATOM      3  O   UNL     1       9.464  -4.972  24.536  0.00  0.00    -0.164 OA
ENDROOT
BRANCH   1  10
ATOM      4  C   UNL     1      10.568  -0.014  23.480  0.00  0.00    +0.044 C 
ATOM      5  C   UNL     1       9.659  -0.704  24.459  0.00  0.00    -0.048 A 
ATOM      6  C   UNL     1       9.015   0.065  25.443  0.00  0.00    +0.006 A 
ATOM      7  C   UNL     1       8.171  -0.531  26.383  0.00  0.00    -0.048 A 
ATOM      8  C   UNL     1       7.568   0.293  27.482  0.00  0.00    +0.044 C 
ATOM      9  C   UNL     1       7.952  -1.909  26.330  0.00  0.00    +0.030 A 
ATOM     10  C   UNL     1       8.620  -2.694  25.384  0.00  0.00    +0.094 A 
ATOM     11  C   UNL     1       9.477  -2.096  24.448  0.00  0.00    +0.030 A 
ENDBRANCH   1  10
BRANCH   1  12
ATOM     12  C   UNL     1       7.008  -5.205  25.297  0.00  0.00    +0.113 A 
ATOM     13  C   UNL     1       6.351  -5.738  26.418  0.00  0.00    +0.029 A 
ATOM     14  C   UNL     1       5.119  -6.365  26.272  0.00  0.00    +0.004 A 
ATOM     15  C   UNL     1       4.593  -6.553  24.997  0.00  0.00    +0.024 A 
ATOM     16  C   UNL     1       5.265  -6.075  23.860  0.00  0.00    +0.044 A 
ATOM     17  C   UNL     1       6.410  -5.267  24.038  0.00  0.00    +0.097 A 
BRANCH  16  18
ATOM     18  N   UNL     1       4.642  -6.248  22.610  0.00  0.00    -0.357 N 
ATOM     19  H   UNL     1       3.941  -5.540  22.405  0.00  0.00    +0.142 HD
ATOM     20  H   UNL     1       4.272  -7.183  22.442  0.00  0.00    +0.142 HD
ENDBRANCH  16  18
BRANCH  17  21
ATOM     21  C   UNL     1       6.847  -4.421  22.959  0.00  0.00    +0.103 C 
ATOM     22  N   UNL     1       7.148  -3.752  22.058  0.00  0.00    -0.191 NA
ENDBRANCH  17  21
ENDBRANCH   1  12
TORSDOF 4
ENDMDL
MODEL 6
REMARK VINA RESULT:      -6.1      1.975      3.055
REMARK  Name = 
REMARK  6 active torsions:
REMARK  status: ('A' for Active; 'I' for Inactive)
REMARK    1  A    between atoms: C_1  and  C_2
REMARK    2  A    between atoms: C_4  and  S_9
REMARK    3  A    between atoms: C_6  and  C_7
REMARK    4  A    between atoms: S_9  and  C_12
REMARK    5  A    between atoms: C_13  and  C_14
REMARK    6  A    between atoms: C_16  and  N_17
REMARK                            x       y       z     vdW  Elec       q    Type
REMARK                         _______ _______ _______ _____ _____    ______ ____
ROOT
ATOM      1  S   UNL     1       8.846  -1.927  24.361  0.00  0.00    +0.026 S 
ATOM      2  O   UNL     1      10.111  -2.440  23.859  0.00  0.00    -0.164 OA
ATOM      3  O   UNL     1       8.727  -1.561  25.765  0.00  0.00    -0.164 OA
ENDROOT
BRANCH   1  10
ATOM      4  C   UNL     1       5.141  -5.280  26.145  0.00  0.00    +0.044 C 
ATOM      5  C   UNL     1       6.005  -4.762  25.029  0.00  0.00    -0.048 A 
ATOM      6  C   UNL     1       6.043  -5.472  23.817  0.00  0.00    +0.006 A 
ATOM      7  C   UNL     1       6.840  -5.040  22.754  0.00  0.00    -0.048 A 
ATOM      8  C   UNL     1       6.939  -5.861  21.504  0.00  0.00    +0.044 C 
ATOM      9  C   UNL     1       7.595  -3.873  22.896  0.00  0.00    +0.030 A 
ATOM     10  C   UNL     1       7.602  -3.180  24.111  0.00  0.00    +0.094 A 
ATOM     11  C   UNL     1       6.811  -3.622  25.182  0.00  0.00    +0.030 A 
ENDBRANCH   1  10
BRANCH   1  12
ATOM     12  C   UNL     1       8.562  -0.432  23.449  0.00  0.00    +0.113 A 
ATOM     13  C   UNL     1       7.263  -0.242  22.949  0.00  0.00    +0.029 A 
ATOM     14  C   UNL     1       6.964   0.888  22.195  0.00  0.00    +0.004 A 
ATOM     15  C   UNL     1       7.983   1.772  21.853  0.00  0.00    +0.024 A 
ATOM     16  C   UNL     1       9.298   1.567  22.299  0.00  0.00    +0.044 A 
ATOM     17  C   UNL     1       9.547   0.530  23.226  0.00  0.00    +0.097 A 
BRANCH  16  18
ATOM     18  N   UNL     1      10.263   2.536  21.964  0.00  0.00    -0.357 N 
ATOM     19  H   UNL     1      10.121   2.947  21.044  0.00  0.00    +0.142 HD
ATOM     20  H   UNL     1      11.230   2.237  22.082  0.00  0.00    +0.142 HD
ENDBRANCH  16  18
BRANCH  17  21
ATOM     21  C   UNL     1      10.747   0.571  24.019  0.00  0.00    +0.103 C 
ATOM     22  N   UNL     1      11.733   0.652  24.628  0.00  0.00    -0.191 NA
ENDBRANCH  17  21
ENDBRANCH   1  12
TORSDOF 4
ENDMDL
MODEL 7
REMARK VINA RESULT:      -6.0      2.180      5.939
REMARK  Name = 
REMARK  6 active torsions:
REMARK  status: ('A' for Active; 'I' for Inactive)
REMARK    1  A    between atoms: C_1  and  C_2
REMARK    2  A    between atoms: C_4  and  S_9
REMARK    3  A    between atoms: C_6  and  C_7
REMARK    4  A    between atoms: S_9  and  C_12
REMARK    5  A    between atoms: C_13  and  C_14
REMARK    6  A    between atoms: C_16  and  N_17
REMARK                            x       y       z     vdW  Elec       q    Type
REMARK                         _______ _______ _______ _____ _____    ______ ____
ROOT
ATOM      1  S   UNL     1       8.566  -4.454  25.496  0.00  0.00    +0.026 S 
ATOM      2  O   UNL     1       8.895  -4.503  26.911  0.00  0.00    -0.164 OA
ATOM      3  O   UNL     1       9.420  -5.142  24.537  0.00  0.00    -0.164 OA
ENDROOT
BRANCH   1  10
ATOM      4  C   UNL     1       6.454   0.409  25.273  0.00  0.00    +0.044 C 
ATOM      5  C   UNL     1       7.493  -0.585  24.834  0.00  0.00    -0.048 A 
ATOM      6  C   UNL     1       8.344  -0.248  23.768  0.00  0.00    +0.006 A 
ATOM      7  C   UNL     1       9.317  -1.142  23.314  0.00  0.00    -0.048 A 
ATOM      8  C   UNL     1      10.151  -0.802  22.115  0.00  0.00    +0.044 C 
ATOM      9  C   UNL     1       9.456  -2.381  23.945  0.00  0.00    +0.030 A 
ATOM     10  C   UNL     1       8.589  -2.747  24.979  0.00  0.00    +0.094 A 
ATOM     11  C   UNL     1       7.603  -1.854  25.426  0.00  0.00    +0.030 A 
ENDBRANCH   1  10
BRANCH   1  12
ATOM     12  C   UNL     1       6.976  -5.229  25.365  0.00  0.00    +0.113 A 
ATOM     13  C   UNL     1       6.411  -5.705  26.560  0.00  0.00    +0.029 A 
ATOM     14  C   UNL     1       5.182  -6.354  26.542  0.00  0.00    +0.004 A 
ATOM     15  C   UNL     1       4.568  -6.621  25.322  0.00  0.00    +0.024 A 
ATOM     16  C   UNL     1       5.147  -6.201  24.113  0.00  0.00    +0.044 A 
ATOM     17  C   UNL     1       6.288  -5.370  24.160  0.00  0.00    +0.097 A 
BRANCH  16  18
ATOM     18  N   UNL     1       4.436  -6.454  22.924  0.00  0.00    -0.357 N 
ATOM     19  H   UNL     1       4.395  -5.652  22.299  0.00  0.00    +0.142 HD
ATOM     20  H   UNL     1       3.511  -6.859  23.056  0.00  0.00    +0.142 HD
ENDBRANCH  16  18
BRANCH  17  21
ATOM     21  C   UNL     1       6.630  -4.582  23.005  0.00  0.00    +0.103 C 
ATOM     22  N   UNL     1       6.881  -3.989  22.039  0.00  0.00    -0.191 NA
ENDBRANCH  17  21
ENDBRANCH   1  12
TORSDOF 4
ENDMDL
MODEL 8
REMARK VINA RESULT:      -5.9      2.506      3.139
REMARK  Name = 
REMARK  6 active torsions:
REMARK  status: ('A' for Active; 'I' for Inactive)
REMARK    1  A    between atoms: C_1  and  C_2
REMARK    2  A    between atoms: C_4  and  S_9
REMARK    3  A    between atoms: C_6  and  C_7
REMARK    4  A    between atoms: S_9  and  C_12
REMARK    5  A    between atoms: C_13  and  C_14
REMARK    6  A    between atoms: C_16  and  N_17
REMARK                            x       y       z     vdW  Elec       q    Type
REMARK                         _______ _______ _______ _____ _____    ______ ____
ROOT
ATOM      1  S   UNL     1       6.879  -0.625  24.764  0.00  0.00    +0.026 S 
ATOM      2  O   UNL     1       7.565  -0.345  26.016  0.00  0.00    -0.164 OA
ATOM      3  O   UNL     1       5.426  -0.711  24.747  0.00  0.00    -0.164 OA
ENDROOT
BRANCH   1  10
ATOM      4  C   UNL     1       6.356  -4.942  21.724  0.00  0.00    +0.044 C 
ATOM      5  C   UNL     1       7.054  -4.200  22.829  0.00  0.00    -0.048 A 
ATOM      6  C   UNL     1       7.997  -4.886  23.614  0.00  0.00    +0.006 A 
ATOM      7  C   UNL     1       8.663  -4.244  24.661  0.00  0.00    -0.048 A 
ATOM      8  C   UNL     1       9.595  -5.018  25.546  0.00  0.00    +0.044 C 
ATOM      9  C   UNL     1       8.401  -2.896  24.915  0.00  0.00    +0.030 A 
ATOM     10  C   UNL     1       7.435  -2.212  24.170  0.00  0.00    +0.094 A 
ATOM     11  C   UNL     1       6.756  -2.861  23.128  0.00  0.00    +0.030 A 
ENDBRANCH   1  10
BRANCH   1  12
ATOM     12  C   UNL     1       7.292   0.732  23.699  0.00  0.00    +0.113 A 
ATOM     13  C   UNL     1       6.228   1.554  23.292  0.00  0.00    +0.029 A 
ATOM     14  C   UNL     1       6.460   2.620  22.430  0.00  0.00    +0.004 A 
ATOM     15  C   UNL     1       7.731   2.802  21.892  0.00  0.00    +0.024 A 
ATOM     16  C   UNL     1       8.794   1.954  22.246  0.00  0.00    +0.044 A 
ATOM     17  C   UNL     1       8.592   1.004  23.272  0.00  0.00    +0.097 A 
BRANCH  16  18
ATOM     18  N   UNL     1      10.064   2.237  21.709  0.00  0.00    -0.357 N 
ATOM     19  H   UNL     1      10.166   1.951  20.738  0.00  0.00    +0.142 HD
ATOM     20  H   UNL     1      10.849   1.906  22.269  0.00  0.00    +0.142 HD
ENDBRANCH  16  18
BRANCH  17  21
ATOM     21  C   UNL     1       9.735   0.447  23.947  0.00  0.00    +0.103 C 
ATOM     22  N   UNL     1      10.690   0.041  24.468  0.00  0.00    -0.191 NA
ENDBRANCH  17  21
ENDBRANCH   1  12
TORSDOF 4
ENDMDL
MODEL 9
REMARK VINA RESULT:      -5.9      1.933      2.507
REMARK  Name = 
REMARK  6 active torsions:
REMARK  status: ('A' for Active; 'I' for Inactive)
REMARK    1  A    between atoms: C_1  and  C_2
REMARK    2  A    between atoms: C_4  and  S_9
REMARK    3  A    between atoms: C_6  and  C_7
REMARK    4  A    between atoms: S_9  and  C_12
REMARK    5  A    between atoms: C_13  and  C_14
REMARK    6  A    between atoms: C_16  and  N_17
REMARK                            x       y       z     vdW  Elec       q    Type
REMARK                         _______ _______ _______ _____ _____    ______ ____
ROOT
ATOM      1  S   UNL     1       8.898  -3.792  25.216  0.00  0.00    +0.026 S 
ATOM      2  O   UNL     1      10.044  -3.786  24.321  0.00  0.00    -0.164 OA
ATOM      3  O   UNL     1       9.054  -4.288  26.577  0.00  0.00    -0.164 OA
ENDROOT
BRANCH   1  10
ATOM      4  C   UNL     1       6.274  -5.788  21.059  0.00  0.00    +0.044 C 
ATOM      5  C   UNL     1       6.422  -5.602  22.543  0.00  0.00    -0.048 A 
ATOM      6  C   UNL     1       5.376  -6.020  23.384  0.00  0.00    +0.006 A 
ATOM      7  C   UNL     1       5.459  -5.858  24.770  0.00  0.00    -0.048 A 
ATOM      8  C   UNL     1       4.295  -6.224  25.642  0.00  0.00    +0.044 C 
ATOM      9  C   UNL     1       6.608  -5.289  25.325  0.00  0.00    +0.030 A 
ATOM     10  C   UNL     1       7.638  -4.829  24.497  0.00  0.00    +0.094 A 
ATOM     11  C   UNL     1       7.548  -4.980  23.105  0.00  0.00    +0.030 A 
ENDBRANCH   1  10
BRANCH   1  12
ATOM     12  C   UNL     1       8.430  -2.089  25.377  0.00  0.00    +0.113 A 
ATOM     13  C   UNL     1       8.344  -1.584  26.685  0.00  0.00    +0.029 A 
ATOM     14  C   UNL     1       7.951  -0.268  26.901  0.00  0.00    +0.004 A 
ATOM     15  C   UNL     1       7.544   0.511  25.822  0.00  0.00    +0.024 A 
ATOM     16  C   UNL     1       7.570   0.002  24.513  0.00  0.00    +0.044 A 
ATOM     17  C   UNL     1       8.159  -1.261  24.287  0.00  0.00    +0.097 A 
BRANCH  16  18
ATOM     18  N   UNL     1       7.201   0.869  23.466  0.00  0.00    -0.357 N 
ATOM     19  H   UNL     1       6.532   1.582  23.748  0.00  0.00    +0.142 HD
ATOM     20  H   UNL     1       6.897   0.404  22.612  0.00  0.00    +0.142 HD
ENDBRANCH  16  18
BRANCH  17  21
ATOM     21  C   UNL     1       8.594  -1.606  22.959  0.00  0.00    +0.103 C 
ATOM     22  N   UNL     1       8.980  -1.835  21.888  0.00  0.00    -0.191 NA
ENDBRANCH  17  21
ENDBRANCH   1  12
TORSDOF 4
ENDMDL
