MODEL 1
REMARK VINA RESULT:      -7.5      0.000      0.000
REMARK  Name = 
REMARK  3 active torsions:
REMARK  status: ('A' for Active; 'I' for Inactive)
REMARK    1  A    between atoms: O_1  and  C_2
REMARK    2  A    between atoms: C_8  and  C_11
REMARK    3  A    between atoms: C_18  and  O_19
REMARK                            x       y       z     vdW  Elec       q    Type
REMARK                         _______ _______ _______ _____ _____    ______ ____
ROOT
ATOM      1  C   UNL     1       9.152  -0.808  24.175  0.00  0.00    +0.005 A 
ATOM      2  C   UNL     1      10.093   0.082  24.712  0.00  0.00    +0.011 A 
ATOM      3  C   UNL     1      10.033   1.449  24.429  0.00  0.00    +0.009 A 
ATOM      4  C   UNL     1       9.019   1.965  23.612  0.00  0.00    -0.014 A 
ATOM      5  C   UNL     1       8.933   3.340  23.337  0.00  0.00    +0.054 A 
ATOM      6  C   UNL     1       7.902   3.828  22.539  0.00  0.00    +0.117 A 
ATOM      7  C   UNL     1       6.953   2.973  22.000  0.00  0.00    +0.046 A 
ATOM      8  C   UNL     1       7.039   1.602  22.250  0.00  0.00    +0.012 A 
ATOM      9  C   UNL     1       8.065   1.082  23.057  0.00  0.00    -0.017 A 
ATOM     10  C   UNL     1       8.156  -0.296  23.330  0.00  0.00    +0.018 A 
ENDROOT
BRANCH   1  15
ATOM     11  C   UNL     1       7.431  -5.128  26.927  0.00  0.00    +0.120 A 
ATOM     12  C   UNL     1       6.867  -3.861  27.056  0.00  0.00    +0.046 A 
ATOM     13  C   UNL     1       7.361  -2.777  26.316  0.00  0.00    +0.017 A 
ATOM     14  C   UNL     1       8.428  -2.997  25.423  0.00  0.00    +0.049 A 
ATOM     15  C   UNL     1       9.223  -2.235  24.505  0.00  0.00    +0.121 A 
ATOM     16  N   UNL     1      10.156  -3.021  23.935  0.00  0.00    -0.077 NA
ATOM     17  O   UNL     1       9.978  -4.285  24.454  0.00  0.00    -0.354 OA
ATOM     18  C   UNL     1       8.953  -4.276  25.341  0.00  0.00    +0.171 A 
ATOM     19  C   UNL     1       8.498  -5.376  26.067  0.00  0.00    +0.095 A 
BRANCH  11  20
ATOM     20  O   UNL     1       6.897  -6.128  27.688  0.00  0.00    -0.507 OA
ATOM     21  H   UNL     1       6.963  -5.882  28.626  0.00  0.00    +0.292 HD
ENDBRANCH  11  20
ENDBRANCH   1  15
BRANCH   6  22
ATOM     22  O   UNL     1       7.787   5.159  22.262  0.00  0.00    -0.507 OA
ATOM     23  H   UNL     1       8.484   5.408  21.634  0.00  0.00    +0.292 HD
ENDBRANCH   6  22
TORSDOF 3
ENDMDL
MODEL 2
REMARK VINA RESULT:      -7.5      2.790      3.511
REMARK  Name = 
REMARK  3 active torsions:
REMARK  status: ('A' for Active; 'I' for Inactive)
REMARK    1  A    between atoms: O_1  and  C_2
REMARK    2  A    between atoms: C_8  and  C_11
REMARK    3  A    between atoms: C_18  and  O_19
REMARK                            x       y       z     vdW  Elec       q    Type
REMARK                         _______ _______ _______ _____ _____    ______ ____
ROOT
ATOM      1  C   UNL     1       7.952  -3.000  24.359  0.00  0.00    +0.005 A 
ATOM      2  C   UNL     1       9.344  -3.100  24.225  0.00  0.00    +0.011 A 
ATOM      3  C   UNL     1      10.081  -2.089  23.602  0.00  0.00    +0.009 A 
ATOM      4  C   UNL     1       9.446  -0.943  23.107  0.00  0.00    -0.014 A 
ATOM      5  C   UNL     1      10.177   0.090  22.497  0.00  0.00    +0.054 A 
ATOM      6  C   UNL     1       9.521   1.228  22.035  0.00  0.00    +0.117 A 
ATOM      7  C   UNL     1       8.145   1.358  22.160  0.00  0.00    +0.046 A 
ATOM      8  C   UNL     1       7.406   0.329  22.745  0.00  0.00    +0.012 A 
ATOM      9  C   UNL     1       8.042  -0.828  23.228  0.00  0.00    -0.017 A 
ATOM     10  C   UNL     1       7.311  -1.867  23.835  0.00  0.00    +0.018 A 
ENDROOT
BRANCH   1  15
ATOM     11  C   UNL     1       4.277  -6.960  24.346  0.00  0.00    +0.120 A 
ATOM     12  C   UNL     1       4.604  -6.213  23.217  0.00  0.00    +0.046 A 
ATOM     13  C   UNL     1       5.565  -5.195  23.285  0.00  0.00    +0.017 A 
ATOM     14  C   UNL     1       6.210  -4.952  24.514  0.00  0.00    +0.049 A 
ATOM     15  C   UNL     1       7.205  -4.063  25.038  0.00  0.00    +0.121 A 
ATOM     16  N   UNL     1       7.392  -4.296  26.351  0.00  0.00    -0.077 NA
ATOM     17  O   UNL     1       6.546  -5.329  26.693  0.00  0.00    -0.354 OA
ATOM     18  C   UNL     1       5.839  -5.721  25.605  0.00  0.00    +0.171 A 
ATOM     19  C   UNL     1       4.882  -6.735  25.581  0.00  0.00    +0.095 A 
BRANCH  11  20
ATOM     20  O   UNL     1       3.326  -7.929  24.199  0.00  0.00    -0.507 OA
ATOM     21  H   UNL     1       3.019  -7.933  23.276  0.00  0.00    +0.292 HD
ENDBRANCH  11  20
ENDBRANCH   1  15
BRANCH   6  22
ATOM     22  O   UNL     1      10.204   2.252  21.447  0.00  0.00    -0.507 OA
ATOM     23  H   UNL     1      11.134   2.205  21.723  0.00  0.00    +0.292 HD
ENDBRANCH   6  22
TORSDOF 3
ENDMDL
MODEL 3
REMARK VINA RESULT:      -7.5      2.713      7.621
REMARK  Name = 
REMARK  3 active torsions:
REMARK  status: ('A' for Active; 'I' for Inactive)
REMARK    1  A    between atoms: O_1  and  C_2
REMARK    2  A    between atoms: C_8  and  C_11
REMARK    3  A    between atoms: C_18  and  O_19
REMARK                            x       y       z     vdW  Elec       q    Type
REMARK                         _______ _______ _______ _____ _____    ______ ____
ROOT
ATOM      1  C   UNL     1       7.639  -3.486  23.219  0.00  0.00    +0.005 A 
ATOM      2  C   UNL     1       6.922  -4.036  22.147  0.00  0.00    +0.011 A 
ATOM      3  C   UNL     1       5.985  -5.052  22.355  0.00  0.00    +0.009 A 
ATOM      4  C   UNL     1       5.730  -5.537  23.644  0.00  0.00    -0.014 A 
ATOM      5  C   UNL     1       4.776  -6.542  23.870  0.00  0.00    +0.054 A 
ATOM      6  C   UNL     1       4.528  -6.989  25.165  0.00  0.00    +0.117 A 
ATOM      7  C   UNL     1       5.217  -6.459  26.245  0.00  0.00    +0.046 A 
ATOM      8  C   UNL     1       6.182  -5.474  26.032  0.00  0.00    +0.012 A 
ATOM      9  C   UNL     1       6.449  -4.998  24.736  0.00  0.00    -0.017 A 
ATOM     10  C   UNL     1       7.408  -3.993  24.507  0.00  0.00    +0.018 A 
ENDROOT
BRANCH   1  15
ATOM     11  C   UNL     1       8.788   1.705  22.260  0.00  0.00    +0.120 A 
ATOM     12  C   UNL     1       7.493   1.227  22.439  0.00  0.00    +0.046 A 
ATOM     13  C   UNL     1       7.259  -0.134  22.681  0.00  0.00    +0.017 A 
ATOM     14  C   UNL     1       8.361  -1.008  22.761  0.00  0.00    +0.049 A 
ATOM     15  C   UNL     1       8.600  -2.405  22.978  0.00  0.00    +0.121 A 
ATOM     16  N   UNL     1       9.918  -2.668  22.908  0.00  0.00    -0.077 NA
ATOM     17  O   UNL     1      10.547  -1.467  22.659  0.00  0.00    -0.354 OA
ATOM     18  C   UNL     1       9.626  -0.477  22.569  0.00  0.00    +0.171 A 
ATOM     19  C   UNL     1       9.899   0.866  22.315  0.00  0.00    +0.095 A 
BRANCH  11  20
ATOM     20  O   UNL     1       8.932   3.043  22.021  0.00  0.00    -0.507 OA
ATOM     21  H   UNL     1       8.188   3.518  22.429  0.00  0.00    +0.292 HD
ENDBRANCH  11  20
ENDBRANCH   1  15
BRANCH   6  22
ATOM     22  O   UNL     1       3.601  -7.957  25.417  0.00  0.00    -0.507 OA
ATOM     23  H   UNL     1       3.312  -8.340  24.572  0.00  0.00    +0.292 HD
ENDBRANCH   6  22
TORSDOF 3
ENDMDL
MODEL 4
REMARK VINA RESULT:      -7.4      2.309      3.201
REMARK  Name = 
REMARK  3 active torsions:
REMARK  status: ('A' for Active; 'I' for Inactive)
REMARK    1  A    between atoms: O_1  and  C_2
REMARK    2  A    between atoms: C_8  and  C_11
REMARK    3  A    between atoms: C_18  and  O_19
REMARK                            x       y       z     vdW  Elec       q    Type
REMARK                         _______ _______ _______ _____ _____    ______ ____
ROOT
ATOM      1  C   UNL     1       8.249  -2.690  25.378  0.00  0.00    +0.005 A 
ATOM      2  C   UNL     1       8.587  -1.577  26.161  0.00  0.00    +0.011 A 
ATOM      3  C   UNL     1       9.069  -0.404  25.574  0.00  0.00    +0.009 A 
ATOM      4  C   UNL     1       9.212  -0.307  24.184  0.00  0.00    -0.014 A 
ATOM      5  C   UNL     1       9.674   0.873  23.578  0.00  0.00    +0.054 A 
ATOM      6  C   UNL     1       9.784   0.948  22.192  0.00  0.00    +0.117 A 
ATOM      7  C   UNL     1       9.451  -0.135  21.392  0.00  0.00    +0.046 A 
ATOM      8  C   UNL     1       9.010  -1.319  21.983  0.00  0.00    +0.012 A 
ATOM      9  C   UNL     1       8.881  -1.422  23.379  0.00  0.00    -0.017 A 
ATOM     10  C   UNL     1       8.423  -2.605  23.989  0.00  0.00    +0.018 A 
ENDROOT
BRANCH   1  15
ATOM     11  C   UNL     1       4.443  -6.483  25.937  0.00  0.00    +0.120 A 
ATOM     12  C   UNL     1       4.364  -5.448  25.009  0.00  0.00    +0.046 A 
ATOM     13  C   UNL     1       5.384  -4.491  24.914  0.00  0.00    +0.017 A 
ATOM     14  C   UNL     1       6.502  -4.605  25.764  0.00  0.00    +0.049 A 
ATOM     15  C   UNL     1       7.724  -3.901  26.017  0.00  0.00    +0.121 A 
ATOM     16  N   UNL     1       8.406  -4.495  27.014  0.00  0.00    -0.077 NA
ATOM     17  O   UNL     1       7.657  -5.582  27.411  0.00  0.00    -0.354 OA
ATOM     18  C   UNL     1       6.523  -5.651  26.672  0.00  0.00    +0.171 A 
ATOM     19  C   UNL     1       5.525  -6.616  26.804  0.00  0.00    +0.095 A 
BRANCH  11  20
ATOM     20  O   UNL     1       3.405  -7.371  25.971  0.00  0.00    -0.507 OA
ATOM     21  H   UNL     1       3.322  -7.794  25.100  0.00  0.00    +0.292 HD
ENDBRANCH  11  20
ENDBRANCH   1  15
BRANCH   6  22
ATOM     22  O   UNL     1      10.221   2.083  21.575  0.00  0.00    -0.507 OA
ATOM     23  H   UNL     1       9.454   2.650  21.387  0.00  0.00    +0.292 HD
ENDBRANCH   6  22
TORSDOF 3
ENDMDL
MODEL 5
REMARK VINA RESULT:      -7.4      2.524      7.447
REMARK  Name = 
REMARK  3 active torsions:
REMARK  status: ('A' for Active; 'I' for Inactive)
REMARK    1  A    between atoms: O_1  and  C_2
REMARK    2  A    between atoms: C_8  and  C_11
REMARK    3  A    between atoms: C_18  and  O_19
REMARK                            x       y       z     vdW  Elec       q    Type
REMARK                         _______ _______ _______ _____ _____    ______ ____
ROOT
ATOM      1  C   UNL     1       7.896  -3.628  24.446  0.00  0.00    +0.005 A 
ATOM      2  C   UNL     1       8.020  -3.949  25.805  0.00  0.00    +0.011 A 
ATOM      3  C   UNL     1       7.148  -4.856  26.412  0.00  0.00    +0.009 A 
ATOM      4  C   UNL     1       6.134  -5.478  25.672  0.00  0.00    -0.014 A 
ATOM      5  C   UNL     1       5.264  -6.408  26.265  0.00  0.00    +0.054 A 
ATOM      6  C   UNL     1       4.280  -7.027  25.499  0.00  0.00    +0.117 A 
ATOM      7  C   UNL     1       4.137  -6.734  24.151  0.00  0.00    +0.046 A 
ATOM      8  C   UNL     1       4.983  -5.798  23.555  0.00  0.00    +0.012 A 
ATOM      9  C   UNL     1       5.990  -5.162  24.302  0.00  0.00    -0.017 A 
ATOM     10  C   UNL     1       6.860  -4.226  23.711  0.00  0.00    +0.018 A 
ENDROOT
BRANCH   1  15
ATOM     11  C   UNL     1       9.000   1.065  22.007  0.00  0.00    +0.120 A 
ATOM     12  C   UNL     1       7.725   0.705  22.436  0.00  0.00    +0.046 A 
ATOM     13  C   UNL     1       7.501  -0.530  23.060  0.00  0.00    +0.017 A 
ATOM     14  C   UNL     1       8.595  -1.395  23.264  0.00  0.00    +0.049 A 
ATOM     15  C   UNL     1       8.838  -2.691  23.826  0.00  0.00    +0.121 A 
ATOM     16  N   UNL     1      10.138  -3.017  23.698  0.00  0.00    -0.077 NA
ATOM     17  O   UNL     1      10.752  -1.954  23.072  0.00  0.00    -0.354 OA
ATOM     18  C   UNL     1       9.838  -0.988  22.810  0.00  0.00    +0.171 A 
ATOM     19  C   UNL     1      10.100   0.227  22.175  0.00  0.00    +0.095 A 
BRANCH  11  20
ATOM     20  O   UNL     1       9.133   2.282  21.401  0.00  0.00    -0.507 OA
ATOM     21  H   UNL     1       9.598   2.886  22.005  0.00  0.00    +0.292 HD
ENDBRANCH  11  20
ENDBRANCH   1  15
BRANCH   6  22
ATOM     22  O   UNL     1       3.426  -7.941  26.044  0.00  0.00    -0.507 OA
ATOM     23  H   UNL     1       3.926  -8.746  26.257  0.00  0.00    +0.292 HD
ENDBRANCH   6  22
TORSDOF 3
ENDMDL
MODEL 6
REMARK VINA RESULT:      -7.4      2.169      7.290
REMARK  Name = 
REMARK  3 active torsions:
REMARK  status: ('A' for Active; 'I' for Inactive)
REMARK    1  A    between atoms: O_1  and  C_2
REMARK    2  A    between atoms: C_8  and  C_11
REMARK    3  A    between atoms: C_18  and  O_19
REMARK                            x       y       z     vdW  Elec       q    Type
REMARK                         _______ _______ _______ _____ _____    ______ ____
ROOT
ATOM      1  C   UNL     1       8.148  -2.548  24.155  0.00  0.00    +0.005 A 
ATOM      2  C   UNL     1       8.711  -2.695  25.431  0.00  0.00    +0.011 A 
ATOM      3  C   UNL     1       8.214  -3.641  26.332  0.00  0.00    +0.009 A 
ATOM      4  C   UNL     1       7.148  -4.477  25.974  0.00  0.00    -0.014 A 
ATOM      5  C   UNL     1       6.652  -5.447  26.861  0.00  0.00    +0.054 A 
ATOM      6  C   UNL     1       5.606  -6.279  26.470  0.00  0.00    +0.117 A 
ATOM      7  C   UNL     1       5.035  -6.160  25.212  0.00  0.00    +0.046 A 
ATOM      8  C   UNL     1       5.505  -5.187  24.329  0.00  0.00    +0.012 A 
ATOM      9  C   UNL     1       6.564  -4.338  24.694  0.00  0.00    -0.017 A 
ATOM     10  C   UNL     1       7.059  -3.361  23.809  0.00  0.00    +0.018 A 
ENDROOT
BRANCH   1  15
ATOM     11  C   UNL     1      10.135   2.357  23.066  0.00  0.00    +0.120 A 
ATOM     12  C   UNL     1       9.739   1.955  24.338  0.00  0.00    +0.046 A 
ATOM     13  C   UNL     1       9.226   0.669  24.557  0.00  0.00    +0.017 A 
ATOM     14  C   UNL     1       9.138  -0.220  23.468  0.00  0.00    +0.049 A 
ATOM     15  C   UNL     1       8.703  -1.563  23.221  0.00  0.00    +0.121 A 
ATOM     16  N   UNL     1       8.837  -1.863  21.915  0.00  0.00    -0.077 NA
ATOM     17  O   UNL     1       9.362  -0.745  21.305  0.00  0.00    -0.354 OA
ATOM     18  C   UNL     1       9.541   0.236  22.223  0.00  0.00    +0.171 A 
ATOM     19  C   UNL     1      10.045   1.510  21.963  0.00  0.00    +0.095 A 
BRANCH  11  20
ATOM     20  O   UNL     1      10.616   3.629  22.935  0.00  0.00    -0.507 OA
ATOM     21  H   UNL     1      11.351   3.625  22.298  0.00  0.00    +0.292 HD
ENDBRANCH  11  20
ENDBRANCH   1  15
BRANCH   6  22
ATOM     22  O   UNL     1       5.110  -7.236  27.305  0.00  0.00    -0.507 OA
ATOM     23  H   UNL     1       5.117  -8.089  26.840  0.00  0.00    +0.292 HD
ENDBRANCH   6  22
TORSDOF 3
ENDMDL
MODEL 7
REMARK VINA RESULT:      -7.3      2.822      3.247
REMARK  Name = 
REMARK  3 active torsions:
REMARK  status: ('A' for Active; 'I' for Inactive)
REMARK    1  A    between atoms: O_1  and  C_2
REMARK    2  A    between atoms: C_8  and  C_11
REMARK    3  A    between atoms: C_18  and  O_19
REMARK                            x       y       z     vdW  Elec       q    Type
REMARK                         _______ _______ _______ _____ _____    ______ ____
ROOT
ATOM      1  C   UNL     1       7.113  -2.146  22.785  0.00  0.00    +0.005 A 
ATOM      2  C   UNL     1       8.293  -2.397  22.071  0.00  0.00    +0.011 A 
ATOM      3  C   UNL     1       9.226  -1.382  21.844  0.00  0.00    +0.009 A 
ATOM      4  C   UNL     1       9.011  -0.090  22.339  0.00  0.00    -0.014 A 
ATOM      5  C   UNL     1       9.951   0.935  22.137  0.00  0.00    +0.054 A 
ATOM      6  C   UNL     1       9.720   2.204  22.660  0.00  0.00    +0.117 A 
ATOM      7  C   UNL     1       8.565   2.480  23.377  0.00  0.00    +0.046 A 
ATOM      8  C   UNL     1       7.615   1.476  23.566  0.00  0.00    +0.012 A 
ATOM      9  C   UNL     1       7.823   0.183  23.056  0.00  0.00    -0.017 A 
ATOM     10  C   UNL     1       6.881  -0.844  23.253  0.00  0.00    +0.018 A 
ENDROOT
BRANCH   1  15
ATOM     11  C   UNL     1       5.261  -6.239  25.787  0.00  0.00    +0.120 A 
ATOM     12  C   UNL     1       6.355  -5.457  26.147  0.00  0.00    +0.046 A 
ATOM     13  C   UNL     1       6.791  -4.410  25.323  0.00  0.00    +0.017 A 
ATOM     14  C   UNL     1       6.088  -4.149  24.130  0.00  0.00    +0.049 A 
ATOM     15  C   UNL     1       6.160  -3.234  23.030  0.00  0.00    +0.121 A 
ATOM     16  N   UNL     1       5.193  -3.506  22.134  0.00  0.00    -0.077 NA
ATOM     17  O   UNL     1       4.482  -4.576  22.634  0.00  0.00    -0.354 OA
ATOM     18  C   UNL     1       5.012  -4.963  23.819  0.00  0.00    +0.171 A 
ATOM     19  C   UNL     1       4.554  -6.020  24.606  0.00  0.00    +0.095 A 
BRANCH  11  20
ATOM     20  O   UNL     1       4.905  -7.244  26.641  0.00  0.00    -0.507 OA
ATOM     21  H   UNL     1       5.272  -7.056  27.521  0.00  0.00    +0.292 HD
ENDBRANCH  11  20
ENDBRANCH   1  15
BRANCH   6  22
ATOM     22  O   UNL     1      10.618   3.217  22.489  0.00  0.00    -0.507 OA
ATOM     23  H   UNL     1      11.022   3.130  21.610  0.00  0.00    +0.292 HD
ENDBRANCH   6  22
TORSDOF 3
ENDMDL
MODEL 8
REMARK VINA RESULT:      -7.2      2.374      2.598
REMARK  Name = 
REMARK  3 active torsions:
REMARK  status: ('A' for Active; 'I' for Inactive)
REMARK    1  A    between atoms: O_1  and  C_2
REMARK    2  A    between atoms: C_8  and  C_11
REMARK    3  A    between atoms: C_18  and  O_19
REMARK                            x       y       z     vdW  Elec       q    Type
REMARK                         _______ _______ _______ _____ _____    ______ ____
ROOT
ATOM      1  C   UNL     1       9.046  -1.083  23.689  0.00  0.00    +0.005 A 
ATOM      2  C   UNL     1      10.170  -0.616  24.385  0.00  0.00    +0.011 A 
ATOM      3  C   UNL     1      10.462   0.750  24.446  0.00  0.00    +0.009 A 
ATOM      4  C   UNL     1       9.628   1.687  23.823  0.00  0.00    -0.014 A 
ATOM      5  C   UNL     1       9.897   3.064  23.895  0.00  0.00    +0.054 A 
ATOM      6  C   UNL     1       9.038   3.974  23.284  0.00  0.00    +0.117 A 
ATOM      7  C   UNL     1       7.916   3.541  22.595  0.00  0.00    +0.046 A 
ATOM      8  C   UNL     1       7.649   2.175  22.499  0.00  0.00    +0.012 A 
ATOM      9  C   UNL     1       8.494   1.233  23.111  0.00  0.00    -0.017 A 
ATOM     10  C   UNL     1       8.229  -0.148  23.037  0.00  0.00    +0.018 A 
ENDROOT
BRANCH   1  15
ATOM     11  C   UNL     1       5.889  -5.242  22.299  0.00  0.00    +0.120 A 
ATOM     12  C   UNL     1       5.599  -3.918  21.981  0.00  0.00    +0.046 A 
ATOM     13  C   UNL     1       6.457  -2.881  22.373  0.00  0.00    +0.017 A 
ATOM     14  C   UNL     1       7.632  -3.204  23.080  0.00  0.00    +0.049 A 
ATOM     15  C   UNL     1       8.749  -2.519  23.659  0.00  0.00    +0.121 A 
ATOM     16  N   UNL     1       9.574  -3.398  24.258  0.00  0.00    -0.077 NA
ATOM     17  O   UNL     1       9.023  -4.647  24.073  0.00  0.00    -0.354 OA
ATOM     18  C   UNL     1       7.866  -4.537  23.375  0.00  0.00    +0.171 A 
ATOM     19  C   UNL     1       7.033  -5.595  23.012  0.00  0.00    +0.095 A 
BRANCH  11  20
ATOM     20  O   UNL     1       4.999  -6.192  21.887  0.00  0.00    -0.507 OA
ATOM     21  H   UNL     1       4.188  -6.117  22.417  0.00  0.00    +0.292 HD
ENDBRANCH  11  20
ENDBRANCH   1  15
BRANCH   6  22
ATOM     22  O   UNL     1       9.267   5.317  23.345  0.00  0.00    -0.507 OA
ATOM     23  H   UNL     1      10.045   5.525  22.800  0.00  0.00    +0.292 HD
ENDBRANCH   6  22
TORSDOF 3
ENDMDL
MODEL 9
REMARK VINA RESULT:      -7.2      2.870      7.500
REMARK  Name = 
REMARK  3 active torsions:
REMARK  status: ('A' for Active; 'I' for Inactive)
REMARK    1  A    between atoms: O_1  and  C_2
REMARK    2  A    between atoms: C_8  and  C_11
REMARK    3  A    between atoms: C_18  and  O_19
REMARK                            x       y       z     vdW  Elec       q    Type
REMARK                         _______ _______ _______ _____ _____    ______ ____
ROOT
ATOM      1  C   UNL     1       7.654  -3.037  24.194  0.00  0.00    +0.005 A 
ATOM      2  C   UNL     1       7.865  -3.821  23.051  0.00  0.00    +0.011 A 
ATOM      3  C   UNL     1       7.112  -4.977  22.823  0.00  0.00    +0.009 A 
ATOM      4  C   UNL     1       6.117  -5.372  23.726  0.00  0.00    -0.014 A 
ATOM      5  C   UNL     1       5.339  -6.518  23.498  0.00  0.00    +0.054 A 
ATOM      6  C   UNL     1       4.341  -6.874  24.402  0.00  0.00    +0.117 A 
ATOM      7  C   UNL     1       4.106  -6.114  25.538  0.00  0.00    +0.046 A 
ATOM      8  C   UNL     1       4.886  -4.984  25.786  0.00  0.00    +0.012 A 
ATOM      9  C   UNL     1       5.895  -4.596  24.887  0.00  0.00    -0.017 A 
ATOM     10  C   UNL     1       6.680  -3.450  25.116  0.00  0.00    +0.018 A 
ENDROOT
BRANCH   1  15
ATOM     11  C   UNL     1      10.028   1.441  22.324  0.00  0.00    +0.120 A 
ATOM     12  C   UNL     1       9.307   0.562  21.520  0.00  0.00    +0.046 A 
ATOM     13  C   UNL     1       8.716  -0.587  22.064  0.00  0.00    +0.017 A 
ATOM     14  C   UNL     1       8.849  -0.827  23.447  0.00  0.00    +0.049 A 
ATOM     15  C   UNL     1       8.440  -1.817  24.400  0.00  0.00    +0.121 A 
ATOM     16  N   UNL     1       8.915  -1.510  25.622  0.00  0.00    -0.077 NA
ATOM     17  O   UNL     1       9.617  -0.331  25.487  0.00  0.00    -0.354 OA
ATOM     18  C   UNL     1       9.583   0.078  24.196  0.00  0.00    +0.171 A 
ATOM     19  C   UNL     1      10.194   1.225  23.690  0.00  0.00    +0.095 A 
BRANCH  11  20
ATOM     20  O   UNL     1      10.579   2.533  21.716  0.00  0.00    -0.507 OA
ATOM     21  H   UNL     1      11.411   2.759  22.164  0.00  0.00    +0.292 HD
ENDBRANCH  11  20
ENDBRANCH   1  15
BRANCH   6  22
ATOM     22  O   UNL     1       3.563  -7.977  24.203  0.00  0.00    -0.507 OA
ATOM     23  H   UNL     1       3.094  -7.879  23.359  0.00  0.00    +0.292 HD
ENDBRANCH   6  22
TORSDOF 3
ENDMDL
