MODEL 1
REMARK VINA RESULT:      -7.2      0.000      0.000
REMARK  Name = 
REMARK  11 active torsions:
REMARK  status: ('A' for Active; 'I' for Inactive)
REMARK    1  A    between atoms: O_1  and  C_2
REMARK    2  A    between atoms: C_2  and  C_3
REMARK    3  A    between atoms: C_2  and  C_25
REMARK    4  A    between atoms: C_2  and  C_30
REMARK    5  A    between atoms: C_3  and  O_5
REMARK    6  A    between atoms: O_5  and  C_6
REMARK    7  A    between atoms: N_9  and  C_10
REMARK    8  A    between atoms: C_10  and  C_11
REMARK    9  A    between atoms: C_11  and  C_12
REMARK   10  A    between atoms: C_12  and  O_13
REMARK   11  A    between atoms: O_13  and  C_14
REMARK                            x       y       z     vdW  Elec       q    Type
REMARK                         _______ _______ _______ _____ _____    ______ ____
ROOT
ATOM      1  C   UNL     1       7.594  -1.165  22.925  0.00  0.00    +0.225 C 
ATOM      2  C   UNL     1       8.914  -1.706  22.360  0.00  0.00    +0.045 C 
ATOM      3  C   UNL     1       9.498  -0.648  21.411  0.00  0.00    +0.058 C 
ATOM      4  C   UNL     1       9.709   0.689  22.126  0.00  0.00    +0.133 C 
ATOM      5  N   UNL     1       9.351   0.547  23.611  0.00  0.00    +0.246 N 
ATOM      6  C   UNL     1      10.238  -0.587  24.208  0.00  0.00    +0.133 C 
ATOM      7  C   UNL     1       9.918  -1.911  23.502  0.00  0.00    +0.058 C 
ATOM      8  C   UNL     1       7.901   0.058  23.795  0.00  0.00    +0.179 C 
ENDROOT
BRANCH   1   9
ATOM      9  O   UNL     1       6.916  -2.167  23.693  0.00  0.00    -0.453 OA
BRANCH   9  10
ATOM     10  C   UNL     1       6.259  -3.139  22.977  0.00  0.00    +0.350 C 
ATOM     11  O   UNL     1       5.697  -2.890  21.913  0.00  0.00    -0.247 OA
BRANCH  10  12
ATOM     12  C   UNL     1       6.225  -4.535  23.676  0.00  0.00    +0.226 C 
BRANCH  12  13
ATOM     13  C   UNL     1       7.389  -4.707  24.639  0.00  0.00    +0.037 A 
ATOM     14  S   UNL     1       7.249  -4.311  26.317  0.00  0.00    -0.098 S 
ATOM     15  C   UNL     1       8.922  -4.505  26.578  0.00  0.00    +0.045 A 
ATOM     16  C   UNL     1       9.550  -5.046  25.481  0.00  0.00    +0.008 A 
ATOM     17  C   UNL     1       8.665  -5.185  24.374  0.00  0.00    +0.015 A 
ENDBRANCH  12  13
BRANCH  12  18
ATOM     18  C   UNL     1       4.861  -4.834  24.282  0.00  0.00    +0.037 A 
ATOM     19  S   UNL     1       4.349  -6.438  24.641  0.00  0.00    -0.098 S 
ATOM     20  C   UNL     1       2.821  -5.912  25.189  0.00  0.00    +0.045 A 
ATOM     21  C   UNL     1       2.694  -4.545  25.131  0.00  0.00    +0.008 A 
ATOM     22  C   UNL     1       3.865  -3.924  24.614  0.00  0.00    +0.015 A 
ENDBRANCH  12  18
BRANCH  12  23
ATOM     23  O   UNL     1       6.409  -5.520  22.639  0.00  0.00    -0.369 OA
ATOM     24  H   UNL     1       7.346  -5.482  22.374  0.00  0.00    +0.212 HD
ENDBRANCH  12  23
ENDBRANCH  10  12
ENDBRANCH   9  10
ENDBRANCH   1   9
BRANCH   5  25
ATOM     25  C   UNL     1       9.659   1.866  24.383  0.00  0.00    +0.136 C 
BRANCH  25  26
ATOM     26  C   UNL     1       8.532   2.925  24.467  0.00  0.00    +0.092 C 
BRANCH  26  27
ATOM     27  C   UNL     1       8.663   4.012  23.412  0.00  0.00    +0.234 C 
BRANCH  27  28
ATOM     28  O   UNL     1       8.585   5.358  23.851  0.00  0.00    -0.492 OA
BRANCH  28  29
ATOM     29  C   UNL     1       9.820   5.815  24.291  0.00  0.00    +0.121 A 
ATOM     30  C   UNL     1       9.806   6.570  25.463  0.00  0.00    +0.045 A 
ATOM     31  C   UNL     1      10.996   7.099  25.975  0.00  0.00    +0.004 A 
ATOM     32  C   UNL     1      12.213   6.877  25.323  0.00  0.00    +0.000 A 
ATOM     33  C   UNL     1      12.240   6.112  24.164  0.00  0.00    +0.004 A 
ATOM     34  C   UNL     1      11.052   5.584  23.652  0.00  0.00    +0.045 A 
ENDBRANCH  28  29
ENDBRANCH  27  28
ENDBRANCH  26  27
ENDBRANCH  25  26
ENDBRANCH   5  25
TORSDOF 11
ENDMDL
MODEL 2
REMARK VINA RESULT:      -6.9      1.678      2.541
REMARK  Name = 
REMARK  11 active torsions:
REMARK  status: ('A' for Active; 'I' for Inactive)
REMARK    1  A    between atoms: O_1  and  C_2
REMARK    2  A    between atoms: C_2  and  C_3
REMARK    3  A    between atoms: C_2  and  C_25
REMARK    4  A    between atoms: C_2  and  C_30
REMARK    5  A    between atoms: C_3  and  O_5
REMARK    6  A    between atoms: O_5  and  C_6
REMARK    7  A    between atoms: N_9  and  C_10
REMARK    8  A    between atoms: C_10  and  C_11
REMARK    9  A    between atoms: C_11  and  C_12
REMARK   10  A    between atoms: C_12  and  O_13
REMARK   11  A    between atoms: O_13  and  C_14
REMARK                            x       y       z     vdW  Elec       q    Type
REMARK                         _______ _______ _______ _____ _____    ______ ____
ROOT
ATOM      1  C   UNL     1       7.903  -1.233  23.712  0.00  0.00    +0.225 C 
ATOM      2  C   UNL     1       9.115  -1.746  22.921  0.00  0.00    +0.045 C 
ATOM      3  C   UNL     1       9.124  -1.048  21.553  0.00  0.00    +0.058 C 
ATOM      4  C   UNL     1       9.166   0.475  21.702  0.00  0.00    +0.133 C 
ATOM      5  N   UNL     1       9.273   0.850  23.185  0.00  0.00    +0.246 N 
ATOM      6  C   UNL     1      10.551   0.166  23.759  0.00  0.00    +0.133 C 
ATOM      7  C   UNL     1      10.407  -1.358  23.651  0.00  0.00    +0.058 C 
ATOM      8  C   UNL     1       8.105   0.258  23.999  0.00  0.00    +0.179 C 
ENDROOT
BRANCH   1   9
ATOM      9  O   UNL     1       7.742  -1.962  24.935  0.00  0.00    -0.453 OA
BRANCH   9  10
ATOM     10  C   UNL     1       6.619  -2.747  25.030  0.00  0.00    +0.350 C 
ATOM     11  O   UNL     1       5.515  -2.269  25.282  0.00  0.00    -0.247 OA
BRANCH  10  12
ATOM     12  C   UNL     1       6.893  -4.276  24.877  0.00  0.00    +0.226 C 
BRANCH  12  13
ATOM     13  C   UNL     1       6.062  -5.094  25.853  0.00  0.00    +0.037 A 
ATOM     14  S   UNL     1       6.514  -5.265  27.513  0.00  0.00    -0.098 S 
ATOM     15  C   UNL     1       5.325  -6.452  27.792  0.00  0.00    +0.045 A 
ATOM     16  C   UNL     1       4.473  -6.583  26.720  0.00  0.00    +0.008 A 
ATOM     17  C   UNL     1       4.883  -5.784  25.614  0.00  0.00    +0.015 A 
ENDBRANCH  12  13
BRANCH  12  18
ATOM     18  C   UNL     1       6.786  -4.731  23.428  0.00  0.00    +0.037 A 
ATOM     19  S   UNL     1       5.683  -4.007  22.320  0.00  0.00    -0.098 S 
ATOM     20  C   UNL     1       6.142  -5.059  21.056  0.00  0.00    +0.045 A 
ATOM     21  C   UNL     1       7.130  -5.933  21.444  0.00  0.00    +0.008 A 
ATOM     22  C   UNL     1       7.503  -5.743  22.804  0.00  0.00    +0.015 A 
ENDBRANCH  12  18
BRANCH  12  23
ATOM     23  O   UNL     1       8.272  -4.487  25.244  0.00  0.00    -0.369 OA
ATOM     24  H   UNL     1       8.793  -4.454  24.422  0.00  0.00    +0.212 HD
ENDBRANCH  12  23
ENDBRANCH  10  12
ENDBRANCH   9  10
ENDBRANCH   1   9
BRANCH   5  25
ATOM     25  C   UNL     1       9.424   2.391  23.357  0.00  0.00    +0.136 C 
BRANCH  25  26
ATOM     26  C   UNL     1       8.236   3.281  22.917  0.00  0.00    +0.092 C 
BRANCH  26  27
ATOM     27  C   UNL     1       8.101   4.543  23.754  0.00  0.00    +0.234 C 
BRANCH  27  28
ATOM     28  O   UNL     1       8.681   5.730  23.239  0.00  0.00    -0.492 OA
BRANCH  28  29
ATOM     29  C   UNL     1       9.887   6.013  23.866  0.00  0.00    +0.121 A 
ATOM     30  C   UNL     1       9.800   6.748  25.047  0.00  0.00    +0.045 A 
ATOM     31  C   UNL     1      10.960   7.108  25.741  0.00  0.00    +0.004 A 
ATOM     32  C   UNL     1      12.220   6.733  25.265  0.00  0.00    +0.000 A 
ATOM     33  C   UNL     1      12.317   5.985  24.099  0.00  0.00    +0.004 A 
ATOM     34  C   UNL     1      11.159   5.627  23.404  0.00  0.00    +0.045 A 
ENDBRANCH  28  29
ENDBRANCH  27  28
ENDBRANCH  26  27
ENDBRANCH  25  26
ENDBRANCH   5  25
TORSDOF 11
ENDMDL
MODEL 3
REMARK VINA RESULT:      -6.9      2.018      3.882
REMARK  Name = 
REMARK  11 active torsions:
REMARK  status: ('A' for Active; 'I' for Inactive)
REMARK    1  A    between atoms: O_1  and  C_2
REMARK    2  A    between atoms: C_2  and  C_3
REMARK    3  A    between atoms: C_2  and  C_25
REMARK    4  A    between atoms: C_2  and  C_30
REMARK    5  A    between atoms: C_3  and  O_5
REMARK    6  A    between atoms: O_5  and  C_6
REMARK    7  A    between atoms: N_9  and  C_10
REMARK    8  A    between atoms: C_10  and  C_11
REMARK    9  A    between atoms: C_11  and  C_12
REMARK   10  A    between atoms: C_12  and  O_13
REMARK   11  A    between atoms: O_13  and  C_14
REMARK                            x       y       z     vdW  Elec       q    Type
REMARK                         _______ _______ _______ _____ _____    ______ ____
ROOT
ATOM      1  C   UNL     1       6.633  -1.589  24.449  0.00  0.00    +0.225 C 
ATOM      2  C   UNL     1       6.350  -1.524  25.956  0.00  0.00    +0.045 C 
ATOM      3  C   UNL     1       7.572  -0.902  26.647  0.00  0.00    +0.058 C 
ATOM      4  C   UNL     1       7.887   0.486  26.083  0.00  0.00    +0.133 C 
ATOM      5  N   UNL     1       6.827   0.880  25.047  0.00  0.00    +0.246 N 
ATOM      6  C   UNL     1       5.436   0.830  25.748  0.00  0.00    +0.133 C 
ATOM      7  C   UNL     1       5.150  -0.603  26.216  0.00  0.00    +0.058 C 
ATOM      8  C   UNL     1       6.739  -0.159  23.911  0.00  0.00    +0.179 C 
ENDROOT
BRANCH   1   9
ATOM      9  O   UNL     1       5.599  -2.306  23.763  0.00  0.00    -0.453 OA
BRANCH   9  10
ATOM     10  C   UNL     1       6.012  -3.319  22.932  0.00  0.00    +0.350 C 
ATOM     11  O   UNL     1       6.256  -3.122  21.744  0.00  0.00    -0.247 OA
BRANCH  10  12
ATOM     12  C   UNL     1       6.055  -4.725  23.611  0.00  0.00    +0.226 C 
BRANCH  12  13
ATOM     13  C   UNL     1       7.220  -4.843  24.581  0.00  0.00    +0.037 A 
ATOM     14  S   UNL     1       6.975  -5.156  26.264  0.00  0.00    -0.098 S 
ATOM     15  C   UNL     1       8.614  -4.870  26.631  0.00  0.00    +0.045 A 
ATOM     16  C   UNL     1       9.375  -4.733  25.494  0.00  0.00    +0.008 A 
ATOM     17  C   UNL     1       8.578  -4.742  24.314  0.00  0.00    +0.015 A 
ENDBRANCH  12  13
BRANCH  12  18
ATOM     18  C   UNL     1       4.706  -5.112  24.201  0.00  0.00    +0.037 A 
ATOM     19  S   UNL     1       4.202  -6.753  24.335  0.00  0.00    -0.098 S 
ATOM     20  C   UNL     1       2.688  -6.316  24.992  0.00  0.00    +0.045 A 
ATOM     21  C   UNL     1       2.562  -4.955  25.138  0.00  0.00    +0.008 A 
ATOM     22  C   UNL     1       3.720  -4.263  24.688  0.00  0.00    +0.015 A 
ENDBRANCH  12  18
BRANCH  12  23
ATOM     23  O   UNL     1       6.304  -5.682  22.561  0.00  0.00    -0.369 OA
ATOM     24  H   UNL     1       5.878  -5.338  21.755  0.00  0.00    +0.212 HD
ENDBRANCH  12  23
ENDBRANCH  10  12
ENDBRANCH   9  10
ENDBRANCH   1   9
BRANCH   5  25
ATOM     25  C   UNL     1       7.065   2.333  24.536  0.00  0.00    +0.136 C 
BRANCH  25  26
ATOM     26  C   UNL     1       8.396   3.021  24.928  0.00  0.00    +0.092 C 
BRANCH  26  27
ATOM     27  C   UNL     1       9.395   3.070  23.783  0.00  0.00    +0.234 C 
BRANCH  27  28
ATOM     28  O   UNL     1      10.523   2.214  23.866  0.00  0.00    -0.492 OA
BRANCH  28  29
ATOM     29  C   UNL     1      10.266   0.987  23.269  0.00  0.00    +0.121 A 
ATOM     30  C   UNL     1       9.734   1.037  21.982  0.00  0.00    +0.045 A 
ATOM     31  C   UNL     1       9.415  -0.145  21.304  0.00  0.00    +0.004 A 
ATOM     32  C   UNL     1       9.629  -1.390  21.904  0.00  0.00    +0.000 A 
ATOM     33  C   UNL     1      10.176  -1.451  23.179  0.00  0.00    +0.004 A 
ATOM     34  C   UNL     1      10.493  -0.271  23.857  0.00  0.00    +0.045 A 
ENDBRANCH  28  29
ENDBRANCH  27  28
ENDBRANCH  26  27
ENDBRANCH  25  26
ENDBRANCH   5  25
TORSDOF 11
ENDMDL
MODEL 4
REMARK VINA RESULT:      -6.8      2.793      4.301
REMARK  Name = 
REMARK  11 active torsions:
REMARK  status: ('A' for Active; 'I' for Inactive)
REMARK    1  A    between atoms: O_1  and  C_2
REMARK    2  A    between atoms: C_2  and  C_3
REMARK    3  A    between atoms: C_2  and  C_25
REMARK    4  A    between atoms: C_2  and  C_30
REMARK    5  A    between atoms: C_3  and  O_5
REMARK    6  A    between atoms: O_5  and  C_6
REMARK    7  A    between atoms: N_9  and  C_10
REMARK    8  A    between atoms: C_10  and  C_11
REMARK    9  A    between atoms: C_11  and  C_12
REMARK   10  A    between atoms: C_12  and  O_13
REMARK   11  A    between atoms: O_13  and  C_14
REMARK                            x       y       z     vdW  Elec       q    Type
REMARK                         _______ _______ _______ _____ _____    ______ ____
ROOT
ATOM      1  C   UNL     1       7.564  -0.971  25.384  0.00  0.00    +0.225 C 
ATOM      2  C   UNL     1       7.063  -0.689  26.807  0.00  0.00    +0.045 C 
ATOM      3  C   UNL     1       7.571   0.698  27.227  0.00  0.00    +0.058 C 
ATOM      4  C   UNL     1       7.105   1.783  26.252  0.00  0.00    +0.133 C 
ATOM      5  N   UNL     1       6.193   1.167  25.185  0.00  0.00    +0.246 N 
ATOM      6  C   UNL     1       5.000   0.480  25.917  0.00  0.00    +0.133 C 
ATOM      7  C   UNL     1       5.530  -0.646  26.814  0.00  0.00    +0.058 C 
ATOM      8  C   UNL     1       6.904   0.027  24.428  0.00  0.00    +0.179 C 
ENDROOT
BRANCH   1   9
ATOM      9  O   UNL     1       7.262  -2.316  24.990  0.00  0.00    -0.453 OA
BRANCH   9  10
ATOM     10  C   UNL     1       8.335  -3.102  24.647  0.00  0.00    +0.350 C 
ATOM     11  O   UNL     1       9.450  -2.626  24.448  0.00  0.00    -0.247 OA
BRANCH  10  12
ATOM     12  C   UNL     1       7.985  -4.612  24.455  0.00  0.00    +0.226 C 
BRANCH  12  13
ATOM     13  C   UNL     1       7.201  -5.160  25.637  0.00  0.00    +0.037 A 
ATOM     14  S   UNL     1       5.583  -5.745  25.464  0.00  0.00    -0.098 S 
ATOM     15  C   UNL     1       5.375  -5.883  27.150  0.00  0.00    +0.045 A 
ATOM     16  C   UNL     1       6.554  -5.684  27.828  0.00  0.00    +0.008 A 
ATOM     17  C   UNL     1       7.610  -5.292  26.956  0.00  0.00    +0.015 A 
ENDBRANCH  12  13
BRANCH  12  18
ATOM     18  C   UNL     1       7.343  -4.878  23.100  0.00  0.00    +0.037 A 
ATOM     19  S   UNL     1       6.424  -3.682  22.270  0.00  0.00    -0.098 S 
ATOM     20  C   UNL     1       6.064  -4.740  20.980  0.00  0.00    +0.045 A 
ATOM     21  C   UNL     1       6.644  -5.975  21.148  0.00  0.00    +0.008 A 
ATOM     22  C   UNL     1       7.382  -6.055  22.363  0.00  0.00    +0.015 A 
ENDBRANCH  12  18
BRANCH  12  23
ATOM     23  O   UNL     1       9.237  -5.327  24.434  0.00  0.00    -0.369 OA
ATOM     24  H   UNL     1       9.090  -6.144  23.925  0.00  0.00    +0.212 HD
ENDBRANCH  12  23
ENDBRANCH  10  12
ENDBRANCH   9  10
ENDBRANCH   1   9
BRANCH   5  25
ATOM     25  C   UNL     1       5.620   2.268  24.243  0.00  0.00    +0.136 C 
BRANCH  25  26
ATOM     26  C   UNL     1       6.309   3.655  24.262  0.00  0.00    +0.092 C 
BRANCH  26  27
ATOM     27  C   UNL     1       7.244   3.866  23.082  0.00  0.00    +0.234 C 
BRANCH  27  28
ATOM     28  O   UNL     1       8.637   3.881  23.350  0.00  0.00    -0.492 OA
BRANCH  28  29
ATOM     29  C   UNL     1       9.203   2.632  23.134  0.00  0.00    +0.121 A 
ATOM     30  C   UNL     1       8.871   2.015  21.929  0.00  0.00    +0.045 A 
ATOM     31  C   UNL     1       9.369   0.742  21.627  0.00  0.00    +0.004 A 
ATOM     32  C   UNL     1      10.207   0.075  22.525  0.00  0.00    +0.000 A 
ATOM     33  C   UNL     1      10.558   0.688  23.721  0.00  0.00    +0.004 A 
ATOM     34  C   UNL     1      10.060   1.958  24.023  0.00  0.00    +0.045 A 
ENDBRANCH  28  29
ENDBRANCH  27  28
ENDBRANCH  26  27
ENDBRANCH  25  26
ENDBRANCH   5  25
TORSDOF 11
ENDMDL
MODEL 5
REMARK VINA RESULT:      -6.8      2.610      4.813
REMARK  Name = 
REMARK  11 active torsions:
REMARK  status: ('A' for Active; 'I' for Inactive)
REMARK    1  A    between atoms: O_1  and  C_2
REMARK    2  A    between atoms: C_2  and  C_3
REMARK    3  A    between atoms: C_2  and  C_25
REMARK    4  A    between atoms: C_2  and  C_30
REMARK    5  A    between atoms: C_3  and  O_5
REMARK    6  A    between atoms: O_5  and  C_6
REMARK    7  A    between atoms: N_9  and  C_10
REMARK    8  A    between atoms: C_10  and  C_11
REMARK    9  A    between atoms: C_11  and  C_12
REMARK   10  A    between atoms: C_12  and  O_13
REMARK   11  A    between atoms: O_13  and  C_14
REMARK                            x       y       z     vdW  Elec       q    Type
REMARK                         _______ _______ _______ _____ _____    ______ ____
ROOT
ATOM      1  C   UNL     1       7.151  -1.440  26.071  0.00  0.00    +0.225 C 
ATOM      2  C   UNL     1       5.814  -1.235  25.346  0.00  0.00    +0.045 C 
ATOM      3  C   UNL     1       5.003  -0.189  26.126  0.00  0.00    +0.058 C 
ATOM      4  C   UNL     1       5.768   1.130  26.257  0.00  0.00    +0.133 C 
ATOM      5  N   UNL     1       7.094   1.040  25.491  0.00  0.00    +0.246 N 
ATOM      6  C   UNL     1       6.764   0.695  24.007  0.00  0.00    +0.133 C 
ATOM      7  C   UNL     1       6.071  -0.673  23.942  0.00  0.00    +0.058 C 
ATOM      8  C   UNL     1       7.954  -0.138  25.992  0.00  0.00    +0.179 C 
ENDROOT
BRANCH   1   9
ATOM      9  O   UNL     1       7.891  -2.520  25.488  0.00  0.00    -0.453 OA
BRANCH   9  10
ATOM     10  C   UNL     1       8.116  -3.607  26.297  0.00  0.00    +0.350 C 
ATOM     11  O   UNL     1       8.975  -3.594  27.176  0.00  0.00    -0.247 OA
BRANCH  10  12
ATOM     12  C   UNL     1       7.255  -4.859  25.938  0.00  0.00    +0.226 C 
BRANCH  12  13
ATOM     13  C   UNL     1       6.047  -4.989  26.852  0.00  0.00    +0.037 A 
ATOM     14  S   UNL     1       5.182  -6.478  27.012  0.00  0.00    -0.098 S 
ATOM     15  C   UNL     1       3.935  -5.742  27.909  0.00  0.00    +0.045 A 
ATOM     16  C   UNL     1       4.249  -4.449  28.255  0.00  0.00    +0.008 A 
ATOM     17  C   UNL     1       5.475  -4.023  27.667  0.00  0.00    +0.015 A 
ENDBRANCH  12  13
BRANCH  12  18
ATOM     18  C   UNL     1       6.925  -4.915  24.453  0.00  0.00    +0.037 A 
ATOM     19  S   UNL     1       5.342  -4.596  23.852  0.00  0.00    -0.098 S 
ATOM     20  C   UNL     1       5.807  -4.903  22.239  0.00  0.00    +0.045 A 
ATOM     21  C   UNL     1       7.141  -5.219  22.137  0.00  0.00    +0.008 A 
ATOM     22  C   UNL     1       7.785  -5.223  23.406  0.00  0.00    +0.015 A 
ENDBRANCH  12  18
BRANCH  12  23
ATOM     23  O   UNL     1       8.080  -6.015  26.191  0.00  0.00    -0.369 OA
ATOM     24  H   UNL     1       7.568  -6.609  26.769  0.00  0.00    +0.212 HD
ENDBRANCH  12  23
ENDBRANCH  10  12
ENDBRANCH   9  10
ENDBRANCH   1   9
BRANCH   5  25
ATOM     25  C   UNL     1       7.844   2.406  25.520  0.00  0.00    +0.136 C 
BRANCH  25  26
ATOM     26  C   UNL     1       8.336   2.981  24.169  0.00  0.00    +0.092 C 
BRANCH  26  27
ATOM     27  C   UNL     1       9.851   2.954  24.033  0.00  0.00    +0.234 C 
BRANCH  27  28
ATOM     28  O   UNL     1      10.386   2.464  22.814  0.00  0.00    -0.492 OA
BRANCH  28  29
ATOM     29  C   UNL     1      10.156   1.102  22.676  0.00  0.00    +0.121 A 
ATOM     30  C   UNL     1       9.433   0.720  21.547  0.00  0.00    +0.045 A 
ATOM     31  C   UNL     1       9.125  -0.627  21.329  0.00  0.00    +0.004 A 
ATOM     32  C   UNL     1       9.540  -1.608  22.236  0.00  0.00    +0.000 A 
ATOM     33  C   UNL     1      10.276  -1.240  23.355  0.00  0.00    +0.004 A 
ATOM     34  C   UNL     1      10.582   0.106  23.573  0.00  0.00    +0.045 A 
ENDBRANCH  28  29
ENDBRANCH  27  28
ENDBRANCH  26  27
ENDBRANCH  25  26
ENDBRANCH   5  25
TORSDOF 11
ENDMDL
MODEL 6
REMARK VINA RESULT:      -6.8      1.886      2.857
REMARK  Name = 
REMARK  11 active torsions:
REMARK  status: ('A' for Active; 'I' for Inactive)
REMARK    1  A    between atoms: O_1  and  C_2
REMARK    2  A    between atoms: C_2  and  C_3
REMARK    3  A    between atoms: C_2  and  C_25
REMARK    4  A    between atoms: C_2  and  C_30
REMARK    5  A    between atoms: C_3  and  O_5
REMARK    6  A    between atoms: O_5  and  C_6
REMARK    7  A    between atoms: N_9  and  C_10
REMARK    8  A    between atoms: C_10  and  C_11
REMARK    9  A    between atoms: C_11  and  C_12
REMARK   10  A    between atoms: C_12  and  O_13
REMARK   11  A    between atoms: O_13  and  C_14
REMARK                            x       y       z     vdW  Elec       q    Type
REMARK                         _______ _______ _______ _____ _____    ______ ____
ROOT
ATOM      1  C   UNL     1       8.255  -1.631  23.825  0.00  0.00    +0.225 C 
ATOM      2  C   UNL     1       9.786  -1.539  23.886  0.00  0.00    +0.045 C 
ATOM      3  C   UNL     1      10.318  -1.460  22.448  0.00  0.00    +0.058 C 
ATOM      4  C   UNL     1       9.723  -0.268  21.695  0.00  0.00    +0.133 C 
ATOM      5  N   UNL     1       8.829   0.548  22.636  0.00  0.00    +0.246 N 
ATOM      6  C   UNL     1       9.698   0.993  23.851  0.00  0.00    +0.133 C 
ATOM      7  C   UNL     1      10.195  -0.247  24.605  0.00  0.00    +0.058 C 
ATOM      8  C   UNL     1       7.710  -0.323  23.244  0.00  0.00    +0.179 C 
ENDROOT
BRANCH   1   9
ATOM      9  O   UNL     1       7.702  -1.869  25.126  0.00  0.00    -0.453 OA
BRANCH   9  10
ATOM     10  C   UNL     1       7.637  -3.182  25.526  0.00  0.00    +0.350 C 
ATOM     11  O   UNL     1       8.569  -3.726  26.114  0.00  0.00    -0.247 OA
BRANCH  10  12
ATOM     12  C   UNL     1       6.331  -3.918  25.091  0.00  0.00    +0.226 C 
BRANCH  12  13
ATOM     13  C   UNL     1       6.482  -4.568  23.725  0.00  0.00    +0.037 A 
ATOM     14  S   UNL     1       5.243  -4.462  22.524  0.00  0.00    -0.098 S 
ATOM     15  C   UNL     1       6.022  -5.592  21.514  0.00  0.00    +0.045 A 
ATOM     16  C   UNL     1       7.282  -5.899  21.970  0.00  0.00    +0.008 A 
ATOM     17  C   UNL     1       7.557  -5.292  23.229  0.00  0.00    +0.015 A 
ENDBRANCH  12  13
BRANCH  12  18
ATOM     18  C   UNL     1       5.818  -4.854  26.177  0.00  0.00    +0.037 A 
ATOM     19  S   UNL     1       5.712  -4.373  27.827  0.00  0.00    -0.098 S 
ATOM     20  C   UNL     1       5.141  -5.905  28.318  0.00  0.00    +0.045 A 
ATOM     21  C   UNL     1       5.003  -6.769  27.259  0.00  0.00    +0.008 A 
ATOM     22  C   UNL     1       5.388  -6.166  26.028  0.00  0.00    +0.015 A 
ENDBRANCH  12  18
BRANCH  12  23
ATOM     23  O   UNL     1       5.315  -2.904  24.946  0.00  0.00    -0.369 OA
ATOM     24  H   UNL     1       4.455  -3.363  24.937  0.00  0.00    +0.212 HD
ENDBRANCH  12  23
ENDBRANCH  10  12
ENDBRANCH   9  10
ENDBRANCH   1   9
BRANCH   5  25
ATOM     25  C   UNL     1       8.295   1.826  21.923  0.00  0.00    +0.136 C 
BRANCH  25  26
ATOM     26  C   UNL     1       6.942   2.405  22.408  0.00  0.00    +0.092 C 
BRANCH  26  27
ATOM     27  C   UNL     1       7.101   3.694  23.198  0.00  0.00    +0.234 C 
BRANCH  27  28
ATOM     28  O   UNL     1       7.677   3.598  24.491  0.00  0.00    -0.492 OA
BRANCH  28  29
ATOM     29  C   UNL     1       8.544   4.655  24.734  0.00  0.00    +0.121 A 
ATOM     30  C   UNL     1       9.617   4.776  23.852  0.00  0.00    +0.045 A 
ATOM     31  C   UNL     1      10.563   5.792  24.028  0.00  0.00    +0.004 A 
ATOM     32  C   UNL     1      10.444   6.701  25.084  0.00  0.00    +0.000 A 
ATOM     33  C   UNL     1       9.369   6.600  25.957  0.00  0.00    +0.004 A 
ATOM     34  C   UNL     1       8.426   5.584  25.784  0.00  0.00    +0.045 A 
ENDBRANCH  28  29
ENDBRANCH  27  28
ENDBRANCH  26  27
ENDBRANCH  25  26
ENDBRANCH   5  25
TORSDOF 11
ENDMDL
MODEL 7
REMARK VINA RESULT:      -6.7      1.437      2.752
REMARK  Name = 
REMARK  11 active torsions:
REMARK  status: ('A' for Active; 'I' for Inactive)
REMARK    1  A    between atoms: O_1  and  C_2
REMARK    2  A    between atoms: C_2  and  C_3
REMARK    3  A    between atoms: C_2  and  C_25
REMARK    4  A    between atoms: C_2  and  C_30
REMARK    5  A    between atoms: C_3  and  O_5
REMARK    6  A    between atoms: O_5  and  C_6
REMARK    7  A    between atoms: N_9  and  C_10
REMARK    8  A    between atoms: C_10  and  C_11
REMARK    9  A    between atoms: C_11  and  C_12
REMARK   10  A    between atoms: C_12  and  O_13
REMARK   11  A    between atoms: O_13  and  C_14
REMARK                            x       y       z     vdW  Elec       q    Type
REMARK                         _______ _______ _______ _____ _____    ______ ____
ROOT
ATOM      1  C   UNL     1       7.555  -1.272  22.910  0.00  0.00    +0.225 C 
ATOM      2  C   UNL     1       8.899  -1.725  22.323  0.00  0.00    +0.045 C 
ATOM      3  C   UNL     1       9.418  -0.612  21.400  0.00  0.00    +0.058 C 
ATOM      4  C   UNL     1       9.562   0.715  22.150  0.00  0.00    +0.133 C 
ATOM      5  N   UNL     1       9.222   0.514  23.632  0.00  0.00    +0.246 N 
ATOM      6  C   UNL     1      10.173  -0.586  24.194  0.00  0.00    +0.133 C 
ATOM      7  C   UNL     1       9.920  -1.906  23.453  0.00  0.00    +0.058 C 
ATOM      8  C   UNL     1       7.801  -0.058  23.810  0.00  0.00    +0.179 C 
ENDROOT
BRANCH   1   9
ATOM      9  O   UNL     1       6.937  -2.330  23.654  0.00  0.00    -0.453 OA
BRANCH   9  10
ATOM     10  C   UNL     1       6.300  -3.298  22.916  0.00  0.00    +0.350 C 
ATOM     11  O   UNL     1       5.684  -3.027  21.888  0.00  0.00    -0.247 OA
BRANCH  10  12
ATOM     12  C   UNL     1       6.363  -4.725  23.546  0.00  0.00    +0.226 C 
BRANCH  12  13
ATOM     13  C   UNL     1       7.474  -4.834  24.578  0.00  0.00    +0.037 A 
ATOM     14  S   UNL     1       7.199  -4.498  26.251  0.00  0.00    -0.098 S 
ATOM     15  C   UNL     1       8.862  -4.569  26.615  0.00  0.00    +0.045 A 
ATOM     16  C   UNL     1       9.599  -5.028  25.548  0.00  0.00    +0.008 A 
ATOM     17  C   UNL     1       8.798  -5.204  24.384  0.00  0.00    +0.015 A 
ENDBRANCH  12  13
BRANCH  12  18
ATOM     18  C   UNL     1       5.000  -5.188  24.042  0.00  0.00    +0.037 A 
ATOM     19  S   UNL     1       3.784  -4.078  24.548  0.00  0.00    -0.098 S 
ATOM     20  C   UNL     1       2.701  -5.332  24.959  0.00  0.00    +0.045 A 
ATOM     21  C   UNL     1       3.227  -6.575  24.700  0.00  0.00    +0.008 A 
ATOM     22  C   UNL     1       4.545  -6.494  24.170  0.00  0.00    +0.015 A 
ENDBRANCH  12  18
BRANCH  12  23
ATOM     23  O   UNL     1       6.711  -5.632  22.479  0.00  0.00    -0.369 OA
ATOM     24  H   UNL     1       6.456  -6.526  22.771  0.00  0.00    +0.212 HD
ENDBRANCH  12  23
ENDBRANCH  10  12
ENDBRANCH   9  10
ENDBRANCH   1   9
BRANCH   5  25
ATOM     25  C   UNL     1       9.463   1.826  24.438  0.00  0.00    +0.136 C 
BRANCH  25  26
ATOM     26  C   UNL     1      10.068   3.032  23.678  0.00  0.00    +0.092 C 
BRANCH  26  27
ATOM     27  C   UNL     1       9.447   4.359  24.087  0.00  0.00    +0.234 C 
BRANCH  27  28
ATOM     28  O   UNL     1       8.518   4.946  23.190  0.00  0.00    -0.492 OA
BRANCH  28  29
ATOM     29  C   UNL     1       7.281   4.320  23.266  0.00  0.00    +0.121 A 
ATOM     30  C   UNL     1       6.590   4.485  24.465  0.00  0.00    +0.045 A 
ATOM     31  C   UNL     1       5.347   3.872  24.652  0.00  0.00    +0.004 A 
ATOM     32  C   UNL     1       4.778   3.091  23.641  0.00  0.00    +0.000 A 
ATOM     33  C   UNL     1       5.451   2.935  22.436  0.00  0.00    +0.004 A 
ATOM     34  C   UNL     1       6.694   3.545  22.250  0.00  0.00    +0.045 A 
ENDBRANCH  28  29
ENDBRANCH  27  28
ENDBRANCH  26  27
ENDBRANCH  25  26
ENDBRANCH   5  25
TORSDOF 11
ENDMDL
MODEL 8
REMARK VINA RESULT:      -6.7      2.534      5.090
REMARK  Name = 
REMARK  11 active torsions:
REMARK  status: ('A' for Active; 'I' for Inactive)
REMARK    1  A    between atoms: O_1  and  C_2
REMARK    2  A    between atoms: C_2  and  C_3
REMARK    3  A    between atoms: C_2  and  C_25
REMARK    4  A    between atoms: C_2  and  C_30
REMARK    5  A    between atoms: C_3  and  O_5
REMARK    6  A    between atoms: O_5  and  C_6
REMARK    7  A    between atoms: N_9  and  C_10
REMARK    8  A    between atoms: C_10  and  C_11
REMARK    9  A    between atoms: C_11  and  C_12
REMARK   10  A    between atoms: C_12  and  O_13
REMARK   11  A    between atoms: O_13  and  C_14
REMARK                            x       y       z     vdW  Elec       q    Type
REMARK                         _______ _______ _______ _____ _____    ______ ____
ROOT
ATOM      1  C   UNL     1       6.338  -0.409  24.895  0.00  0.00    +0.225 C 
ATOM      2  C   UNL     1       6.005   0.260  26.235  0.00  0.00    +0.045 C 
ATOM      3  C   UNL     1       7.230   1.072  26.682  0.00  0.00    +0.058 C 
ATOM      4  C   UNL     1       7.628   2.110  25.630  0.00  0.00    +0.133 C 
ATOM      5  N   UNL     1       6.625   2.086  24.471  0.00  0.00    +0.246 N 
ATOM      6  C   UNL     1       5.208   2.359  25.061  0.00  0.00    +0.133 C 
ATOM      7  C   UNL     1       4.841   1.241  26.046  0.00  0.00    +0.058 C 
ATOM      8  C   UNL     1       6.529   0.683  23.838  0.00  0.00    +0.179 C 
ENDROOT
BRANCH   1   9
ATOM      9  O   UNL     1       5.297  -1.312  24.499  0.00  0.00    -0.453 OA
BRANCH   9  10
ATOM     10  C   UNL     1       5.704  -2.503  23.949  0.00  0.00    +0.350 C 
ATOM     11  O   UNL     1       5.983  -2.603  22.757  0.00  0.00    -0.247 OA
BRANCH  10  12
ATOM     12  C   UNL     1       5.691  -3.704  24.946  0.00  0.00    +0.226 C 
BRANCH  12  13
ATOM     13  C   UNL     1       4.739  -4.799  24.492  0.00  0.00    +0.037 A 
ATOM     14  S   UNL     1       4.575  -6.283  25.364  0.00  0.00    -0.098 S 
ATOM     15  C   UNL     1       3.625  -6.985  24.136  0.00  0.00    +0.045 A 
ATOM     16  C   UNL     1       3.270  -6.066  23.177  0.00  0.00    +0.008 A 
ATOM     17  C   UNL     1       3.890  -4.803  23.394  0.00  0.00    +0.015 A 
ENDBRANCH  12  13
BRANCH  12  18
ATOM     18  C   UNL     1       7.097  -4.190  25.269  0.00  0.00    +0.037 A 
ATOM     19  S   UNL     1       7.999  -5.174  24.180  0.00  0.00    -0.098 S 
ATOM     20  C   UNL     1       9.319  -5.291  25.256  0.00  0.00    +0.045 A 
ATOM     21  C   UNL     1       9.107  -4.582  26.414  0.00  0.00    +0.008 A 
ATOM     22  C   UNL     1       7.833  -3.946  26.422  0.00  0.00    +0.015 A 
ENDBRANCH  12  18
BRANCH  12  23
ATOM     23  O   UNL     1       5.164  -3.201  26.191  0.00  0.00    -0.369 OA
ATOM     24  H   UNL     1       4.695  -2.372  25.987  0.00  0.00    +0.212 HD
ENDBRANCH  12  23
ENDBRANCH  10  12
ENDBRANCH   9  10
ENDBRANCH   1   9
BRANCH   5  25
ATOM     25  C   UNL     1       6.947   3.207  23.437  0.00  0.00    +0.136 C 
BRANCH  25  26
ATOM     26  C   UNL     1       7.811   2.822  22.211  0.00  0.00    +0.092 C 
BRANCH  26  27
ATOM     27  C   UNL     1       9.303   2.859  22.504  0.00  0.00    +0.234 C 
BRANCH  27  28
ATOM     28  O   UNL     1      10.116   1.887  21.867  0.00  0.00    -0.492 OA
BRANCH  28  29
ATOM     29  C   UNL     1       9.983   0.645  22.474  0.00  0.00    +0.121 A 
ATOM     30  C   UNL     1       9.578  -0.397  21.642  0.00  0.00    +0.045 A 
ATOM     31  C   UNL     1       9.389  -1.682  22.163  0.00  0.00    +0.004 A 
ATOM     32  C   UNL     1       9.607  -1.940  23.520  0.00  0.00    +0.000 A 
ATOM     33  C   UNL     1      10.028  -0.912  24.353  0.00  0.00    +0.004 A 
ATOM     34  C   UNL     1      10.215   0.372  23.835  0.00  0.00    +0.045 A 
ENDBRANCH  28  29
ENDBRANCH  27  28
ENDBRANCH  26  27
ENDBRANCH  25  26
ENDBRANCH   5  25
TORSDOF 11
ENDMDL
MODEL 9
REMARK VINA RESULT:      -6.7      2.618      3.482
REMARK  Name = 
REMARK  11 active torsions:
REMARK  status: ('A' for Active; 'I' for Inactive)
REMARK    1  A    between atoms: O_1  and  C_2
REMARK    2  A    between atoms: C_2  and  C_3
REMARK    3  A    between atoms: C_2  and  C_25
REMARK    4  A    between atoms: C_2  and  C_30
REMARK    5  A    between atoms: C_3  and  O_5
REMARK    6  A    between atoms: O_5  and  C_6
REMARK    7  A    between atoms: N_9  and  C_10
REMARK    8  A    between atoms: C_10  and  C_11
REMARK    9  A    between atoms: C_11  and  C_12
REMARK   10  A    between atoms: C_12  and  O_13
REMARK   11  A    between atoms: O_13  and  C_14
REMARK                            x       y       z     vdW  Elec       q    Type
REMARK                         _______ _______ _______ _____ _____    ______ ____
ROOT
ATOM      1  C   UNL     1       7.747  -1.740  22.584  0.00  0.00    +0.225 C 
ATOM      2  C   UNL     1       9.164  -1.924  23.145  0.00  0.00    +0.045 C 
ATOM      3  C   UNL     1      10.153  -1.261  22.175  0.00  0.00    +0.058 C 
ATOM      4  C   UNL     1       9.827   0.221  21.970  0.00  0.00    +0.133 C 
ATOM      5  N   UNL     1       8.652   0.624  22.868  0.00  0.00    +0.246 N 
ATOM      6  C   UNL     1       9.047   0.306  24.342  0.00  0.00    +0.133 C 
ATOM      7  C   UNL     1       9.281  -1.203  24.494  0.00  0.00    +0.058 C 
ATOM      8  C   UNL     1       7.409  -0.246  22.592  0.00  0.00    +0.179 C 
ENDROOT
BRANCH   1   9
ATOM      9  O   UNL     1       6.790  -2.475  23.357  0.00  0.00    -0.453 OA
BRANCH   9  10
ATOM     10  C   UNL     1       6.218  -3.561  22.741  0.00  0.00    +0.350 C 
ATOM     11  O   UNL     1       5.699  -3.476  21.630  0.00  0.00    -0.247 OA
BRANCH  10  12
ATOM     12  C   UNL     1       6.215  -4.859  23.609  0.00  0.00    +0.226 C 
BRANCH  12  13
ATOM     13  C   UNL     1       7.362  -4.868  24.607  0.00  0.00    +0.037 A 
ATOM     14  S   UNL     1       7.145  -4.368  26.248  0.00  0.00    -0.098 S 
ATOM     15  C   UNL     1       8.820  -4.406  26.558  0.00  0.00    +0.045 A 
ATOM     16  C   UNL     1       9.520  -4.969  25.517  0.00  0.00    +0.008 A 
ATOM     17  C   UNL     1       8.679  -5.257  24.404  0.00  0.00    +0.015 A 
ENDBRANCH  12  13
BRANCH  12  18
ATOM     18  C   UNL     1       4.849  -5.130  24.222  0.00  0.00    +0.037 A 
ATOM     19  S   UNL     1       4.364  -6.705  24.723  0.00  0.00    -0.098 S 
ATOM     20  C   UNL     1       2.818  -6.163  25.200  0.00  0.00    +0.045 A 
ATOM     21  C   UNL     1       2.664  -4.810  25.013  0.00  0.00    +0.008 A 
ATOM     22  C   UNL     1       3.830  -4.215  24.456  0.00  0.00    +0.015 A 
ENDBRANCH  12  18
BRANCH  12  23
ATOM     23  O   UNL     1       6.456  -5.959  22.707  0.00  0.00    -0.369 OA
ATOM     24  H   UNL     1       7.262  -5.742  22.203  0.00  0.00    +0.212 HD
ENDBRANCH  12  23
ENDBRANCH  10  12
ENDBRANCH   9  10
ENDBRANCH   1   9
BRANCH   5  25
ATOM     25  C   UNL     1       8.369   2.153  22.757  0.00  0.00    +0.136 C 
BRANCH  25  26
ATOM     26  C   UNL     1       6.933   2.589  22.375  0.00  0.00    +0.092 C 
BRANCH  26  27
ATOM     27  C   UNL     1       6.116   3.045  23.574  0.00  0.00    +0.234 C 
BRANCH  27  28
ATOM     28  O   UNL     1       5.153   2.140  24.088  0.00  0.00    -0.492 OA
BRANCH  28  29
ATOM     29  C   UNL     1       5.641   1.464  25.198  0.00  0.00    +0.121 A 
ATOM     30  C   UNL     1       6.407   2.222  26.083  0.00  0.00    +0.045 A 
ATOM     31  C   UNL     1       6.967   1.627  27.218  0.00  0.00    +0.004 A 
ATOM     32  C   UNL     1       6.765   0.270  27.485  0.00  0.00    +0.000 A 
ATOM     33  C   UNL     1       5.989  -0.490  26.619  0.00  0.00    +0.004 A 
ATOM     34  C   UNL     1       5.431   0.102  25.484  0.00  0.00    +0.045 A 
ENDBRANCH  28  29
ENDBRANCH  27  28
ENDBRANCH  26  27
ENDBRANCH  25  26
ENDBRANCH   5  25
TORSDOF 11
ENDMDL
