MODEL 1
REMARK VINA RESULT:      -8.3      0.000      0.000
REMARK  Name = 
REMARK  8 active torsions:
REMARK  status: ('A' for Active; 'I' for Inactive)
REMARK    1  A    between atoms: O_1  and  O_2
REMARK    2  A    between atoms: O_2  and  C_3
REMARK    3  A    between atoms: C_3  and  C_4
REMARK    4  A    between atoms: C_4  and  C_5
REMARK    5  A    between atoms: C_17  and  C_19
REMARK    6  A    between atoms: C_19  and  C_20
REMARK    7  A    between atoms: C_27  and  C_32
REMARK    8  A    between atoms: C_35  and  O_36
REMARK                            x       y       z     vdW  Elec       q    Type
REMARK                         _______ _______ _______ _____ _____    ______ ____
ROOT
ATOM      1  C   UNL     1       5.575  -5.014  22.555  0.00  0.00    +0.381 C 
ATOM      2  C   UNL     1       6.120  -3.774  21.828  0.00  0.00    +0.391 C 
ATOM      3  O   UNL     1       5.674  -3.259  20.809  0.00  0.00    -0.239 OA
ATOM      4  N   UNL     1       7.185  -3.364  22.567  0.00  0.00    -0.123 N 
ATOM      5  C   UNL     1       7.404  -4.250  23.570  0.00  0.00    +0.320 C 
ATOM      6  C   UNL     1       8.643  -4.018  24.447  0.00  0.00    +0.192 C 
ATOM      7  N   UNL     1       9.003  -2.583  24.433  0.00  0.00    -0.327 N 
ATOM      8  H   UNL     1       9.684  -2.261  25.112  0.00  0.00    +0.147 HD
ATOM      9  C   UNL     1       8.756  -1.783  23.325  0.00  0.00    +0.073 C 
ATOM     10  C   UNL     1       7.887  -2.202  22.387  0.00  0.00    +0.223 C 
ATOM     11  N   UNL     1       6.596  -5.257  23.639  0.00  0.00    -0.033 NA
ENDROOT
BRANCH   9  12
ATOM     12  C   UNL     1       9.376  -0.435  23.233  0.00  0.00    -0.001 A 
ATOM     13  C   UNL     1      10.038   0.150  24.324  0.00  0.00    +0.013 A 
ATOM     14  C   UNL     1      10.580   1.438  24.228  0.00  0.00    +0.046 A 
ATOM     15  C   UNL     1      10.483   2.147  23.038  0.00  0.00    +0.117 A 
ATOM     16  C   UNL     1       9.838   1.597  21.941  0.00  0.00    +0.046 A 
ATOM     17  C   UNL     1       9.279   0.321  22.047  0.00  0.00    +0.013 A 
BRANCH  15  18
ATOM     18  O   UNL     1      11.035   3.391  22.983  0.00  0.00    -0.507 OA
ATOM     19  H   UNL     1      10.537   3.978  23.575  0.00  0.00    +0.292 HD
ENDBRANCH  15  18
ENDBRANCH   9  12
BRANCH   1  20
ATOM     20  O   UNL     1       5.346  -6.067  21.612  0.00  0.00    -0.169 OA
BRANCH  20  21
ATOM     21  O   UNL     1       6.337  -5.919  20.545  0.00  0.00    -0.245 OA
ATOM     22  H   UNL     1       6.967  -6.579  20.892  0.00  0.00    +0.253 HD
ENDBRANCH  20  21
ENDBRANCH   1  20
BRANCH   6  23
ATOM     23  C   UNL     1       8.556  -4.597  25.870  0.00  0.00    +0.069 C 
BRANCH  23  24
ATOM     24  C   UNL     1       7.281  -4.384  26.658  0.00  0.00    -0.045 A 
ATOM     25  C   UNL     1       6.757  -5.344  27.530  0.00  0.00    +0.004 A 
ATOM     26  C   UNL     1       5.674  -5.037  28.357  0.00  0.00    +0.000 A 
ATOM     27  C   UNL     1       5.075  -3.785  28.290  0.00  0.00    +0.000 A 
ATOM     28  C   UNL     1       5.508  -2.864  27.342  0.00  0.00    +0.000 A 
ATOM     29  C   UNL     1       6.597  -3.165  26.522  0.00  0.00    +0.004 A 
ENDBRANCH  23  24
ENDBRANCH   6  23
BRANCH   1  30
ATOM     30  C   UNL     1       4.216  -4.579  23.167  0.00  0.00    +0.138 C 
BRANCH  30  31
ATOM     31  C   UNL     1       3.799  -5.253  24.458  0.00  0.00    -0.039 A 
ATOM     32  C   UNL     1       2.909  -4.620  25.333  0.00  0.00    +0.012 A 
ATOM     33  C   UNL     1       2.469  -5.240  26.510  0.00  0.00    -0.018 A 
ATOM     34  C   UNL     1       2.932  -6.532  26.833  0.00  0.00    -0.018 A 
ATOM     35  C   UNL     1       2.487  -7.133  28.023  0.00  0.00    +0.008 A 
ATOM     36  C   UNL     1       1.584  -6.477  28.863  0.00  0.00    +0.001 A 
ATOM     37  C   UNL     1       1.119  -5.209  28.531  0.00  0.00    +0.001 A 
ATOM     38  C   UNL     1       3.814  -7.175  25.949  0.00  0.00    +0.009 A 
ATOM     39  C   UNL     1       1.571  -4.590  27.368  0.00  0.00    +0.008 A 
ATOM     40  C   UNL     1       4.236  -6.546  24.771  0.00  0.00    +0.004 A 
ENDBRANCH  30  31
ENDBRANCH   1  30
TORSDOF 8
ENDMDL
MODEL 2
REMARK VINA RESULT:      -8.1      1.550      2.043
REMARK  Name = 
REMARK  8 active torsions:
REMARK  status: ('A' for Active; 'I' for Inactive)
REMARK    1  A    between atoms: O_1  and  O_2
REMARK    2  A    between atoms: O_2  and  C_3
REMARK    3  A    between atoms: C_3  and  C_4
REMARK    4  A    between atoms: C_4  and  C_5
REMARK    5  A    between atoms: C_17  and  C_19
REMARK    6  A    between atoms: C_19  and  C_20
REMARK    7  A    between atoms: C_27  and  C_32
REMARK    8  A    between atoms: C_35  and  O_36
REMARK                            x       y       z     vdW  Elec       q    Type
REMARK                         _______ _______ _______ _____ _____    ______ ____
ROOT
ATOM      1  C   UNL     1       5.738  -4.870  22.574  0.00  0.00    +0.381 C 
ATOM      2  C   UNL     1       6.164  -3.567  21.876  0.00  0.00    +0.391 C 
ATOM      3  O   UNL     1       5.631  -3.041  20.906  0.00  0.00    -0.239 OA
ATOM      4  N   UNL     1       7.240  -3.121  22.578  0.00  0.00    -0.123 N 
ATOM      5  C   UNL     1       7.568  -4.032  23.526  0.00  0.00    +0.320 C 
ATOM      6  C   UNL     1       8.836  -3.756  24.348  0.00  0.00    +0.192 C 
ATOM      7  N   UNL     1       9.104  -2.302  24.380  0.00  0.00    -0.327 N 
ATOM      8  H   UNL     1       9.799  -1.965  25.036  0.00  0.00    +0.147 HD
ATOM      9  C   UNL     1       8.747  -1.474  23.324  0.00  0.00    +0.073 C 
ATOM     10  C   UNL     1       7.856  -1.908  22.414  0.00  0.00    +0.223 C 
ATOM     11  N   UNL     1       6.830  -5.091  23.592  0.00  0.00    -0.033 NA
ENDROOT
BRANCH   9  12
ATOM     12  C   UNL     1       9.276  -0.085  23.260  0.00  0.00    -0.001 A 
ATOM     13  C   UNL     1       9.382   0.718  24.407  0.00  0.00    +0.013 A 
ATOM     14  C   UNL     1       9.845   2.037  24.319  0.00  0.00    +0.046 A 
ATOM     15  C   UNL     1      10.222   2.561  23.090  0.00  0.00    +0.117 A 
ATOM     16  C   UNL     1      10.132   1.794  21.939  0.00  0.00    +0.046 A 
ATOM     17  C   UNL     1       9.650   0.485  22.027  0.00  0.00    +0.013 A 
BRANCH  15  18
ATOM     18  O   UNL     1      10.679   3.844  23.050  0.00  0.00    -0.507 OA
ATOM     19  H   UNL     1      10.805   4.099  22.122  0.00  0.00    +0.292 HD
ENDBRANCH  15  18
ENDBRANCH   9  12
BRANCH   1  20
ATOM     20  O   UNL     1       5.525  -5.895  21.597  0.00  0.00    -0.169 OA
BRANCH  20  21
ATOM     21  O   UNL     1       6.528  -5.713  20.548  0.00  0.00    -0.245 OA
ATOM     22  H   UNL     1       5.991  -5.118  19.989  0.00  0.00    +0.253 HD
ENDBRANCH  20  21
ENDBRANCH   1  20
BRANCH   6  23
ATOM     23  C   UNL     1       8.863  -4.398  25.747  0.00  0.00    +0.069 C 
BRANCH  23  24
ATOM     24  C   UNL     1       7.575  -4.452  26.539  0.00  0.00    -0.045 A 
ATOM     25  C   UNL     1       7.147  -5.599  27.217  0.00  0.00    +0.004 A 
ATOM     26  C   UNL     1       6.041  -5.550  28.069  0.00  0.00    +0.000 A 
ATOM     27  C   UNL     1       5.325  -4.368  28.218  0.00  0.00    +0.000 A 
ATOM     28  C   UNL     1       5.665  -3.255  27.458  0.00  0.00    +0.000 A 
ATOM     29  C   UNL     1       6.777  -3.299  26.614  0.00  0.00    +0.004 A 
ENDBRANCH  23  24
ENDBRANCH   6  23
BRANCH   1  30
ATOM     30  C   UNL     1       4.389  -4.550  23.275  0.00  0.00    +0.138 C 
BRANCH  30  31
ATOM     31  C   UNL     1       3.636  -5.719  23.875  0.00  0.00    -0.039 A 
ATOM     32  C   UNL     1       2.705  -6.430  23.110  0.00  0.00    +0.012 A 
ATOM     33  C   UNL     1       2.028  -7.544  23.624  0.00  0.00    -0.018 A 
ATOM     34  C   UNL     1       2.281  -7.965  24.946  0.00  0.00    -0.018 A 
ATOM     35  C   UNL     1       1.586  -9.079  25.448  0.00  0.00    +0.008 A 
ATOM     36  C   UNL     1       0.677  -9.775  24.647  0.00  0.00    +0.001 A 
ATOM     37  C   UNL     1       0.443  -9.365  23.339  0.00  0.00    +0.001 A 
ATOM     38  C   UNL     1       3.225  -7.261  25.711  0.00  0.00    +0.009 A 
ATOM     39  C   UNL     1       1.106  -8.247  22.837  0.00  0.00    +0.008 A 
ATOM     40  C   UNL     1       3.901  -6.155  25.179  0.00  0.00    +0.004 A 
ENDBRANCH  30  31
ENDBRANCH   1  30
TORSDOF 8
ENDMDL
MODEL 3
REMARK VINA RESULT:      -7.7      2.548      3.751
REMARK  Name = 
REMARK  8 active torsions:
REMARK  status: ('A' for Active; 'I' for Inactive)
REMARK    1  A    between atoms: O_1  and  O_2
REMARK    2  A    between atoms: O_2  and  C_3
REMARK    3  A    between atoms: C_3  and  C_4
REMARK    4  A    between atoms: C_4  and  C_5
REMARK    5  A    between atoms: C_17  and  C_19
REMARK    6  A    between atoms: C_19  and  C_20
REMARK    7  A    between atoms: C_27  and  C_32
REMARK    8  A    between atoms: C_35  and  O_36
REMARK                            x       y       z     vdW  Elec       q    Type
REMARK                         _______ _______ _______ _____ _____    ______ ____
ROOT
ATOM      1  C   UNL     1       9.056  -3.738  24.673  0.00  0.00    +0.381 C 
ATOM      2  C   UNL     1       9.837  -2.601  23.994  0.00  0.00    +0.391 C 
ATOM      3  O   UNL     1      10.578  -2.690  23.021  0.00  0.00    -0.239 OA
ATOM      4  N   UNL     1       9.514  -1.479  24.692  0.00  0.00    -0.123 N 
ATOM      5  C   UNL     1       8.733  -1.815  25.747  0.00  0.00    +0.320 C 
ATOM      6  C   UNL     1       8.360  -0.690  26.724  0.00  0.00    +0.192 C 
ATOM      7  N   UNL     1       8.397   0.612  26.023  0.00  0.00    -0.327 N 
ATOM      8  H   UNL     1       7.995   1.413  26.497  0.00  0.00    +0.147 HD
ATOM      9  C   UNL     1       9.272   0.846  24.971  0.00  0.00    +0.073 C 
ATOM     10  C   UNL     1       9.852  -0.197  24.348  0.00  0.00    +0.223 C 
ATOM     11  N   UNL     1       8.447  -3.069  25.880  0.00  0.00    -0.033 NA
ENDROOT
BRANCH   9  12
ATOM     12  C   UNL     1       9.484   2.233  24.479  0.00  0.00    -0.001 A 
ATOM     13  C   UNL     1      10.611   2.583  23.719  0.00  0.00    +0.013 A 
ATOM     14  C   UNL     1      10.813   3.904  23.300  0.00  0.00    +0.046 A 
ATOM     15  C   UNL     1       9.883   4.884  23.619  0.00  0.00    +0.117 A 
ATOM     16  C   UNL     1       8.758   4.572  24.366  0.00  0.00    +0.046 A 
ATOM     17  C   UNL     1       8.571   3.257  24.801  0.00  0.00    +0.013 A 
BRANCH  15  18
ATOM     18  O   UNL     1      10.110   6.154  23.182  0.00  0.00    -0.507 OA
ATOM     19  H   UNL     1      10.597   6.637  23.869  0.00  0.00    +0.292 HD
ENDBRANCH  15  18
ENDBRANCH   9  12
BRANCH   1  20
ATOM     20  O   UNL     1       9.925  -4.853  24.900  0.00  0.00    -0.169 OA
BRANCH  20  21
ATOM     21  O   UNL     1       9.980  -5.075  26.346  0.00  0.00    -0.245 OA
ATOM     22  H   UNL     1       9.295  -4.420  26.581  0.00  0.00    +0.253 HD
ENDBRANCH  20  21
ENDBRANCH   1  20
BRANCH   6  23
ATOM     23  C   UNL     1       7.053  -0.909  27.507  0.00  0.00    +0.069 C 
BRANCH  23  24
ATOM     24  C   UNL     1       5.948  -1.713  26.854  0.00  0.00    -0.045 A 
ATOM     25  C   UNL     1       5.201  -2.675  27.541  0.00  0.00    +0.004 A 
ATOM     26  C   UNL     1       4.086  -3.268  26.944  0.00  0.00    +0.000 A 
ATOM     27  C   UNL     1       3.733  -2.940  25.641  0.00  0.00    +0.000 A 
ATOM     28  C   UNL     1       4.537  -2.077  24.905  0.00  0.00    +0.000 A 
ATOM     29  C   UNL     1       5.645  -1.475  25.504  0.00  0.00    +0.004 A 
ENDBRANCH  23  24
ENDBRANCH   6  23
BRANCH   1  30
ATOM     30  C   UNL     1       7.955  -4.155  23.659  0.00  0.00    +0.138 C 
BRANCH  30  31
ATOM     31  C   UNL     1       6.773  -4.924  24.211  0.00  0.00    -0.039 A 
ATOM     32  C   UNL     1       5.651  -5.170  23.411  0.00  0.00    +0.012 A 
ATOM     33  C   UNL     1       4.563  -5.919  23.879  0.00  0.00    -0.018 A 
ATOM     34  C   UNL     1       4.587  -6.439  25.190  0.00  0.00    -0.018 A 
ATOM     35  C   UNL     1       3.483  -7.180  25.645  0.00  0.00    +0.008 A 
ATOM     36  C   UNL     1       2.389  -7.420  24.810  0.00  0.00    +0.001 A 
ATOM     37  C   UNL     1       2.378  -6.918  23.513  0.00  0.00    +0.001 A 
ATOM     38  C   UNL     1       5.718  -6.206  25.990  0.00  0.00    +0.009 A 
ATOM     39  C   UNL     1       3.454  -6.160  23.058  0.00  0.00    +0.008 A 
ATOM     40  C   UNL     1       6.801  -5.463  25.503  0.00  0.00    +0.004 A 
ENDBRANCH  30  31
ENDBRANCH   1  30
TORSDOF 8
ENDMDL
MODEL 4
REMARK VINA RESULT:      -7.6      2.623      3.756
REMARK  Name = 
REMARK  8 active torsions:
REMARK  status: ('A' for Active; 'I' for Inactive)
REMARK    1  A    between atoms: O_1  and  O_2
REMARK    2  A    between atoms: O_2  and  C_3
REMARK    3  A    between atoms: C_3  and  C_4
REMARK    4  A    between atoms: C_4  and  C_5
REMARK    5  A    between atoms: C_17  and  C_19
REMARK    6  A    between atoms: C_19  and  C_20
REMARK    7  A    between atoms: C_27  and  C_32
REMARK    8  A    between atoms: C_35  and  O_36
REMARK                            x       y       z     vdW  Elec       q    Type
REMARK                         _______ _______ _______ _____ _____    ______ ____
ROOT
ATOM      1  C   UNL     1       9.208  -3.779  24.565  0.00  0.00    +0.381 C 
ATOM      2  C   UNL     1       9.544  -2.595  23.642  0.00  0.00    +0.391 C 
ATOM      3  O   UNL     1      10.148  -2.638  22.576  0.00  0.00    -0.239 OA
ATOM      4  N   UNL     1       9.012  -1.503  24.253  0.00  0.00    -0.123 N 
ATOM      5  C   UNL     1       8.500  -1.865  25.455  0.00  0.00    +0.320 C 
ATOM      6  C   UNL     1       7.956  -0.739  26.347  0.00  0.00    +0.192 C 
ATOM      7  N   UNL     1       7.535   0.404  25.508  0.00  0.00    -0.327 N 
ATOM      8  H   UNL     1       6.990   1.136  25.949  0.00  0.00    +0.147 HD
ATOM      9  C   UNL     1       8.166   0.693  24.305  0.00  0.00    +0.073 C 
ATOM     10  C   UNL     1       8.930  -0.246  23.716  0.00  0.00    +0.223 C 
ATOM     11  N   UNL     1       8.597  -3.114  25.773  0.00  0.00    -0.033 NA
ENDROOT
BRANCH   9  12
ATOM     12  C   UNL     1       7.915   1.995  23.632  0.00  0.00    -0.001 A 
ATOM     13  C   UNL     1       6.997   2.116  22.577  0.00  0.00    +0.013 A 
ATOM     14  C   UNL     1       6.806   3.344  21.930  0.00  0.00    +0.046 A 
ATOM     15  C   UNL     1       7.515   4.464  22.341  0.00  0.00    +0.117 A 
ATOM     16  C   UNL     1       8.428   4.379  23.380  0.00  0.00    +0.046 A 
ATOM     17  C   UNL     1       8.631   3.148  24.010  0.00  0.00    +0.013 A 
BRANCH  15  18
ATOM     18  O   UNL     1       7.290   5.642  21.693  0.00  0.00    -0.507 OA
ATOM     19  H   UNL     1       6.678   5.479  20.957  0.00  0.00    +0.292 HD
ENDBRANCH  15  18
ENDBRANCH   9  12
BRANCH   1  20
ATOM     20  O   UNL     1      10.377  -4.581  24.769  0.00  0.00    -0.169 OA
BRANCH  20  21
ATOM     21  O   UNL     1      10.191  -5.309  26.025  0.00  0.00    -0.245 OA
ATOM     22  H   UNL     1      10.290  -4.536  26.612  0.00  0.00    +0.253 HD
ENDBRANCH  20  21
ENDBRANCH   1  20
BRANCH   6  23
ATOM     23  C   UNL     1       6.875  -1.168  27.356  0.00  0.00    +0.069 C 
BRANCH  23  24
ATOM     24  C   UNL     1       5.594  -1.774  26.825  0.00  0.00    -0.045 A 
ATOM     25  C   UNL     1       5.337  -1.934  25.459  0.00  0.00    +0.004 A 
ATOM     26  C   UNL     1       4.218  -2.649  25.025  0.00  0.00    +0.000 A 
ATOM     27  C   UNL     1       3.322  -3.173  25.947  0.00  0.00    +0.000 A 
ATOM     28  C   UNL     1       3.499  -2.918  27.303  0.00  0.00    +0.000 A 
ATOM     29  C   UNL     1       4.622  -2.213  27.739  0.00  0.00    +0.004 A 
ENDBRANCH  23  24
ENDBRANCH   6  23
BRANCH   1  30
ATOM     30  C   UNL     1       8.146  -4.618  23.802  0.00  0.00    +0.138 C 
BRANCH  30  31
ATOM     31  C   UNL     1       7.026  -5.218  24.627  0.00  0.00    -0.039 A 
ATOM     32  C   UNL     1       7.074  -5.176  26.025  0.00  0.00    +0.012 A 
ATOM     33  C   UNL     1       6.031  -5.681  26.812  0.00  0.00    -0.018 A 
ATOM     34  C   UNL     1       4.901  -6.250  26.190  0.00  0.00    -0.018 A 
ATOM     35  C   UNL     1       3.868  -6.759  26.997  0.00  0.00    +0.008 A 
ATOM     36  C   UNL     1       3.944  -6.683  28.390  0.00  0.00    +0.001 A 
ATOM     37  C   UNL     1       5.054  -6.106  28.997  0.00  0.00    +0.001 A 
ATOM     38  C   UNL     1       4.843  -6.280  24.787  0.00  0.00    +0.009 A 
ATOM     39  C   UNL     1       6.097  -5.621  28.211  0.00  0.00    +0.008 A 
ATOM     40  C   UNL     1       5.890  -5.762  24.014  0.00  0.00    +0.004 A 
ENDBRANCH  30  31
ENDBRANCH   1  30
TORSDOF 8
ENDMDL
MODEL 5
REMARK VINA RESULT:      -7.3      3.101      9.261
REMARK  Name = 
REMARK  8 active torsions:
REMARK  status: ('A' for Active; 'I' for Inactive)
REMARK    1  A    between atoms: O_1  and  O_2
REMARK    2  A    between atoms: O_2  and  C_3
REMARK    3  A    between atoms: C_3  and  C_4
REMARK    4  A    between atoms: C_4  and  C_5
REMARK    5  A    between atoms: C_17  and  C_19
REMARK    6  A    between atoms: C_19  and  C_20
REMARK    7  A    between atoms: C_27  and  C_32
REMARK    8  A    between atoms: C_35  and  O_36
REMARK                            x       y       z     vdW  Elec       q    Type
REMARK                         _______ _______ _______ _____ _____    ______ ____
ROOT
ATOM      1  C   UNL     1       6.366   0.879  26.080  0.00  0.00    +0.381 C 
ATOM      2  C   UNL     1       5.142  -0.051  26.041  0.00  0.00    +0.391 C 
ATOM      3  O   UNL     1       3.962   0.278  26.093  0.00  0.00    -0.239 OA
ATOM      4  N   UNL     1       5.650  -1.306  25.918  0.00  0.00    -0.123 N 
ATOM      5  C   UNL     1       7.003  -1.252  25.982  0.00  0.00    +0.320 C 
ATOM      6  C   UNL     1       7.754  -2.592  25.978  0.00  0.00    +0.192 C 
ATOM      7  N   UNL     1       6.936  -3.621  25.301  0.00  0.00    -0.327 N 
ATOM      8  H   UNL     1       7.384  -4.500  25.065  0.00  0.00    +0.147 HD
ATOM      9  C   UNL     1       5.548  -3.585  25.337  0.00  0.00    +0.073 C 
ATOM     10  C   UNL     1       4.924  -2.445  25.687  0.00  0.00    +0.223 C 
ATOM     11  N   UNL     1       7.529  -0.081  26.128  0.00  0.00    -0.033 NA
ENDROOT
BRANCH   9  12
ATOM     12  C   UNL     1       4.765  -4.770  24.897  0.00  0.00    -0.001 A 
ATOM     13  C   UNL     1       4.795  -5.981  25.608  0.00  0.00    +0.013 A 
ATOM     14  C   UNL     1       4.081  -7.097  25.154  0.00  0.00    +0.046 A 
ATOM     15  C   UNL     1       3.318  -7.012  23.998  0.00  0.00    +0.117 A 
ATOM     16  C   UNL     1       3.265  -5.831  23.275  0.00  0.00    +0.046 A 
ATOM     17  C   UNL     1       3.994  -4.725  23.718  0.00  0.00    +0.013 A 
BRANCH  15  18
ATOM     18  O   UNL     1       2.629  -8.117  23.598  0.00  0.00    -0.507 OA
ATOM     19  H   UNL     1       3.265  -8.823  23.397  0.00  0.00    +0.292 HD
ENDBRANCH  15  18
ENDBRANCH   9  12
BRANCH   1  20
ATOM     20  O   UNL     1       6.231   1.812  27.157  0.00  0.00    -0.169 OA
BRANCH  20  21
ATOM     21  O   UNL     1       7.432   1.699  27.985  0.00  0.00    -0.245 OA
ATOM     22  H   UNL     1       7.072   2.167  28.762  0.00  0.00    +0.253 HD
ENDBRANCH  20  21
ENDBRANCH   1  20
BRANCH   6  23
ATOM     23  C   UNL     1       9.197  -2.532  25.444  0.00  0.00    +0.069 C 
BRANCH  23  24
ATOM     24  C   UNL     1       9.440  -1.888  24.097  0.00  0.00    -0.045 A 
ATOM     25  C   UNL     1       8.848  -2.347  22.916  0.00  0.00    +0.004 A 
ATOM     26  C   UNL     1       8.970  -1.620  21.729  0.00  0.00    +0.000 A 
ATOM     27  C   UNL     1       9.721  -0.451  21.700  0.00  0.00    +0.000 A 
ATOM     28  C   UNL     1      10.415  -0.048  22.835  0.00  0.00    +0.000 A 
ATOM     29  C   UNL     1      10.285  -0.768  24.025  0.00  0.00    +0.004 A 
ENDBRANCH  23  24
ENDBRANCH   6  23
BRANCH   1  30
ATOM     30  C   UNL     1       6.348   1.655  24.734  0.00  0.00    +0.138 C 
BRANCH  30  31
ATOM     31  C   UNL     1       7.324   2.804  24.593  0.00  0.00    -0.039 A 
ATOM     32  C   UNL     1       8.632   2.574  24.153  0.00  0.00    +0.012 A 
ATOM     33  C   UNL     1       9.542   3.624  23.968  0.00  0.00    -0.018 A 
ATOM     34  C   UNL     1       9.140   4.949  24.233  0.00  0.00    -0.018 A 
ATOM     35  C   UNL     1      10.069   5.988  24.051  0.00  0.00    +0.008 A 
ATOM     36  C   UNL     1      11.361   5.720  23.593  0.00  0.00    +0.001 A 
ATOM     37  C   UNL     1      11.747   4.413  23.318  0.00  0.00    +0.001 A 
ATOM     38  C   UNL     1       7.823   5.184  24.661  0.00  0.00    +0.009 A 
ATOM     39  C   UNL     1      10.844   3.371  23.518  0.00  0.00    +0.008 A 
ATOM     40  C   UNL     1       6.923   4.125  24.832  0.00  0.00    +0.004 A 
ENDBRANCH  30  31
ENDBRANCH   1  30
TORSDOF 8
ENDMDL
MODEL 6
REMARK VINA RESULT:      -7.3      2.348      3.575
REMARK  Name = 
REMARK  8 active torsions:
REMARK  status: ('A' for Active; 'I' for Inactive)
REMARK    1  A    between atoms: O_1  and  O_2
REMARK    2  A    between atoms: O_2  and  C_3
REMARK    3  A    between atoms: C_3  and  C_4
REMARK    4  A    between atoms: C_4  and  C_5
REMARK    5  A    between atoms: C_17  and  C_19
REMARK    6  A    between atoms: C_19  and  C_20
REMARK    7  A    between atoms: C_27  and  C_32
REMARK    8  A    between atoms: C_35  and  O_36
REMARK                            x       y       z     vdW  Elec       q    Type
REMARK                         _______ _______ _______ _____ _____    ______ ____
ROOT
ATOM      1  C   UNL     1       7.865  -4.725  25.301  0.00  0.00    +0.381 C 
ATOM      2  C   UNL     1       8.974  -3.716  24.957  0.00  0.00    +0.391 C 
ATOM      3  O   UNL     1      10.073  -3.962  24.474  0.00  0.00    -0.239 OA
ATOM      4  N   UNL     1       8.464  -2.499  25.285  0.00  0.00    -0.123 N 
ATOM      5  C   UNL     1       7.251  -2.662  25.869  0.00  0.00    +0.320 C 
ATOM      6  C   UNL     1       6.567  -1.400  26.416  0.00  0.00    +0.192 C 
ATOM      7  N   UNL     1       7.047  -0.212  25.678  0.00  0.00    -0.327 N 
ATOM      8  H   UNL     1       6.545   0.659  25.809  0.00  0.00    +0.147 HD
ATOM      9  C   UNL     1       8.332  -0.152  25.153  0.00  0.00    +0.073 C 
ATOM     10  C   UNL     1       9.039  -1.288  25.004  0.00  0.00    +0.223 C 
ATOM     11  N   UNL     1       6.824  -3.876  25.987  0.00  0.00    -0.033 NA
ENDROOT
BRANCH   9  12
ATOM     12  C   UNL     1       8.876   1.145  24.671  0.00  0.00    -0.001 A 
ATOM     13  C   UNL     1      10.069   1.218  23.936  0.00  0.00    +0.013 A 
ATOM     14  C   UNL     1      10.585   2.454  23.527  0.00  0.00    +0.046 A 
ATOM     15  C   UNL     1       9.907   3.626  23.831  0.00  0.00    +0.117 A 
ATOM     16  C   UNL     1       8.725   3.589  24.554  0.00  0.00    +0.046 A 
ATOM     17  C   UNL     1       8.223   2.356  24.979  0.00  0.00    +0.013 A 
BRANCH  15  18
ATOM     18  O   UNL     1      10.436   4.807  23.404  0.00  0.00    -0.507 OA
ATOM     19  H   UNL     1      10.094   4.996  22.515  0.00  0.00    +0.292 HD
ENDBRANCH  15  18
ENDBRANCH   9  12
BRANCH   1  20
ATOM     20  O   UNL     1       8.420  -5.820  26.040  0.00  0.00    -0.169 OA
BRANCH  20  21
ATOM     21  O   UNL     1       7.929  -5.712  27.414  0.00  0.00    -0.245 OA
ATOM     22  H   UNL     1       7.024  -5.428  27.182  0.00  0.00    +0.253 HD
ENDBRANCH  20  21
ENDBRANCH   1  20
BRANCH   6  23
ATOM     23  C   UNL     1       5.031  -1.471  26.497  0.00  0.00    +0.069 C 
BRANCH  23  24
ATOM     24  C   UNL     1       4.402  -2.632  27.235  0.00  0.00    -0.045 A 
ATOM     25  C   UNL     1       3.579  -3.575  26.609  0.00  0.00    +0.004 A 
ATOM     26  C   UNL     1       3.160  -4.718  27.294  0.00  0.00    +0.000 A 
ATOM     27  C   UNL     1       3.520  -4.910  28.622  0.00  0.00    +0.000 A 
ATOM     28  C   UNL     1       4.234  -3.923  29.292  0.00  0.00    +0.000 A 
ATOM     29  C   UNL     1       4.663  -2.784  28.607  0.00  0.00    +0.004 A 
ENDBRANCH  23  24
ENDBRANCH   6  23
BRANCH   1  30
ATOM     30  C   UNL     1       7.337  -5.251  23.939  0.00  0.00    +0.138 C 
BRANCH  30  31
ATOM     31  C   UNL     1       5.838  -5.425  23.806  0.00  0.00    -0.039 A 
ATOM     32  C   UNL     1       5.193  -6.506  24.418  0.00  0.00    +0.012 A 
ATOM     33  C   UNL     1       3.803  -6.666  24.352  0.00  0.00    -0.018 A 
ATOM     34  C   UNL     1       3.025  -5.722  23.651  0.00  0.00    -0.018 A 
ATOM     35  C   UNL     1       1.633  -5.904  23.588  0.00  0.00    +0.008 A 
ATOM     36  C   UNL     1       1.023  -6.987  24.226  0.00  0.00    +0.001 A 
ATOM     37  C   UNL     1       1.794  -7.906  24.929  0.00  0.00    +0.001 A 
ATOM     38  C   UNL     1       3.668  -4.628  23.049  0.00  0.00    +0.009 A 
ATOM     39  C   UNL     1       3.177  -7.752  24.979  0.00  0.00    +0.008 A 
ATOM     40  C   UNL     1       5.058  -4.477  23.132  0.00  0.00    +0.004 A 
ENDBRANCH  30  31
ENDBRANCH   1  30
TORSDOF 8
ENDMDL
MODEL 7
REMARK VINA RESULT:      -7.2      3.359      5.289
REMARK  Name = 
REMARK  8 active torsions:
REMARK  status: ('A' for Active; 'I' for Inactive)
REMARK    1  A    between atoms: O_1  and  O_2
REMARK    2  A    between atoms: O_2  and  C_3
REMARK    3  A    between atoms: C_3  and  C_4
REMARK    4  A    between atoms: C_4  and  C_5
REMARK    5  A    between atoms: C_17  and  C_19
REMARK    6  A    between atoms: C_19  and  C_20
REMARK    7  A    between atoms: C_27  and  C_32
REMARK    8  A    between atoms: C_35  and  O_36
REMARK                            x       y       z     vdW  Elec       q    Type
REMARK                         _______ _______ _______ _____ _____    ______ ____
ROOT
ATOM      1  C   UNL     1       5.357   0.165  25.933  0.00  0.00    +0.381 C 
ATOM      2  C   UNL     1       6.081   1.487  26.238  0.00  0.00    +0.391 C 
ATOM      3  O   UNL     1       6.020   2.140  27.273  0.00  0.00    -0.239 OA
ATOM      4  N   UNL     1       6.813   1.760  25.125  0.00  0.00    -0.123 N 
ATOM      5  C   UNL     1       6.540   0.837  24.170  0.00  0.00    +0.320 C 
ATOM      6  C   UNL     1       7.188   1.047  22.794  0.00  0.00    +0.192 C 
ATOM      7  N   UNL     1       8.432   1.834  22.942  0.00  0.00    -0.327 N 
ATOM      8  H   UNL     1       9.054   1.887  22.143  0.00  0.00    +0.147 HD
ATOM      9  C   UNL     1       8.577   2.780  23.947  0.00  0.00    +0.073 C 
ATOM     10  C   UNL     1       7.741   2.760  25.002  0.00  0.00    +0.223 C 
ATOM     11  N   UNL     1       5.692  -0.087  24.483  0.00  0.00    -0.033 NA
ENDROOT
BRANCH   9  12
ATOM     12  C   UNL     1       9.709   3.743  23.900  0.00  0.00    -0.001 A 
ATOM     13  C   UNL     1       9.554   5.085  24.283  0.00  0.00    +0.013 A 
ATOM     14  C   UNL     1      10.624   5.985  24.192  0.00  0.00    +0.046 A 
ATOM     15  C   UNL     1      11.860   5.552  23.736  0.00  0.00    +0.117 A 
ATOM     16  C   UNL     1      12.048   4.233  23.352  0.00  0.00    +0.046 A 
ATOM     17  C   UNL     1      10.973   3.343  23.423  0.00  0.00    +0.013 A 
BRANCH  15  18
ATOM     18  O   UNL     1      12.878   6.456  23.675  0.00  0.00    -0.507 OA
ATOM     19  H   UNL     1      13.078   6.759  24.575  0.00  0.00    +0.292 HD
ENDBRANCH  15  18
ENDBRANCH   9  12
BRANCH   1  20
ATOM     20  O   UNL     1       3.974   0.278  26.284  0.00  0.00    -0.169 OA
BRANCH  20  21
ATOM     21  O   UNL     1       3.530   1.614  25.884  0.00  0.00    -0.245 OA
ATOM     22  H   UNL     1       3.414   1.409  24.936  0.00  0.00    +0.253 HD
ENDBRANCH  20  21
ENDBRANCH   1  20
BRANCH   6  23
ATOM     23  C   UNL     1       7.388  -0.233  21.962  0.00  0.00    +0.069 C 
BRANCH  23  24
ATOM     24  C   UNL     1       7.990  -1.445  22.639  0.00  0.00    -0.045 A 
ATOM     25  C   UNL     1       9.171  -1.391  23.387  0.00  0.00    +0.004 A 
ATOM     26  C   UNL     1       9.595  -2.496  24.128  0.00  0.00    +0.000 A 
ATOM     27  C   UNL     1       8.869  -3.680  24.096  0.00  0.00    +0.000 A 
ATOM     28  C   UNL     1       7.761  -3.787  23.262  0.00  0.00    +0.000 A 
ATOM     29  C   UNL     1       7.330  -2.680  22.528  0.00  0.00    +0.004 A 
ENDBRANCH  23  24
ENDBRANCH   6  23
BRANCH   1  30
ATOM     30  C   UNL     1       6.025  -0.901  26.845  0.00  0.00    +0.138 C 
BRANCH  30  31
ATOM     31  C   UNL     1       5.815  -2.353  26.469  0.00  0.00    -0.039 A 
ATOM     32  C   UNL     1       4.910  -2.700  25.459  0.00  0.00    +0.012 A 
ATOM     33  C   UNL     1       4.730  -4.030  25.058  0.00  0.00    -0.018 A 
ATOM     34  C   UNL     1       5.472  -5.053  25.684  0.00  0.00    -0.018 A 
ATOM     35  C   UNL     1       5.271  -6.383  25.274  0.00  0.00    +0.008 A 
ATOM     36  C   UNL     1       4.372  -6.688  24.250  0.00  0.00    +0.001 A 
ATOM     37  C   UNL     1       3.655  -5.673  23.626  0.00  0.00    +0.001 A 
ATOM     38  C   UNL     1       6.391  -4.706  26.687  0.00  0.00    +0.009 A 
ATOM     39  C   UNL     1       3.825  -4.354  24.039  0.00  0.00    +0.008 A 
ATOM     40  C   UNL     1       6.566  -3.370  27.070  0.00  0.00    +0.004 A 
ENDBRANCH  30  31
ENDBRANCH   1  30
TORSDOF 8
ENDMDL
MODEL 8
REMARK VINA RESULT:      -7.2      2.905      4.175
REMARK  Name = 
REMARK  8 active torsions:
REMARK  status: ('A' for Active; 'I' for Inactive)
REMARK    1  A    between atoms: O_1  and  O_2
REMARK    2  A    between atoms: O_2  and  C_3
REMARK    3  A    between atoms: C_3  and  C_4
REMARK    4  A    between atoms: C_4  and  C_5
REMARK    5  A    between atoms: C_17  and  C_19
REMARK    6  A    between atoms: C_19  and  C_20
REMARK    7  A    between atoms: C_27  and  C_32
REMARK    8  A    between atoms: C_35  and  O_36
REMARK                            x       y       z     vdW  Elec       q    Type
REMARK                         _______ _______ _______ _____ _____    ______ ____
ROOT
ATOM      1  C   UNL     1       8.874  -3.828  24.631  0.00  0.00    +0.381 C 
ATOM      2  C   UNL     1       9.755  -2.704  24.062  0.00  0.00    +0.391 C 
ATOM      3  O   UNL     1      10.603  -2.803  23.182  0.00  0.00    -0.239 OA
ATOM      4  N   UNL     1       9.377  -1.581  24.729  0.00  0.00    -0.123 N 
ATOM      5  C   UNL     1       8.470  -1.907  25.681  0.00  0.00    +0.320 C 
ATOM      6  C   UNL     1       8.010  -0.782  26.620  0.00  0.00    +0.192 C 
ATOM      7  N   UNL     1       8.159   0.525  25.943  0.00  0.00    -0.327 N 
ATOM      8  H   UNL     1       7.722   1.332  26.375  0.00  0.00    +0.147 HD
ATOM      9  C   UNL     1       9.157   0.747  25.003  0.00  0.00    +0.073 C 
ATOM     10  C   UNL     1       9.783  -0.304  24.442  0.00  0.00    +0.223 C 
ATOM     11  N   UNL     1       8.142  -3.155  25.765  0.00  0.00    -0.033 NA
ENDROOT
BRANCH   9  12
ATOM     12  C   UNL     1       9.457   2.133  24.555  0.00  0.00    -0.001 A 
ATOM     13  C   UNL     1       8.617   3.211  24.876  0.00  0.00    +0.013 A 
ATOM     14  C   UNL     1       8.897   4.502  24.410  0.00  0.00    +0.046 A 
ATOM     15  C   UNL     1      10.026   4.732  23.636  0.00  0.00    +0.117 A 
ATOM     16  C   UNL     1      10.877   3.690  23.304  0.00  0.00    +0.046 A 
ATOM     17  C   UNL     1      10.584   2.400  23.752  0.00  0.00    +0.013 A 
BRANCH  15  18
ATOM     18  O   UNL     1      10.269   6.004  23.213  0.00  0.00    -0.507 OA
ATOM     19  H   UNL     1       9.709   6.187  22.441  0.00  0.00    +0.292 HD
ENDBRANCH  15  18
ENDBRANCH   9  12
BRANCH   1  20
ATOM     20  O   UNL     1       9.684  -4.965  24.947  0.00  0.00    -0.169 OA
BRANCH  20  21
ATOM     21  O   UNL     1       9.038  -5.667  26.056  0.00  0.00    -0.245 OA
ATOM     22  H   UNL     1       8.221  -5.900  25.574  0.00  0.00    +0.253 HD
ENDBRANCH  20  21
ENDBRANCH   1  20
BRANCH   6  23
ATOM     23  C   UNL     1       6.615  -0.976  27.241  0.00  0.00    +0.069 C 
BRANCH  23  24
ATOM     24  C   UNL     1       5.773   0.252  27.518  0.00  0.00    -0.045 A 
ATOM     25  C   UNL     1       5.966   1.070  28.636  0.00  0.00    +0.004 A 
ATOM     26  C   UNL     1       5.277   2.279  28.758  0.00  0.00    +0.000 A 
ATOM     27  C   UNL     1       4.358   2.662  27.790  0.00  0.00    +0.000 A 
ATOM     28  C   UNL     1       4.067   1.802  26.737  0.00  0.00    +0.000 A 
ATOM     29  C   UNL     1       4.762   0.598  26.607  0.00  0.00    +0.004 A 
ENDBRANCH  23  24
ENDBRANCH   6  23
BRANCH   1  30
ATOM     30  C   UNL     1       7.890  -4.210  23.490  0.00  0.00    +0.138 C 
BRANCH  30  31
ATOM     31  C   UNL     1       6.439  -4.408  23.876  0.00  0.00    -0.039 A 
ATOM     32  C   UNL     1       5.987  -5.658  24.314  0.00  0.00    +0.012 A 
ATOM     33  C   UNL     1       4.661  -5.859  24.722  0.00  0.00    -0.018 A 
ATOM     34  C   UNL     1       3.751  -4.782  24.689  0.00  0.00    -0.018 A 
ATOM     35  C   UNL     1       2.423  -5.005  25.093  0.00  0.00    +0.008 A 
ATOM     36  C   UNL     1       2.013  -6.263  25.542  0.00  0.00    +0.001 A 
ATOM     37  C   UNL     1       2.919  -7.316  25.587  0.00  0.00    +0.001 A 
ATOM     38  C   UNL     1       4.206  -3.523  24.263  0.00  0.00    +0.009 A 
ATOM     39  C   UNL     1       4.232  -7.117  25.165  0.00  0.00    +0.008 A 
ATOM     40  C   UNL     1       5.537  -3.337  23.868  0.00  0.00    +0.004 A 
ENDBRANCH  30  31
ENDBRANCH   1  30
TORSDOF 8
ENDMDL
MODEL 9
REMARK VINA RESULT:      -7.0      4.135      6.288
REMARK  Name = 
REMARK  8 active torsions:
REMARK  status: ('A' for Active; 'I' for Inactive)
REMARK    1  A    between atoms: O_1  and  O_2
REMARK    2  A    between atoms: O_2  and  C_3
REMARK    3  A    between atoms: C_3  and  C_4
REMARK    4  A    between atoms: C_4  and  C_5
REMARK    5  A    between atoms: C_17  and  C_19
REMARK    6  A    between atoms: C_19  and  C_20
REMARK    7  A    between atoms: C_27  and  C_32
REMARK    8  A    between atoms: C_35  and  O_36
REMARK                            x       y       z     vdW  Elec       q    Type
REMARK                         _______ _______ _______ _____ _____    ______ ____
ROOT
ATOM      1  C   UNL     1       4.761   1.547  26.267  0.00  0.00    +0.381 C 
ATOM      2  C   UNL     1       5.677   2.769  26.441  0.00  0.00    +0.391 C 
ATOM      3  O   UNL     1       5.713   3.536  27.396  0.00  0.00    -0.239 OA
ATOM      4  N   UNL     1       6.448   2.801  25.321  0.00  0.00    -0.123 N 
ATOM      5  C   UNL     1       6.041   1.829  24.468  0.00  0.00    +0.320 C 
ATOM      6  C   UNL     1       6.720   1.782  23.091  0.00  0.00    +0.192 C 
ATOM      7  N   UNL     1       8.069   2.383  23.178  0.00  0.00    -0.327 N 
ATOM      8  H   UNL     1       8.695   2.251  22.392  0.00  0.00    +0.147 HD
ATOM      9  C   UNL     1       8.353   3.403  24.076  0.00  0.00    +0.073 C 
ATOM     10  C   UNL     1       7.518   3.628  25.108  0.00  0.00    +0.223 C 
ATOM     11  N   UNL     1       5.059   1.086  24.862  0.00  0.00    -0.033 NA
ENDROOT
BRANCH   9  12
ATOM     12  C   UNL     1       9.620   4.171  23.948  0.00  0.00    -0.001 A 
ATOM     13  C   UNL     1      10.788   3.588  23.433  0.00  0.00    +0.013 A 
ATOM     14  C   UNL     1      11.981   4.318  23.358  0.00  0.00    +0.046 A 
ATOM     15  C   UNL     1      12.015   5.640  23.778  0.00  0.00    +0.117 A 
ATOM     16  C   UNL     1      10.879   6.246  24.290  0.00  0.00    +0.046 A 
ATOM     17  C   UNL     1       9.695   5.509  24.383  0.00  0.00    +0.013 A 
BRANCH  15  18
ATOM     18  O   UNL     1      13.193   6.318  23.677  0.00  0.00    -0.507 OA
ATOM     19  H   UNL     1      13.539   6.474  24.570  0.00  0.00    +0.292 HD
ENDBRANCH  15  18
ENDBRANCH   9  12
BRANCH   1  20
ATOM     20  O   UNL     1       3.409   1.907  26.574  0.00  0.00    -0.169 OA
BRANCH  20  21
ATOM     21  O   UNL     1       3.169   3.229  25.994  0.00  0.00    -0.245 OA
ATOM     22  H   UNL     1       3.044   2.922  25.076  0.00  0.00    +0.253 HD
ENDBRANCH  20  21
ENDBRANCH   1  20
BRANCH   6  23
ATOM     23  C   UNL     1       6.725   0.402  22.409  0.00  0.00    +0.069 C 
BRANCH  23  24
ATOM     24  C   UNL     1       7.703  -0.642  22.905  0.00  0.00    -0.045 A 
ATOM     25  C   UNL     1       7.567  -2.006  22.623  0.00  0.00    +0.004 A 
ATOM     26  C   UNL     1       8.581  -2.905  22.959  0.00  0.00    +0.000 A 
ATOM     27  C   UNL     1       9.721  -2.461  23.618  0.00  0.00    +0.000 A 
ATOM     28  C   UNL     1       9.815  -1.130  24.012  0.00  0.00    +0.000 A 
ATOM     29  C   UNL     1       8.807  -0.228  23.667  0.00  0.00    +0.004 A 
ENDBRANCH  23  24
ENDBRANCH   6  23
BRANCH   1  30
ATOM     30  C   UNL     1       5.253   0.501  27.306  0.00  0.00    +0.138 C 
BRANCH  30  31
ATOM     31  C   UNL     1       5.593  -0.878  26.780  0.00  0.00    -0.039 A 
ATOM     32  C   UNL     1       6.871  -1.415  26.974  0.00  0.00    +0.012 A 
ATOM     33  C   UNL     1       7.199  -2.707  26.541  0.00  0.00    -0.018 A 
ATOM     34  C   UNL     1       6.227  -3.491  25.888  0.00  0.00    -0.018 A 
ATOM     35  C   UNL     1       6.578  -4.781  25.453  0.00  0.00    +0.008 A 
ATOM     36  C   UNL     1       7.859  -5.290  25.681  0.00  0.00    +0.001 A 
ATOM     37  C   UNL     1       8.809  -4.517  26.339  0.00  0.00    +0.001 A 
ATOM     38  C   UNL     1       4.939  -2.960  25.705  0.00  0.00    +0.009 A 
ATOM     39  C   UNL     1       8.483  -3.228  26.753  0.00  0.00    +0.008 A 
ATOM     40  C   UNL     1       4.624  -1.671  26.153  0.00  0.00    +0.004 A 
ENDBRANCH  30  31
ENDBRANCH   1  30
TORSDOF 8
ENDMDL
