MODEL 1
REMARK VINA RESULT:      -7.8      0.000      0.000
REMARK  Name = 
REMARK  5 active torsions:
REMARK  status: ('A' for Active; 'I' for Inactive)
REMARK    1  A    between atoms: C_1  and  O_2
REMARK    2  A    between atoms: O_2  and  C_3
REMARK    3  A    between atoms: C_4  and  O_5
REMARK    4  A    between atoms: C_14  and  O_16
REMARK    5  A    between atoms: C_17  and  C_18
REMARK                            x       y       z     vdW  Elec       q    Type
REMARK                         _______ _______ _______ _____ _____    ______ ____
ROOT
ATOM      1  C   UNL     1       8.078   1.379  22.263  0.00  0.00    +0.162 A 
ATOM      2  C   UNL     1       7.394   0.241  22.718  0.00  0.00    +0.053 A 
ATOM      3  C   UNL     1       8.064  -1.000  22.894  0.00  0.00    -0.037 A 
ATOM      4  C   UNL     1       9.456  -1.004  22.655  0.00  0.00    -0.040 A 
ATOM      5  C   UNL     1      10.346  -2.056  23.241  0.00  0.00    +0.036 C 
ATOM      6  C   UNL     1       9.619  -3.034  24.149  0.00  0.00    +0.009 C 
ATOM      7  C   UNL     1       8.314  -2.490  24.846  0.00  0.00    +0.000 C 
ATOM      8  C   UNL     1       7.406  -3.450  25.649  0.00  0.00    +0.001 C 
ATOM      9  C   UNL     1       7.683  -4.924  25.413  0.00  0.00    -0.003 C 
ATOM     10  C   UNL     1       9.132  -5.391  25.707  0.00  0.00    +0.014 C 
ATOM     11  C   UNL     1       7.271  -5.015  23.866  0.00  0.00    +0.010 C 
ATOM     12  C   UNL     1       6.988  -3.591  23.006  0.00  0.00    +0.009 C 
ATOM     13  C   UNL     1       6.769  -5.594  26.514  0.00  0.00    +0.121 C 
ATOM     14  C   UNL     1       5.864  -4.492  27.062  0.00  0.00    +0.032 C 
ATOM     15  C   UNL     1       6.774  -3.237  27.012  0.00  0.00    +0.007 C 
ATOM     16  C   UNL     1      10.103   0.087  22.063  0.00  0.00    +0.053 A 
ATOM     17  C   UNL     1       7.401  -2.159  23.651  0.00  0.00    +0.023 C 
ATOM     18  C   UNL     1       9.429   1.270  21.892  0.00  0.00    +0.159 A 
ENDROOT
BRANCH   1  20
ATOM     19  C   UNL     1       6.235   2.860  22.526  0.00  0.00    +0.277 C 
ATOM     20  O   UNL     1       7.603   2.663  22.210  0.00  0.00    -0.491 OA
ENDBRANCH   1  20
BRANCH  13  21
ATOM     21  O   UNL     1       7.515  -6.044  27.665  0.00  0.00    -0.391 OA
ATOM     22  H   UNL     1       8.024  -6.844  27.418  0.00  0.00    +0.210 HD
ENDBRANCH  13  21
BRANCH  18  23
ATOM     23  O   UNL     1      10.118   2.359  21.442  0.00  0.00    -0.503 OA
ATOM     24  H   UNL     1      11.059   2.154  21.604  0.00  0.00    +0.292 HD
ENDBRANCH  18  23
TORSDOF 3
ENDMDL
MODEL 2
REMARK VINA RESULT:      -7.1      2.024      6.781
REMARK  Name = 
REMARK  5 active torsions:
REMARK  status: ('A' for Active; 'I' for Inactive)
REMARK    1  A    between atoms: C_1  and  O_2
REMARK    2  A    between atoms: O_2  and  C_3
REMARK    3  A    between atoms: C_4  and  O_5
REMARK    4  A    between atoms: C_14  and  O_16
REMARK    5  A    between atoms: C_17  and  C_18
REMARK                            x       y       z     vdW  Elec       q    Type
REMARK                         _______ _______ _______ _____ _____    ______ ____
ROOT
ATOM      1  C   UNL     1       5.238  -6.094  25.518  0.00  0.00    +0.162 A 
ATOM      2  C   UNL     1       6.271  -5.154  25.654  0.00  0.00    +0.053 A 
ATOM      3  C   UNL     1       6.987  -4.677  24.523  0.00  0.00    -0.037 A 
ATOM      4  C   UNL     1       6.558  -5.144  23.262  0.00  0.00    -0.040 A 
ATOM      5  C   UNL     1       6.872  -4.397  22.003  0.00  0.00    +0.036 C 
ATOM      6  C   UNL     1       7.609  -3.089  22.238  0.00  0.00    +0.009 C 
ATOM      7  C   UNL     1       7.372  -2.404  23.639  0.00  0.00    +0.000 C 
ATOM      8  C   UNL     1       8.203  -1.167  24.047  0.00  0.00    +0.001 C 
ATOM      9  C   UNL     1       9.426  -0.916  23.183  0.00  0.00    -0.003 C 
ATOM     10  C   UNL     1       9.153  -0.742  21.667  0.00  0.00    +0.014 C 
ATOM     11  C   UNL     1      10.267  -2.232  23.546  0.00  0.00    +0.010 C 
ATOM     12  C   UNL     1       9.521  -3.472  24.414  0.00  0.00    +0.009 C 
ATOM     13  C   UNL     1       9.900   0.495  23.713  0.00  0.00    +0.121 C 
ATOM     14  C   UNL     1       9.103   0.774  24.987  0.00  0.00    +0.032 C 
ATOM     15  C   UNL     1       7.728   0.124  24.686  0.00  0.00    +0.007 C 
ATOM     16  C   UNL     1       5.632  -6.188  23.141  0.00  0.00    +0.053 A 
ATOM     17  C   UNL     1       7.911  -3.456  24.627  0.00  0.00    +0.023 C 
ATOM     18  C   UNL     1       4.964  -6.639  24.252  0.00  0.00    +0.159 A 
ENDROOT
BRANCH   1  20
ATOM     19  C   UNL     1       4.899  -6.766  27.774  0.00  0.00    +0.277 C 
ATOM     20  O   UNL     1       4.363  -6.509  26.487  0.00  0.00    -0.491 OA
ENDBRANCH   1  20
BRANCH  13  21
ATOM     21  O   UNL     1       9.541   1.577  22.827  0.00  0.00    -0.391 OA
ATOM     22  H   UNL     1       8.567   1.602  22.738  0.00  0.00    +0.210 HD
ENDBRANCH  13  21
BRANCH  18  23
ATOM     23  O   UNL     1       3.968  -7.559  24.090  0.00  0.00    -0.503 OA
ATOM     24  H   UNL     1       3.137  -7.048  24.127  0.00  0.00    +0.292 HD
ENDBRANCH  18  23
TORSDOF 3
ENDMDL
MODEL 3
REMARK VINA RESULT:      -7.0      2.801      4.172
REMARK  Name = 
REMARK  5 active torsions:
REMARK  status: ('A' for Active; 'I' for Inactive)
REMARK    1  A    between atoms: C_1  and  O_2
REMARK    2  A    between atoms: O_2  and  C_3
REMARK    3  A    between atoms: C_4  and  O_5
REMARK    4  A    between atoms: C_14  and  O_16
REMARK    5  A    between atoms: C_17  and  C_18
REMARK                            x       y       z     vdW  Elec       q    Type
REMARK                         _______ _______ _______ _____ _____    ______ ____
ROOT
ATOM      1  C   UNL     1       7.927   5.075  23.033  0.00  0.00    +0.162 A 
ATOM      2  C   UNL     1       7.725   3.806  22.469  0.00  0.00    +0.053 A 
ATOM      3  C   UNL     1       8.646   2.747  22.689  0.00  0.00    -0.037 A 
ATOM      4  C   UNL     1       9.727   3.020  23.555  0.00  0.00    -0.040 A 
ATOM      5  C   UNL     1      10.474   1.921  24.244  0.00  0.00    +0.036 C 
ATOM      6  C   UNL     1       9.908   0.537  23.976  0.00  0.00    +0.009 C 
ATOM      7  C   UNL     1       8.374   0.476  23.619  0.00  0.00    +0.000 C 
ATOM      8  C   UNL     1       7.737  -0.856  23.159  0.00  0.00    +0.001 C 
ATOM      9  C   UNL     1       8.737  -1.931  22.769  0.00  0.00    -0.003 C 
ATOM     10  C   UNL     1       9.762  -2.324  23.864  0.00  0.00    +0.014 C 
ATOM     11  C   UNL     1       9.391  -1.216  21.491  0.00  0.00    +0.010 C 
ATOM     12  C   UNL     1       9.042   0.406  21.188  0.00  0.00    +0.009 C 
ATOM     13  C   UNL     1       7.792  -3.182  22.576  0.00  0.00    +0.121 C 
ATOM     14  C   UNL     1       6.358  -2.654  22.588  0.00  0.00    +0.032 C 
ATOM     15  C   UNL     1       6.427  -1.482  23.600  0.00  0.00    +0.007 C 
ATOM     16  C   UNL     1      10.005   4.321  23.994  0.00  0.00    +0.053 A 
ATOM     17  C   UNL     1       8.293   1.299  22.319  0.00  0.00    +0.023 C 
ATOM     18  C   UNL     1       9.105   5.329  23.756  0.00  0.00    +0.159 A 
ENDROOT
BRANCH   1  20
ATOM     19  C   UNL     1       6.864   6.827  21.825  0.00  0.00    +0.277 C 
ATOM     20  O   UNL     1       7.048   6.126  23.043  0.00  0.00    -0.491 OA
ENDBRANCH   1  20
BRANCH  13  21
ATOM     21  O   UNL     1       7.840  -4.099  23.690  0.00  0.00    -0.391 OA
ATOM     22  H   UNL     1       6.934  -4.416  23.877  0.00  0.00    +0.210 HD
ENDBRANCH  13  21
BRANCH  18  23
ATOM     23  O   UNL     1       9.331   6.555  24.311  0.00  0.00    -0.503 OA
ATOM     24  H   UNL     1       8.917   6.518  25.195  0.00  0.00    +0.292 HD
ENDBRANCH  18  23
TORSDOF 3
ENDMDL
MODEL 4
REMARK VINA RESULT:      -6.8      1.500      6.770
REMARK  Name = 
REMARK  5 active torsions:
REMARK  status: ('A' for Active; 'I' for Inactive)
REMARK    1  A    between atoms: C_1  and  O_2
REMARK    2  A    between atoms: O_2  and  C_3
REMARK    3  A    between atoms: C_4  and  O_5
REMARK    4  A    between atoms: C_14  and  O_16
REMARK    5  A    between atoms: C_17  and  C_18
REMARK                            x       y       z     vdW  Elec       q    Type
REMARK                         _______ _______ _______ _____ _____    ______ ____
ROOT
ATOM      1  C   UNL     1       8.128  -3.907  26.607  0.00  0.00    +0.162 A 
ATOM      2  C   UNL     1       8.155  -2.510  26.474  0.00  0.00    +0.053 A 
ATOM      3  C   UNL     1       8.843  -1.885  25.400  0.00  0.00    -0.037 A 
ATOM      4  C   UNL     1       9.431  -2.742  24.444  0.00  0.00    -0.040 A 
ATOM      5  C   UNL     1       9.752  -2.267  23.061  0.00  0.00    +0.036 C 
ATOM      6  C   UNL     1       9.319  -0.836  22.791  0.00  0.00    +0.009 C 
ATOM      7  C   UNL     1       8.105  -0.309  23.649  0.00  0.00    +0.000 C 
ATOM      8  C   UNL     1       7.696   1.180  23.580  0.00  0.00    +0.001 C 
ATOM      9  C   UNL     1       8.726   2.088  22.932  0.00  0.00    -0.003 C 
ATOM     10  C   UNL     1       9.138   1.710  21.485  0.00  0.00    +0.014 C 
ATOM     11  C   UNL     1       9.907   1.938  24.006  0.00  0.00    +0.010 C 
ATOM     12  C   UNL     1       9.788   0.752  25.199  0.00  0.00    +0.009 C 
ATOM     13  C   UNL     1       7.925   3.445  22.824  0.00  0.00    +0.121 C 
ATOM     14  C   UNL     1       6.657   3.272  23.658  0.00  0.00    +0.032 C 
ATOM     15  C   UNL     1       6.306   1.776  23.453  0.00  0.00    +0.007 C 
ATOM     16  C   UNL     1       9.529  -4.123  24.657  0.00  0.00    +0.053 A 
ATOM     17  C   UNL     1       8.643  -0.395  25.090  0.00  0.00    +0.023 C 
ATOM     18  C   UNL     1       8.866  -4.699  25.711  0.00  0.00    +0.159 A 
ENDROOT
BRANCH   1  20
ATOM     19  C   UNL     1       5.975  -4.679  27.260  0.00  0.00    +0.277 C 
ATOM     20  O   UNL     1       7.374  -4.641  27.485  0.00  0.00    -0.491 OA
ENDBRANCH   1  20
BRANCH  13  21
ATOM     21  O   UNL     1       7.437   3.705  21.490  0.00  0.00    -0.391 OA
ATOM     22  H   UNL     1       6.623   3.181  21.344  0.00  0.00    +0.210 HD
ENDBRANCH  13  21
BRANCH  18  23
ATOM     23  O   UNL     1       8.861  -6.061  25.818  0.00  0.00    -0.503 OA
ATOM     24  H   UNL     1       9.702  -6.353  25.416  0.00  0.00    +0.292 HD
ENDBRANCH  18  23
TORSDOF 3
ENDMDL
MODEL 5
REMARK VINA RESULT:      -6.8      1.470      6.779
REMARK  Name = 
REMARK  5 active torsions:
REMARK  status: ('A' for Active; 'I' for Inactive)
REMARK    1  A    between atoms: C_1  and  O_2
REMARK    2  A    between atoms: O_2  and  C_3
REMARK    3  A    between atoms: C_4  and  O_5
REMARK    4  A    between atoms: C_14  and  O_16
REMARK    5  A    between atoms: C_17  and  C_18
REMARK                            x       y       z     vdW  Elec       q    Type
REMARK                         _______ _______ _______ _____ _____    ______ ____
ROOT
ATOM      1  C   UNL     1       5.811  -4.228  27.212  0.00  0.00    +0.162 A 
ATOM      2  C   UNL     1       6.294  -2.943  26.921  0.00  0.00    +0.053 A 
ATOM      3  C   UNL     1       7.472  -2.755  26.150  0.00  0.00    -0.037 A 
ATOM      4  C   UNL     1       8.083  -3.921  25.638  0.00  0.00    -0.040 A 
ATOM      5  C   UNL     1       9.003  -3.867  24.458  0.00  0.00    +0.036 C 
ATOM      6  C   UNL     1       9.136  -2.481  23.851  0.00  0.00    +0.009 C 
ATOM      7  C   UNL     1       7.909  -1.514  24.061  0.00  0.00    +0.000 C 
ATOM      8  C   UNL     1       8.010  -0.030  23.638  0.00  0.00    +0.001 C 
ATOM      9  C   UNL     1       9.422   0.450  23.354  0.00  0.00    -0.003 C 
ATOM     10  C   UNL     1      10.194  -0.340  22.265  0.00  0.00    +0.014 C 
ATOM     11  C   UNL     1      10.040   0.302  24.826  0.00  0.00    +0.010 C 
ATOM     12  C   UNL     1       9.157  -0.514  26.011  0.00  0.00    +0.009 C 
ATOM     13  C   UNL     1       9.150   1.885  22.753  0.00  0.00    +0.121 C 
ATOM     14  C   UNL     1       7.677   2.196  23.012  0.00  0.00    +0.032 C 
ATOM     15  C   UNL     1       6.999   0.808  22.878  0.00  0.00    +0.007 C 
ATOM     16  C   UNL     1       7.686  -5.200  26.050  0.00  0.00    +0.053 A 
ATOM     17  C   UNL     1       7.844  -1.374  25.594  0.00  0.00    +0.023 C 
ATOM     18  C   UNL     1       6.552  -5.351  26.807  0.00  0.00    +0.159 A 
ENDROOT
BRANCH   1  20
ATOM     19  C   UNL     1       4.423  -4.162  29.143  0.00  0.00    +0.277 C 
ATOM     20  O   UNL     1       4.612  -4.550  27.793  0.00  0.00    -0.491 OA
ENDBRANCH   1  20
BRANCH  13  21
ATOM     21  O   UNL     1       9.273   1.923  21.315  0.00  0.00    -0.391 OA
ATOM     22  H   UNL     1       9.709   2.761  21.058  0.00  0.00    +0.210 HD
ENDBRANCH  13  21
BRANCH  18  23
ATOM     23  O   UNL     1       6.109  -6.614  27.079  0.00  0.00    -0.503 OA
ATOM     24  H   UNL     1       5.169  -6.509  27.326  0.00  0.00    +0.292 HD
ENDBRANCH  18  23
TORSDOF 3
ENDMDL
MODEL 6
REMARK VINA RESULT:      -6.7      2.137      6.626
REMARK  Name = 
REMARK  5 active torsions:
REMARK  status: ('A' for Active; 'I' for Inactive)
REMARK    1  A    between atoms: C_1  and  O_2
REMARK    2  A    between atoms: O_2  and  C_3
REMARK    3  A    between atoms: C_4  and  O_5
REMARK    4  A    between atoms: C_14  and  O_16
REMARK    5  A    between atoms: C_17  and  C_18
REMARK                            x       y       z     vdW  Elec       q    Type
REMARK                         _______ _______ _______ _____ _____    ______ ____
ROOT
ATOM      1  C   UNL     1       6.190  -4.176  24.753  0.00  0.00    +0.162 A 
ATOM      2  C   UNL     1       6.834  -3.000  25.169  0.00  0.00    +0.053 A 
ATOM      3  C   UNL     1       7.807  -2.364  24.352  0.00  0.00    -0.037 A 
ATOM      4  C   UNL     1       8.034  -2.936  23.081  0.00  0.00    -0.040 A 
ATOM      5  C   UNL     1       8.636  -2.143  21.963  0.00  0.00    +0.036 C 
ATOM      6  C   UNL     1       8.893  -0.688  22.317  0.00  0.00    +0.009 C 
ATOM      7  C   UNL     1       7.968  -0.076  23.439  0.00  0.00    +0.000 C 
ATOM      8  C   UNL     1       8.257   1.336  23.996  0.00  0.00    +0.001 C 
ATOM      9  C   UNL     1       9.627   1.887  23.640  0.00  0.00    -0.003 C 
ATOM     10  C   UNL     1       9.943   1.973  22.125  0.00  0.00    +0.014 C 
ATOM     11  C   UNL     1      10.537   0.834  24.437  0.00  0.00    +0.010 C 
ATOM     12  C   UNL     1       9.820  -0.549  25.084  0.00  0.00    +0.009 C 
ATOM     13  C   UNL     1       9.509   3.376  24.154  0.00  0.00    +0.121 C 
ATOM     14  C   UNL     1       8.232   3.451  24.990  0.00  0.00    +0.032 C 
ATOM     15  C   UNL     1       7.281   2.467  24.262  0.00  0.00    +0.007 C 
ATOM     16  C   UNL     1       7.502  -4.184  22.731  0.00  0.00    +0.053 A 
ATOM     17  C   UNL     1       8.301  -0.946  24.666  0.00  0.00    +0.023 C 
ATOM     18  C   UNL     1       6.575  -4.783  23.546  0.00  0.00    +0.159 A 
ENDROOT
BRANCH   1  20
ATOM     19  C   UNL     1       5.390  -5.528  26.540  0.00  0.00    +0.277 C 
ATOM     20  O   UNL     1       5.126  -4.794  25.356  0.00  0.00    -0.491 OA
ENDBRANCH   1  20
BRANCH  13  21
ATOM     21  O   UNL     1       9.289   4.322  23.086  0.00  0.00    -0.391 OA
ATOM     22  H   UNL     1       9.697   3.974  22.267  0.00  0.00    +0.210 HD
ENDBRANCH  13  21
BRANCH  18  23
ATOM     23  O   UNL     1       5.968  -5.929  23.118  0.00  0.00    -0.503 OA
ATOM     24  H   UNL     1       5.904  -6.498  23.910  0.00  0.00    +0.292 HD
ENDBRANCH  18  23
TORSDOF 3
ENDMDL
MODEL 7
REMARK VINA RESULT:      -6.7      2.590      7.107
REMARK  Name = 
REMARK  5 active torsions:
REMARK  status: ('A' for Active; 'I' for Inactive)
REMARK    1  A    between atoms: C_1  and  O_2
REMARK    2  A    between atoms: O_2  and  C_3
REMARK    3  A    between atoms: C_4  and  O_5
REMARK    4  A    between atoms: C_14  and  O_16
REMARK    5  A    between atoms: C_17  and  C_18
REMARK                            x       y       z     vdW  Elec       q    Type
REMARK                         _______ _______ _______ _____ _____    ______ ____
ROOT
ATOM      1  C   UNL     1       7.346  -2.804  23.896  0.00  0.00    +0.162 A 
ATOM      2  C   UNL     1       6.977  -1.463  24.083  0.00  0.00    +0.053 A 
ATOM      3  C   UNL     1       7.942  -0.470  24.400  0.00  0.00    -0.037 A 
ATOM      4  C   UNL     1       9.289  -0.892  24.445  0.00  0.00    -0.040 A 
ATOM      5  C   UNL     1      10.418   0.079  24.287  0.00  0.00    +0.036 C 
ATOM      6  C   UNL     1       9.964   1.502  24.006  0.00  0.00    +0.009 C 
ATOM      7  C   UNL     1       8.561   1.654  23.303  0.00  0.00    +0.000 C 
ATOM      8  C   UNL     1       7.927   3.053  23.130  0.00  0.00    +0.001 C 
ATOM      9  C   UNL     1       8.574   4.145  23.963  0.00  0.00    -0.003 C 
ATOM     10  C   UNL     1      10.094   4.353  23.735  0.00  0.00    +0.014 C 
ATOM     11  C   UNL     1       8.204   3.601  25.425  0.00  0.00    +0.010 C 
ATOM     12  C   UNL     1       7.568   2.047  25.587  0.00  0.00    +0.009 C 
ATOM     13  C   UNL     1       7.860   5.436  23.398  0.00  0.00    +0.121 C 
ATOM     14  C   UNL     1       6.701   4.949  22.529  0.00  0.00    +0.032 C 
ATOM     15  C   UNL     1       7.258   3.644  21.904  0.00  0.00    +0.007 C 
ATOM     16  C   UNL     1       9.636  -2.248  24.404  0.00  0.00    +0.053 A 
ATOM     17  C   UNL     1       7.597   1.024  24.326  0.00  0.00    +0.023 C 
ATOM     18  C   UNL     1       8.681  -3.188  24.110  0.00  0.00    +0.159 A 
ENDROOT
BRANCH   1  20
ATOM     19  C   UNL     1       6.079  -3.710  22.098  0.00  0.00    +0.277 C 
ATOM     20  O   UNL     1       6.557  -3.822  23.428  0.00  0.00    -0.491 OA
ENDBRANCH   1  20
BRANCH  13  21
ATOM     21  O   UNL     1       8.694   6.185  22.487  0.00  0.00    -0.391 OA
ATOM     22  H   UNL     1       9.333   5.573  22.069  0.00  0.00    +0.210 HD
ENDBRANCH  13  21
BRANCH  18  23
ATOM     23  O   UNL     1       9.068  -4.486  23.939  0.00  0.00    -0.503 OA
ATOM     24  H   UNL     1       8.766  -4.729  23.043  0.00  0.00    +0.292 HD
ENDBRANCH  18  23
TORSDOF 3
ENDMDL
MODEL 8
REMARK VINA RESULT:      -6.6      1.758      2.639
REMARK  Name = 
REMARK  5 active torsions:
REMARK  status: ('A' for Active; 'I' for Inactive)
REMARK    1  A    between atoms: C_1  and  O_2
REMARK    2  A    between atoms: O_2  and  C_3
REMARK    3  A    between atoms: C_4  and  O_5
REMARK    4  A    between atoms: C_14  and  O_16
REMARK    5  A    between atoms: C_17  and  C_18
REMARK                            x       y       z     vdW  Elec       q    Type
REMARK                         _______ _______ _______ _____ _____    ______ ____
ROOT
ATOM      1  C   UNL     1       9.818   0.284  22.829  0.00  0.00    +0.162 A 
ATOM      2  C   UNL     1       9.385  -1.048  22.922  0.00  0.00    +0.053 A 
ATOM      3  C   UNL     1       9.163  -1.665  24.182  0.00  0.00    -0.037 A 
ATOM      4  C   UNL     1       9.333  -0.849  25.322  0.00  0.00    -0.040 A 
ATOM      5  C   UNL     1       8.693  -1.192  26.631  0.00  0.00    +0.036 C 
ATOM      6  C   UNL     1       7.811  -2.428  26.574  0.00  0.00    +0.009 C 
ATOM      7  C   UNL     1       7.184  -2.765  25.167  0.00  0.00    +0.000 C 
ATOM      8  C   UNL     1       6.417  -4.091  24.957  0.00  0.00    +0.001 C 
ATOM      9  C   UNL     1       6.623  -5.119  26.055  0.00  0.00    -0.003 C 
ATOM     10  C   UNL     1       6.253  -4.654  27.488  0.00  0.00    +0.014 C 
ATOM     11  C   UNL     1       8.187  -5.403  25.847  0.00  0.00    +0.010 C 
ATOM     12  C   UNL     1       9.076  -4.397  24.824  0.00  0.00    +0.009 C 
ATOM     13  C   UNL     1       5.562  -6.219  25.658  0.00  0.00    +0.121 C 
ATOM     14  C   UNL     1       5.070  -5.866  24.255  0.00  0.00    +0.032 C 
ATOM     15  C   UNL     1       5.089  -4.316  24.259  0.00  0.00    +0.007 C 
ATOM     16  C   UNL     1       9.904   0.427  25.234  0.00  0.00    +0.053 A 
ATOM     17  C   UNL     1       8.427  -3.007  24.289  0.00  0.00    +0.023 C 
ATOM     18  C   UNL     1      10.121   0.993  24.003  0.00  0.00    +0.159 A 
ENDROOT
BRANCH   1  20
ATOM     19  C   UNL     1       8.693   1.483  21.110  0.00  0.00    +0.277 C 
ATOM     20  O   UNL     1       9.909   1.048  21.695  0.00  0.00    -0.491 OA
ENDBRANCH   1  20
BRANCH  13  21
ATOM     21  O   UNL     1       4.371  -6.170  26.472  0.00  0.00    -0.391 OA
ATOM     22  H   UNL     1       3.800  -5.442  26.153  0.00  0.00    +0.210 HD
ENDBRANCH  13  21
BRANCH  18  23
ATOM     23  O   UNL     1      10.549   2.289  23.943  0.00  0.00    -0.503 OA
ATOM     24  H   UNL     1      11.524   2.238  23.932  0.00  0.00    +0.292 HD
ENDBRANCH  18  23
TORSDOF 3
ENDMDL
MODEL 9
REMARK VINA RESULT:      -6.6      1.983      6.725
REMARK  Name = 
REMARK  5 active torsions:
REMARK  status: ('A' for Active; 'I' for Inactive)
REMARK    1  A    between atoms: C_1  and  O_2
REMARK    2  A    between atoms: O_2  and  C_3
REMARK    3  A    between atoms: C_4  and  O_5
REMARK    4  A    between atoms: C_14  and  O_16
REMARK    5  A    between atoms: C_17  and  C_18
REMARK                            x       y       z     vdW  Elec       q    Type
REMARK                         _______ _______ _______ _____ _____    ______ ____
ROOT
ATOM      1  C   UNL     1       4.706  -5.112  25.197  0.00  0.00    +0.162 A 
ATOM      2  C   UNL     1       5.472  -3.947  25.353  0.00  0.00    +0.053 A 
ATOM      3  C   UNL     1       6.567  -3.664  24.494  0.00  0.00    -0.037 A 
ATOM      4  C   UNL     1       6.795  -4.577  23.441  0.00  0.00    -0.040 A 
ATOM      5  C   UNL     1       7.564  -4.184  22.218  0.00  0.00    +0.036 C 
ATOM      6  C   UNL     1       7.986  -2.724  22.205  0.00  0.00    +0.009 C 
ATOM      7  C   UNL     1       7.083  -1.737  23.039  0.00  0.00    +0.000 C 
ATOM      8  C   UNL     1       7.519  -0.267  23.237  0.00  0.00    +0.001 C 
ATOM      9  C   UNL     1       8.968   0.014  22.881  0.00  0.00    -0.003 C 
ATOM     10  C   UNL     1       9.385  -0.345  21.431  0.00  0.00    +0.014 C 
ATOM     11  C   UNL     1       9.682  -0.880  24.004  0.00  0.00    +0.010 C 
ATOM     12  C   UNL     1       8.752  -1.951  24.917  0.00  0.00    +0.009 C 
ATOM     13  C   UNL     1       9.015   1.590  22.979  0.00  0.00    +0.121 C 
ATOM     14  C   UNL     1       7.710   2.026  23.643  0.00  0.00    +0.032 C 
ATOM     15  C   UNL     1       6.684   0.994  23.108  0.00  0.00    +0.007 C 
ATOM     16  C   UNL     1       6.127  -5.807  23.377  0.00  0.00    +0.053 A 
ATOM     17  C   UNL     1       7.223  -2.276  24.475  0.00  0.00    +0.023 C 
ATOM     18  C   UNL     1       5.082  -6.060  24.229  0.00  0.00    +0.159 A 
ENDROOT
BRANCH   1  20
ATOM     19  C   UNL     1       3.560  -5.450  27.254  0.00  0.00    +0.277 C 
ATOM     20  O   UNL     1       3.535  -5.426  25.837  0.00  0.00    -0.491 OA
ENDBRANCH   1  20
BRANCH  13  21
ATOM     21  O   UNL     1       8.986   2.234  21.687  0.00  0.00    -0.391 OA
ATOM     22  H   UNL     1       8.061   2.474  21.474  0.00  0.00    +0.210 HD
ENDBRANCH  13  21
BRANCH  18  23
ATOM     23  O   UNL     1       4.358  -7.205  24.057  0.00  0.00    -0.503 OA
ATOM     24  H   UNL     1       3.423  -6.934  24.145  0.00  0.00    +0.292 HD
ENDBRANCH  18  23
TORSDOF 3
ENDMDL
