MODEL 1
REMARK VINA RESULT:      -2.4      0.000      0.000
REMARK  Name = 
REMARK  2 active torsions:
REMARK  status: ('A' for Active; 'I' for Inactive)
REMARK    1  A    between atoms: N_1  and  C_2
REMARK    2  A    between atoms: C_3  and  S_4
REMARK                            x       y       z     vdW  Elec       q    Type
REMARK                         _______ _______ _______ _____ _____    ______ ____
ROOT
ATOM      1  C   UNL     1       9.929   1.007  22.124  0.00  0.00    +0.071 C 
ATOM      2  C   UNL     1       9.419  -0.019  21.432  0.00  0.00    +0.051 C 
ENDROOT
BRANCH   1   3
ATOM      3  N   UNL     1      10.136   2.271  21.668  0.00  0.00    -0.363 N 
ATOM      4  H   UNL     1       9.444   2.730  21.087  0.00  0.00    +0.142 HD
ATOM      5  H   UNL     1      10.988   2.767  21.905  0.00  0.00    +0.142 HD
ENDBRANCH   1   3
BRANCH   2   6
ATOM      6  S   UNL     1       9.196  -1.594  22.109  0.00  0.00    -0.149 S 
ATOM      7  H   UNL     1       7.956  -1.851  21.665  0.00  0.00    +0.107 HD
ENDBRANCH   2   6
TORSDOF 2
ENDMDL
MODEL 2
REMARK VINA RESULT:      -2.2      1.969      2.282
REMARK  Name = 
REMARK  2 active torsions:
REMARK  status: ('A' for Active; 'I' for Inactive)
REMARK    1  A    between atoms: N_1  and  C_2
REMARK    2  A    between atoms: C_3  and  S_4
REMARK                            x       y       z     vdW  Elec       q    Type
REMARK                         _______ _______ _______ _____ _____    ______ ____
ROOT
ATOM      1  C   UNL     1      10.008   1.286  22.534  0.00  0.00    +0.071 C 
ATOM      2  C   UNL     1      10.291   1.415  23.836  0.00  0.00    +0.051 C 
ENDROOT
BRANCH   1   3
ATOM      3  N   UNL     1      10.075   2.260  21.588  0.00  0.00    -0.363 N 
ATOM      4  H   UNL     1      10.855   2.907  21.568  0.00  0.00    +0.142 HD
ATOM      5  H   UNL     1       9.342   2.348  20.893  0.00  0.00    +0.142 HD
ENDBRANCH   1   3
BRANCH   2   6
ATOM      6  S   UNL     1      10.174   0.107  24.960  0.00  0.00    -0.149 S 
ATOM      7  H   UNL     1      10.939  -0.795  24.330  0.00  0.00    +0.107 HD
ENDBRANCH   2   6
TORSDOF 2
ENDMDL
MODEL 3
REMARK VINA RESULT:      -2.1      2.756      2.870
REMARK  Name = 
REMARK  2 active torsions:
REMARK  status: ('A' for Active; 'I' for Inactive)
REMARK    1  A    between atoms: N_1  and  C_2
REMARK    2  A    between atoms: C_3  and  S_4
REMARK                            x       y       z     vdW  Elec       q    Type
REMARK                         _______ _______ _______ _____ _____    ______ ____
ROOT
ATOM      1  C   UNL     1       9.894   0.104  22.136  0.00  0.00    +0.071 C 
ATOM      2  C   UNL     1       9.903   1.435  22.005  0.00  0.00    +0.051 C 
ENDROOT
BRANCH   1   3
ATOM      3  N   UNL     1       9.598  -0.805  21.168  0.00  0.00    -0.363 N 
ATOM      4  H   UNL     1       9.504  -1.788  21.395  0.00  0.00    +0.142 HD
ATOM      5  H   UNL     1       9.470  -0.505  20.208  0.00  0.00    +0.142 HD
ENDBRANCH   1   3
BRANCH   2   6
ATOM      6  S   UNL     1      10.296   2.507  23.304  0.00  0.00    -0.149 S 
ATOM      7  H   UNL     1      11.370   1.873  23.797  0.00  0.00    +0.107 HD
ENDBRANCH   2   6
TORSDOF 2
ENDMDL
MODEL 4
REMARK VINA RESULT:      -2.1      6.619      6.760
REMARK  Name = 
REMARK  2 active torsions:
REMARK  status: ('A' for Active; 'I' for Inactive)
REMARK    1  A    between atoms: N_1  and  C_2
REMARK    2  A    between atoms: C_3  and  S_4
REMARK                            x       y       z     vdW  Elec       q    Type
REMARK                         _______ _______ _______ _____ _____    ______ ____
ROOT
ATOM      1  C   UNL     1       8.929  -5.293  25.426  0.00  0.00    +0.071 C 
ATOM      2  C   UNL     1       8.320  -5.031  24.264  0.00  0.00    +0.051 C 
ENDROOT
BRANCH   1   3
ATOM      3  N   UNL     1      10.260  -5.493  25.618  0.00  0.00    -0.363 N 
ATOM      4  H   UNL     1      10.910  -5.413  24.845  0.00  0.00    +0.142 HD
ATOM      5  H   UNL     1      10.614  -5.725  26.539  0.00  0.00    +0.142 HD
ENDBRANCH   1   3
BRANCH   2   6
ATOM      6  S   UNL     1       6.613  -4.791  24.127  0.00  0.00    -0.149 S 
ATOM      7  H   UNL     1       6.196  -5.609  25.105  0.00  0.00    +0.107 HD
ENDBRANCH   2   6
TORSDOF 2
ENDMDL
MODEL 5
REMARK VINA RESULT:      -2.0      1.060      1.060
REMARK  Name = 
REMARK  2 active torsions:
REMARK  status: ('A' for Active; 'I' for Inactive)
REMARK    1  A    between atoms: N_1  and  C_2
REMARK    2  A    between atoms: C_3  and  S_4
REMARK                            x       y       z     vdW  Elec       q    Type
REMARK                         _______ _______ _______ _____ _____    ______ ____
ROOT
ATOM      1  C   UNL     1       9.515   0.755  21.890  0.00  0.00    +0.071 C 
ATOM      2  C   UNL     1       8.366   0.326  22.426  0.00  0.00    +0.051 C 
ENDROOT
BRANCH   1   3
ATOM      3  N   UNL     1       9.830   2.037  21.565  0.00  0.00    -0.363 N 
ATOM      4  H   UNL     1      10.002   2.298  20.601  0.00  0.00    +0.142 HD
ATOM      5  H   UNL     1       9.894   2.746  22.287  0.00  0.00    +0.142 HD
ENDBRANCH   1   3
BRANCH   2   6
ATOM      6  S   UNL     1       8.065  -1.335  22.803  0.00  0.00    -0.149 S 
ATOM      7  H   UNL     1       8.589  -1.379  24.037  0.00  0.00    +0.107 HD
ENDBRANCH   2   6
TORSDOF 2
ENDMDL
MODEL 6
REMARK VINA RESULT:      -2.0      7.341      7.460
REMARK  Name = 
REMARK  2 active torsions:
REMARK  status: ('A' for Active; 'I' for Inactive)
REMARK    1  A    between atoms: N_1  and  C_2
REMARK    2  A    between atoms: C_3  and  S_4
REMARK                            x       y       z     vdW  Elec       q    Type
REMARK                         _______ _______ _______ _____ _____    ______ ____
ROOT
ATOM      1  C   UNL     1       7.872  -5.181  26.401  0.00  0.00    +0.071 C 
ATOM      2  C   UNL     1       9.053  -4.718  25.975  0.00  0.00    +0.051 C 
ENDROOT
BRANCH   1   3
ATOM      3  N   UNL     1       7.661  -6.033  27.438  0.00  0.00    -0.363 N 
ATOM      4  H   UNL     1       7.458  -7.012  27.270  0.00  0.00    +0.142 HD
ATOM      5  H   UNL     1       7.704  -5.696  28.394  0.00  0.00    +0.142 HD
ENDBRANCH   1   3
BRANCH   2   6
ATOM      6  S   UNL     1       9.214  -3.632  24.640  0.00  0.00    -0.149 S 
ATOM      7  H   UNL     1       8.797  -2.499  25.224  0.00  0.00    +0.107 HD
ENDBRANCH   2   6
TORSDOF 2
ENDMDL
MODEL 7
REMARK VINA RESULT:      -1.9      6.951      7.087
REMARK  Name = 
REMARK  2 active torsions:
REMARK  status: ('A' for Active; 'I' for Inactive)
REMARK    1  A    between atoms: N_1  and  C_2
REMARK    2  A    between atoms: C_3  and  S_4
REMARK                            x       y       z     vdW  Elec       q    Type
REMARK                         _______ _______ _______ _____ _____    ______ ____
ROOT
ATOM      1  C   UNL     1       7.702  -5.052  25.941  0.00  0.00    +0.071 C 
ATOM      2  C   UNL     1       8.282  -5.012  24.735  0.00  0.00    +0.051 C 
ENDROOT
BRANCH   1   3
ATOM      3  N   UNL     1       8.117  -5.772  27.017  0.00  0.00    -0.363 N 
ATOM      4  H   UNL     1       8.979  -6.304  26.981  0.00  0.00    +0.142 HD
ATOM      5  H   UNL     1       7.565  -5.783  27.868  0.00  0.00    +0.142 HD
ENDBRANCH   1   3
BRANCH   2   6
ATOM      6  S   UNL     1       7.672  -4.059  23.428  0.00  0.00    -0.149 S 
ATOM      7  H   UNL     1       7.061  -5.020  22.720  0.00  0.00    +0.107 HD
ENDBRANCH   2   6
TORSDOF 2
ENDMDL
MODEL 8
REMARK VINA RESULT:      -1.9      1.603      1.754
REMARK  Name = 
REMARK  2 active torsions:
REMARK  status: ('A' for Active; 'I' for Inactive)
REMARK    1  A    between atoms: N_1  and  C_2
REMARK    2  A    between atoms: C_3  and  S_4
REMARK                            x       y       z     vdW  Elec       q    Type
REMARK                         _______ _______ _______ _____ _____    ______ ____
ROOT
ATOM      1  C   UNL     1      10.272   2.221  23.045  0.00  0.00    +0.071 C 
ATOM      2  C   UNL     1       9.902   1.617  21.909  0.00  0.00    +0.051 C 
ENDROOT
BRANCH   1   3
ATOM      3  N   UNL     1      10.517   3.548  23.216  0.00  0.00    -0.363 N 
ATOM      4  H   UNL     1      10.457   4.189  22.434  0.00  0.00    +0.142 HD
ATOM      5  H   UNL     1      10.761   3.908  24.132  0.00  0.00    +0.142 HD
ENDBRANCH   1   3
BRANCH   2   6
ATOM      6  S   UNL     1       9.615  -0.084  21.797  0.00  0.00    -0.149 S 
ATOM      7  H   UNL     1       8.274  -0.081  21.782  0.00  0.00    +0.107 HD
ENDBRANCH   2   6
TORSDOF 2
ENDMDL
MODEL 9
REMARK VINA RESULT:      -1.9      6.334      6.465
REMARK  Name = 
REMARK  2 active torsions:
REMARK  status: ('A' for Active; 'I' for Inactive)
REMARK    1  A    between atoms: N_1  and  C_2
REMARK    2  A    between atoms: C_3  and  S_4
REMARK                            x       y       z     vdW  Elec       q    Type
REMARK                         _______ _______ _______ _____ _____    ______ ____
ROOT
ATOM      1  C   UNL     1      12.414   5.841  23.874  0.00  0.00    +0.071 C 
ATOM      2  C   UNL     1      11.101   5.720  23.643  0.00  0.00    +0.051 C 
ENDROOT
BRANCH   1   3
ATOM      3  N   UNL     1      13.420   5.288  23.146  0.00  0.00    -0.363 N 
ATOM      4  H   UNL     1      13.871   5.814  22.406  0.00  0.00    +0.142 HD
ATOM      5  H   UNL     1      13.730   4.342  23.338  0.00  0.00    +0.142 HD
ENDBRANCH   1   3
BRANCH   2   6
ATOM      6  S   UNL     1       9.897   6.467  24.634  0.00  0.00    -0.149 S 
ATOM      7  H   UNL     1      10.574   6.534  25.790  0.00  0.00    +0.107 HD
ENDBRANCH   2   6
TORSDOF 2
ENDMDL
