MODEL 1
REMARK VINA RESULT:      -7.2      0.000      0.000
REMARK  Name = 
REMARK  9 active torsions:
REMARK  status: ('A' for Active; 'I' for Inactive)
REMARK    1  A    between atoms: O_1  and  N_2
REMARK    2  A    between atoms: C_6  and  O_7
REMARK    3  A    between atoms: O_7  and  C_8
REMARK    4  A    between atoms: C_8  and  C_9
REMARK    5  A    between atoms: C_9  and  O_10
REMARK    6  A    between atoms: C_18  and  O_19
REMARK    7  A    between atoms: O_19  and  C_20
REMARK    8  A    between atoms: C_20  and  C_21
REMARK    9  A    between atoms: C_21  and  O_22
REMARK                            x       y       z     vdW  Elec       q    Type
REMARK                         _______ _______ _______ _____ _____    ______ ____
ROOT
ATOM      1  N   UNL     1      10.064  -0.411  21.878  0.00  0.00    -0.086 NA
ATOM      2  C   UNL     1       9.128  -0.074  22.707  0.00  0.00    +0.118 C 
ATOM      3  C   UNL     1       7.967  -0.831  23.254  0.00  0.00    +0.015 A 
ATOM      4  C   UNL     1       7.534  -2.131  23.031  0.00  0.00    +0.056 A 
ATOM      5  C   UNL     1       6.390  -2.572  23.701  0.00  0.00    +0.122 A 
ATOM      6  C   UNL     1       5.722  -1.714  24.595  0.00  0.00    +0.046 A 
ATOM      7  C   UNL     1       6.162  -0.402  24.810  0.00  0.00    +0.013 A 
ATOM      8  C   UNL     1       7.290   0.037  24.132  0.00  0.00    -0.008 A 
ATOM      9  C   UNL     1       7.963   1.316  24.164  0.00  0.00    -0.008 A 
ATOM     10  C   UNL     1       7.680   2.477  24.861  0.00  0.00    +0.013 A 
ATOM     11  C   UNL     1       8.526   3.586  24.696  0.00  0.00    +0.046 A 
ATOM     12  C   UNL     1       9.648   3.532  23.845  0.00  0.00    +0.122 A 
ATOM     13  C   UNL     1       9.919   2.362  23.126  0.00  0.00    +0.056 A 
ATOM     14  C   UNL     1       9.073   1.279  23.312  0.00  0.00    +0.015 A 
ENDROOT
BRANCH   1  15
ATOM     15  O   UNL     1       9.944  -1.726  21.431  0.00  0.00    -0.409 OA
ATOM     16  H   UNL     1       9.277  -1.645  20.724  0.00  0.00    +0.328 HD
ENDBRANCH   1  15
BRANCH   5  17
ATOM     17  O   UNL     1       5.857  -3.835  23.598  0.00  0.00    -0.481 OA
BRANCH  17  18
ATOM     18  C   UNL     1       6.763  -4.841  23.127  0.00  0.00    +0.349 C 
BRANCH  18  19
ATOM     19  C   UNL     1       6.202  -5.494  21.872  0.00  0.00    +0.343 C 
ATOM     20  O   UNL     1       5.908  -4.877  20.857  0.00  0.00    -0.247 OA
BRANCH  19  21
ATOM     21  O   UNL     1       6.071  -6.838  21.972  0.00  0.00    -0.478 OA
ATOM     22  H   UNL     1       5.118  -7.079  21.959  0.00  0.00    +0.295 HD
ENDBRANCH  19  21
ENDBRANCH  18  19
ENDBRANCH  17  18
ENDBRANCH   5  17
BRANCH  12  23
ATOM     23  O   UNL     1      10.506   4.580  23.619  0.00  0.00    -0.481 OA
BRANCH  23  24
ATOM     24  C   UNL     1      11.846   4.211  23.271  0.00  0.00    +0.349 C 
BRANCH  24  25
ATOM     25  C   UNL     1      12.810   5.341  23.600  0.00  0.00    +0.343 C 
ATOM     26  O   UNL     1      12.477   6.374  24.164  0.00  0.00    -0.247 OA
BRANCH  25  27
ATOM     27  O   UNL     1      14.079   5.108  23.190  0.00  0.00    -0.478 OA
ATOM     28  H   UNL     1      14.425   5.893  22.710  0.00  0.00    +0.295 HD
ENDBRANCH  25  27
ENDBRANCH  24  25
ENDBRANCH  23  24
ENDBRANCH  12  23
TORSDOF 9
ENDMDL
MODEL 2
REMARK VINA RESULT:      -7.1      2.121      2.571
REMARK  Name = 
REMARK  9 active torsions:
REMARK  status: ('A' for Active; 'I' for Inactive)
REMARK    1  A    between atoms: O_1  and  N_2
REMARK    2  A    between atoms: C_6  and  O_7
REMARK    3  A    between atoms: O_7  and  C_8
REMARK    4  A    between atoms: C_8  and  C_9
REMARK    5  A    between atoms: C_9  and  O_10
REMARK    6  A    between atoms: C_18  and  O_19
REMARK    7  A    between atoms: O_19  and  C_20
REMARK    8  A    between atoms: C_20  and  C_21
REMARK    9  A    between atoms: C_21  and  O_22
REMARK                            x       y       z     vdW  Elec       q    Type
REMARK                         _______ _______ _______ _____ _____    ______ ____
ROOT
ATOM      1  N   UNL     1       9.174  -0.418  26.475  0.00  0.00    -0.086 NA
ATOM      2  C   UNL     1       9.092  -0.590  25.194  0.00  0.00    +0.118 C 
ATOM      3  C   UNL     1       8.612  -1.738  24.375  0.00  0.00    +0.015 A 
ATOM      4  C   UNL     1       8.113  -2.981  24.743  0.00  0.00    +0.056 A 
ATOM      5  C   UNL     1       7.735  -3.867  23.732  0.00  0.00    +0.122 A 
ATOM      6  C   UNL     1       7.838  -3.484  22.382  0.00  0.00    +0.046 A 
ATOM      7  C   UNL     1       8.347  -2.231  22.019  0.00  0.00    +0.013 A 
ATOM      8  C   UNL     1       8.736  -1.358  23.025  0.00  0.00    -0.008 A 
ATOM      9  C   UNL     1       9.280  -0.021  22.946  0.00  0.00    -0.008 A 
ATOM     10  C   UNL     1       9.587   0.775  21.857  0.00  0.00    +0.013 A 
ATOM     11  C   UNL     1      10.112   2.058  22.085  0.00  0.00    +0.046 A 
ATOM     12  C   UNL     1      10.323   2.542  23.392  0.00  0.00    +0.122 A 
ATOM     13  C   UNL     1      10.031   1.726  24.491  0.00  0.00    +0.056 A 
ATOM     14  C   UNL     1       9.508   0.466  24.239  0.00  0.00    +0.015 A 
ENDROOT
BRANCH   1  15
ATOM     15  O   UNL     1       8.726  -1.522  27.198  0.00  0.00    -0.409 OA
ATOM     16  H   UNL     1       8.472  -2.145  26.492  0.00  0.00    +0.328 HD
ENDBRANCH   1  15
BRANCH   5  17
ATOM     17  O   UNL     1       7.205  -5.119  23.943  0.00  0.00    -0.481 OA
BRANCH  17  18
ATOM     18  C   UNL     1       5.843  -5.137  24.388  0.00  0.00    +0.349 C 
BRANCH  18  19
ATOM     19  C   UNL     1       4.980  -5.879  23.378  0.00  0.00    +0.343 C 
ATOM     20  O   UNL     1       4.485  -5.355  22.390  0.00  0.00    -0.247 OA
BRANCH  19  21
ATOM     21  O   UNL     1       4.822  -7.193  23.663  0.00  0.00    -0.478 OA
ATOM     22  H   UNL     1       3.865  -7.418  23.666  0.00  0.00    +0.295 HD
ENDBRANCH  19  21
ENDBRANCH  18  19
ENDBRANCH  17  18
ENDBRANCH   5  17
BRANCH  12  23
ATOM     23  O   UNL     1      10.851   3.774  23.691  0.00  0.00    -0.481 OA
BRANCH  23  24
ATOM     24  C   UNL     1      11.879   4.231  22.804  0.00  0.00    +0.349 C 
BRANCH  24  25
ATOM     25  C   UNL     1      12.852   5.138  23.542  0.00  0.00    +0.343 C 
ATOM     26  O   UNL     1      12.520   5.905  24.435  0.00  0.00    -0.247 OA
BRANCH  25  27
ATOM     27  O   UNL     1      14.128   5.034  23.105  0.00  0.00    -0.478 OA
ATOM     28  H   UNL     1      14.728   4.857  23.862  0.00  0.00    +0.295 HD
ENDBRANCH  25  27
ENDBRANCH  24  25
ENDBRANCH  23  24
ENDBRANCH  12  23
TORSDOF 9
ENDMDL
MODEL 3
REMARK VINA RESULT:      -7.1      3.499      4.987
REMARK  Name = 
REMARK  9 active torsions:
REMARK  status: ('A' for Active; 'I' for Inactive)
REMARK    1  A    between atoms: O_1  and  N_2
REMARK    2  A    between atoms: C_6  and  O_7
REMARK    3  A    between atoms: O_7  and  C_8
REMARK    4  A    between atoms: C_8  and  C_9
REMARK    5  A    between atoms: C_9  and  O_10
REMARK    6  A    between atoms: C_18  and  O_19
REMARK    7  A    between atoms: O_19  and  C_20
REMARK    8  A    between atoms: C_20  and  C_21
REMARK    9  A    between atoms: C_21  and  O_22
REMARK                            x       y       z     vdW  Elec       q    Type
REMARK                         _______ _______ _______ _____ _____    ______ ____
ROOT
ATOM      1  N   UNL     1      10.170  -4.498  24.829  0.00  0.00    -0.086 NA
ATOM      2  C   UNL     1       8.982  -4.009  24.673  0.00  0.00    +0.118 C 
ATOM      3  C   UNL     1       7.644  -4.487  25.124  0.00  0.00    +0.015 A 
ATOM      4  C   UNL     1       7.268  -5.612  25.844  0.00  0.00    +0.056 A 
ATOM      5  C   UNL     1       5.912  -5.797  26.124  0.00  0.00    +0.122 A 
ATOM      6  C   UNL     1       4.969  -4.842  25.701  0.00  0.00    +0.046 A 
ATOM      7  C   UNL     1       5.355  -3.712  24.969  0.00  0.00    +0.013 A 
ATOM      8  C   UNL     1       6.701  -3.540  24.681  0.00  0.00    -0.008 A 
ATOM      9  C   UNL     1       7.376  -2.482  23.961  0.00  0.00    -0.008 A 
ATOM     10  C   UNL     1       6.888  -1.347  23.340  0.00  0.00    +0.013 A 
ATOM     11  C   UNL     1       7.796  -0.480  22.709  0.00  0.00    +0.046 A 
ATOM     12  C   UNL     1       9.180  -0.745  22.704  0.00  0.00    +0.122 A 
ATOM     13  C   UNL     1       9.668  -1.905  23.316  0.00  0.00    +0.056 A 
ATOM     14  C   UNL     1       8.752  -2.741  23.938  0.00  0.00    +0.015 A 
ENDROOT
BRANCH   1  15
ATOM     15  O   UNL     1      10.174  -5.689  25.555  0.00  0.00    -0.409 OA
ATOM     16  H   UNL     1       9.272  -6.027  25.405  0.00  0.00    +0.328 HD
ENDBRANCH   1  15
BRANCH   5  17
ATOM     17  O   UNL     1       5.395  -6.848  26.844  0.00  0.00    -0.481 OA
BRANCH  17  18
ATOM     18  C   UNL     1       4.894  -6.508  28.143  0.00  0.00    +0.349 C 
BRANCH  18  19
ATOM     19  C   UNL     1       6.016  -6.595  29.167  0.00  0.00    +0.343 C 
ATOM     20  O   UNL     1       6.762  -7.558  29.279  0.00  0.00    -0.247 OA
BRANCH  19  21
ATOM     21  O   UNL     1       6.128  -5.491  29.942  0.00  0.00    -0.478 OA
ATOM     22  H   UNL     1       6.310  -4.707  29.377  0.00  0.00    +0.295 HD
ENDBRANCH  19  21
ENDBRANCH  18  19
ENDBRANCH  17  18
ENDBRANCH   5  17
BRANCH  12  23
ATOM     23  O   UNL     1      10.122   0.045  22.092  0.00  0.00    -0.481 OA
BRANCH  23  24
ATOM     24  C   UNL     1       9.767   1.426  21.953  0.00  0.00    +0.349 C 
BRANCH  24  25
ATOM     25  C   UNL     1      10.315   2.234  23.119  0.00  0.00    +0.343 C 
ATOM     26  O   UNL     1      10.970   1.750  24.032  0.00  0.00    -0.247 OA
BRANCH  25  27
ATOM     27  O   UNL     1       9.995   3.548  23.066  0.00  0.00    -0.478 OA
ATOM     28  H   UNL     1       9.022   3.658  23.144  0.00  0.00    +0.295 HD
ENDBRANCH  25  27
ENDBRANCH  24  25
ENDBRANCH  23  24
ENDBRANCH  12  23
TORSDOF 9
ENDMDL
MODEL 4
REMARK VINA RESULT:      -7.1      3.313      9.570
REMARK  Name = 
REMARK  9 active torsions:
REMARK  status: ('A' for Active; 'I' for Inactive)
REMARK    1  A    between atoms: O_1  and  N_2
REMARK    2  A    between atoms: C_6  and  O_7
REMARK    3  A    between atoms: O_7  and  C_8
REMARK    4  A    between atoms: C_8  and  C_9
REMARK    5  A    between atoms: C_9  and  O_10
REMARK    6  A    between atoms: C_18  and  O_19
REMARK    7  A    between atoms: O_19  and  C_20
REMARK    8  A    between atoms: C_20  and  C_21
REMARK    9  A    between atoms: C_21  and  O_22
REMARK                            x       y       z     vdW  Elec       q    Type
REMARK                         _______ _______ _______ _____ _____    ______ ____
ROOT
ATOM      1  N   UNL     1       5.250  -4.391  21.983  0.00  0.00    -0.086 NA
ATOM      2  C   UNL     1       6.080  -4.314  22.975  0.00  0.00    +0.118 C 
ATOM      3  C   UNL     1       7.363  -3.576  23.141  0.00  0.00    +0.015 A 
ATOM      4  C   UNL     1       8.063  -2.749  22.272  0.00  0.00    +0.056 A 
ATOM      5  C   UNL     1       9.262  -2.185  22.717  0.00  0.00    +0.122 A 
ATOM      6  C   UNL     1       9.718  -2.438  24.023  0.00  0.00    +0.046 A 
ATOM      7  C   UNL     1       9.009  -3.277  24.891  0.00  0.00    +0.013 A 
ATOM      8  C   UNL     1       7.827  -3.848  24.442  0.00  0.00    -0.008 A 
ATOM      9  C   UNL     1       6.900  -4.733  25.112  0.00  0.00    -0.008 A 
ATOM     10  C   UNL     1       6.920  -5.282  26.381  0.00  0.00    +0.013 A 
ATOM     11  C   UNL     1       5.863  -6.122  26.770  0.00  0.00    +0.046 A 
ATOM     12  C   UNL     1       4.793  -6.405  25.897  0.00  0.00    +0.122 A 
ATOM     13  C   UNL     1       4.787  -5.865  24.607  0.00  0.00    +0.056 A 
ATOM     14  C   UNL     1       5.838  -5.033  24.249  0.00  0.00    +0.015 A 
ENDROOT
BRANCH   1  15
ATOM     15  O   UNL     1       5.652  -3.637  20.882  0.00  0.00    -0.409 OA
ATOM     16  H   UNL     1       5.178  -4.070  20.148  0.00  0.00    +0.328 HD
ENDBRANCH   1  15
BRANCH   5  17
ATOM     17  O   UNL     1      10.049  -1.333  21.979  0.00  0.00    -0.481 OA
BRANCH  17  18
ATOM     18  C   UNL     1       9.382  -0.166  21.480  0.00  0.00    +0.349 C 
BRANCH  18  19
ATOM     19  C   UNL     1       9.935   1.076  22.164  0.00  0.00    +0.343 C 
ATOM     20  O   UNL     1      10.449   1.070  23.273  0.00  0.00    -0.247 OA
BRANCH  19  21
ATOM     21  O   UNL     1       9.824   2.200  21.417  0.00  0.00    -0.478 OA
ATOM     22  H   UNL     1       9.644   1.958  20.481  0.00  0.00    +0.295 HD
ENDBRANCH  19  21
ENDBRANCH  18  19
ENDBRANCH  17  18
ENDBRANCH   5  17
BRANCH  12  23
ATOM     23  O   UNL     1       3.739  -7.232  26.200  0.00  0.00    -0.481 OA
BRANCH  23  24
ATOM     24  C   UNL     1       2.587  -7.087  25.361  0.00  0.00    +0.349 C 
BRANCH  24  25
ATOM     25  C   UNL     1       2.340  -8.364  24.573  0.00  0.00    +0.343 C 
ATOM     26  O   UNL     1       2.077  -9.441  25.091  0.00  0.00    -0.247 OA
BRANCH  25  27
ATOM     27  O   UNL     1       2.459  -8.208  23.234  0.00  0.00    -0.478 OA
ATOM     28  H   UNL     1       2.464  -7.252  23.008  0.00  0.00    +0.295 HD
ENDBRANCH  25  27
ENDBRANCH  24  25
ENDBRANCH  23  24
ENDBRANCH  12  23
TORSDOF 9
ENDMDL
MODEL 5
REMARK VINA RESULT:      -7.1      1.556      1.910
REMARK  Name = 
REMARK  9 active torsions:
REMARK  status: ('A' for Active; 'I' for Inactive)
REMARK    1  A    between atoms: O_1  and  N_2
REMARK    2  A    between atoms: C_6  and  O_7
REMARK    3  A    between atoms: O_7  and  C_8
REMARK    4  A    between atoms: C_8  and  C_9
REMARK    5  A    between atoms: C_9  and  O_10
REMARK    6  A    between atoms: C_18  and  O_19
REMARK    7  A    between atoms: O_19  and  C_20
REMARK    8  A    between atoms: C_20  and  C_21
REMARK    9  A    between atoms: C_21  and  O_22
REMARK                            x       y       z     vdW  Elec       q    Type
REMARK                         _______ _______ _______ _____ _____    ______ ____
ROOT
ATOM      1  N   UNL     1      10.229  -0.371  21.885  0.00  0.00    -0.086 NA
ATOM      2  C   UNL     1       9.444  -0.130  22.887  0.00  0.00    +0.118 C 
ATOM      3  C   UNL     1       8.515  -1.006  23.655  0.00  0.00    +0.015 A 
ATOM      4  C   UNL     1       8.205  -2.353  23.520  0.00  0.00    +0.056 A 
ATOM      5  C   UNL     1       7.280  -2.911  24.406  0.00  0.00    +0.122 A 
ATOM      6  C   UNL     1       6.707  -2.119  25.418  0.00  0.00    +0.046 A 
ATOM      7  C   UNL     1       7.021  -0.760  25.544  0.00  0.00    +0.013 A 
ATOM      8  C   UNL     1       7.929  -0.206  24.654  0.00  0.00    -0.008 A 
ATOM      9  C   UNL     1       8.437   1.144  24.553  0.00  0.00    -0.008 A 
ATOM     10  C   UNL     1       8.163   2.279  25.296  0.00  0.00    +0.013 A 
ATOM     11  C   UNL     1       8.820   3.476  24.967  0.00  0.00    +0.046 A 
ATOM     12  C   UNL     1       9.747   3.536  23.907  0.00  0.00    +0.122 A 
ATOM     13  C   UNL     1      10.006   2.391  23.145  0.00  0.00    +0.056 A 
ATOM     14  C   UNL     1       9.350   1.220  23.494  0.00  0.00    +0.015 A 
ENDROOT
BRANCH   1  15
ATOM     15  O   UNL     1      10.179  -1.701  21.468  0.00  0.00    -0.409 OA
ATOM     16  H   UNL     1       9.309  -1.749  21.030  0.00  0.00    +0.328 HD
ENDBRANCH   1  15
BRANCH   5  17
ATOM     17  O   UNL     1       6.892  -4.230  24.408  0.00  0.00    -0.481 OA
BRANCH  17  18
ATOM     18  C   UNL     1       7.912  -5.165  24.034  0.00  0.00    +0.349 C 
BRANCH  18  19
ATOM     19  C   UNL     1       8.912  -5.319  25.171  0.00  0.00    +0.343 C 
ATOM     20  O   UNL     1      10.094  -5.019  25.083  0.00  0.00    -0.247 OA
BRANCH  19  21
ATOM     21  O   UNL     1       8.366  -5.808  26.309  0.00  0.00    -0.478 OA
ATOM     22  H   UNL     1       8.915  -6.550  26.647  0.00  0.00    +0.295 HD
ENDBRANCH  19  21
ENDBRANCH  18  19
ENDBRANCH  17  18
ENDBRANCH   5  17
BRANCH  12  23
ATOM     23  O   UNL     1      10.410   4.673  23.516  0.00  0.00    -0.481 OA
BRANCH  23  24
ATOM     24  C   UNL     1      11.710   4.460  22.952  0.00  0.00    +0.349 C 
BRANCH  24  25
ATOM     25  C   UNL     1      12.729   5.383  23.604  0.00  0.00    +0.343 C 
ATOM     26  O   UNL     1      12.431   6.284  24.376  0.00  0.00    -0.247 OA
BRANCH  25  27
ATOM     27  O   UNL     1      14.006   5.129  23.234  0.00  0.00    -0.478 OA
ATOM     28  H   UNL     1      14.036   4.330  22.664  0.00  0.00    +0.295 HD
ENDBRANCH  25  27
ENDBRANCH  24  25
ENDBRANCH  23  24
ENDBRANCH  12  23
TORSDOF 9
ENDMDL
MODEL 6
REMARK VINA RESULT:      -7.0      2.264      8.786
REMARK  Name = 
REMARK  9 active torsions:
REMARK  status: ('A' for Active; 'I' for Inactive)
REMARK    1  A    between atoms: O_1  and  N_2
REMARK    2  A    between atoms: C_6  and  O_7
REMARK    3  A    between atoms: O_7  and  C_8
REMARK    4  A    between atoms: C_8  and  C_9
REMARK    5  A    between atoms: C_9  and  O_10
REMARK    6  A    between atoms: C_18  and  O_19
REMARK    7  A    between atoms: O_19  and  C_20
REMARK    8  A    between atoms: C_20  and  C_21
REMARK    9  A    between atoms: C_21  and  O_22
REMARK                            x       y       z     vdW  Elec       q    Type
REMARK                         _______ _______ _______ _____ _____    ______ ____
ROOT
ATOM      1  N   UNL     1       7.669  -0.072  26.441  0.00  0.00    -0.086 NA
ATOM      2  C   UNL     1       8.087  -0.187  25.221  0.00  0.00    +0.118 C 
ATOM      3  C   UNL     1       8.859   0.740  24.345  0.00  0.00    +0.015 A 
ATOM      4  C   UNL     1       9.356   2.016  24.574  0.00  0.00    +0.056 A 
ATOM      5  C   UNL     1      10.055   2.648  23.543  0.00  0.00    +0.122 A 
ATOM      6  C   UNL     1      10.263   1.983  22.321  0.00  0.00    +0.046 A 
ATOM      7  C   UNL     1       9.753   0.698  22.096  0.00  0.00    +0.013 A 
ATOM      8  C   UNL     1       9.047   0.079  23.116  0.00  0.00    -0.008 A 
ATOM      9  C   UNL     1       8.424  -1.225  23.166  0.00  0.00    -0.008 A 
ATOM     10  C   UNL     1       8.334  -2.229  22.218  0.00  0.00    +0.013 A 
ATOM     11  C   UNL     1       7.657  -3.413  22.553  0.00  0.00    +0.046 A 
ATOM     12  C   UNL     1       7.080  -3.594  23.826  0.00  0.00    +0.122 A 
ATOM     13  C   UNL     1       7.156  -2.568  24.775  0.00  0.00    +0.056 A 
ATOM     14  C   UNL     1       7.835  -1.411  24.423  0.00  0.00    +0.015 A 
ENDROOT
BRANCH   1  15
ATOM     15  O   UNL     1       8.016   1.148  27.020  0.00  0.00    -0.409 OA
ATOM     16  H   UNL     1       7.343   1.246  27.719  0.00  0.00    +0.328 HD
ENDBRANCH   1  15
BRANCH   5  17
ATOM     17  O   UNL     1      10.622   3.897  23.631  0.00  0.00    -0.481 OA
BRANCH  17  18
ATOM     18  C   UNL     1      11.848   4.062  22.906  0.00  0.00    +0.349 C 
BRANCH  18  19
ATOM     19  C   UNL     1      12.665   5.188  23.524  0.00  0.00    +0.343 C 
ATOM     20  O   UNL     1      12.187   6.073  24.219  0.00  0.00    -0.247 OA
BRANCH  19  21
ATOM     21  O   UNL     1      13.989   5.110  23.249  0.00  0.00    -0.478 OA
ATOM     22  H   UNL     1      14.120   5.013  22.280  0.00  0.00    +0.295 HD
ENDBRANCH  19  21
ENDBRANCH  18  19
ENDBRANCH  17  18
ENDBRANCH   5  17
BRANCH  12  23
ATOM     23  O   UNL     1       6.387  -4.714  24.216  0.00  0.00    -0.481 OA
BRANCH  23  24
ATOM     24  C   UNL     1       5.788  -4.641  25.515  0.00  0.00    +0.349 C 
BRANCH  24  25
ATOM     25  C   UNL     1       6.214  -5.830  26.363  0.00  0.00    +0.343 C 
ATOM     26  O   UNL     1       5.479  -6.771  26.629  0.00  0.00    -0.247 OA
BRANCH  25  27
ATOM     27  O   UNL     1       7.486  -5.744  26.818  0.00  0.00    -0.478 OA
ATOM     28  H   UNL     1       7.484  -5.563  27.784  0.00  0.00    +0.295 HD
ENDBRANCH  25  27
ENDBRANCH  24  25
ENDBRANCH  23  24
ENDBRANCH  12  23
TORSDOF 9
ENDMDL
MODEL 7
REMARK VINA RESULT:      -6.9      2.890      4.697
REMARK  Name = 
REMARK  9 active torsions:
REMARK  status: ('A' for Active; 'I' for Inactive)
REMARK    1  A    between atoms: O_1  and  N_2
REMARK    2  A    between atoms: C_6  and  O_7
REMARK    3  A    between atoms: O_7  and  C_8
REMARK    4  A    between atoms: C_8  and  C_9
REMARK    5  A    between atoms: C_9  and  O_10
REMARK    6  A    between atoms: C_18  and  O_19
REMARK    7  A    between atoms: O_19  and  C_20
REMARK    8  A    between atoms: C_20  and  C_21
REMARK    9  A    between atoms: C_21  and  O_22
REMARK                            x       y       z     vdW  Elec       q    Type
REMARK                         _______ _______ _______ _____ _____    ______ ____
ROOT
ATOM      1  N   UNL     1       7.988  -3.387  26.602  0.00  0.00    -0.086 NA
ATOM      2  C   UNL     1       7.767  -3.485  25.330  0.00  0.00    +0.118 C 
ATOM      3  C   UNL     1       6.908  -4.413  24.541  0.00  0.00    +0.015 A 
ATOM      4  C   UNL     1       6.090  -5.463  24.935  0.00  0.00    +0.056 A 
ATOM      5  C   UNL     1       5.392  -6.164  23.949  0.00  0.00    +0.122 A 
ATOM      6  C   UNL     1       5.507  -5.785  22.599  0.00  0.00    +0.046 A 
ATOM      7  C   UNL     1       6.339  -4.728  22.208  0.00  0.00    +0.013 A 
ATOM      8  C   UNL     1       7.042  -4.043  23.189  0.00  0.00    -0.008 A 
ATOM      9  C   UNL     1       7.953  -2.925  23.079  0.00  0.00    -0.008 A 
ATOM     10  C   UNL     1       8.404  -2.222  21.977  0.00  0.00    +0.013 A 
ATOM     11  C   UNL     1       9.302  -1.160  22.175  0.00  0.00    +0.046 A 
ATOM     12  C   UNL     1       9.741  -0.803  23.466  0.00  0.00    +0.122 A 
ATOM     13  C   UNL     1       9.300  -1.531  24.576  0.00  0.00    +0.056 A 
ATOM     14  C   UNL     1       8.408  -2.570  24.355  0.00  0.00    +0.015 A 
ENDROOT
BRANCH   1  15
ATOM     15  O   UNL     1       7.284  -4.331  27.348  0.00  0.00    -0.409 OA
ATOM     16  H   UNL     1       7.152  -5.050  26.703  0.00  0.00    +0.328 HD
ENDBRANCH   1  15
BRANCH   5  17
ATOM     17  O   UNL     1       4.530  -7.208  24.189  0.00  0.00    -0.481 OA
BRANCH  17  18
ATOM     18  C   UNL     1       3.139  -6.894  24.051  0.00  0.00    +0.349 C 
BRANCH  18  19
ATOM     19  C   UNL     1       2.309  -8.164  24.171  0.00  0.00    +0.343 C 
ATOM     20  O   UNL     1       1.354  -8.424  23.453  0.00  0.00    -0.247 OA
BRANCH  19  21
ATOM     21  O   UNL     1       2.739  -9.002  25.145  0.00  0.00    -0.478 OA
ATOM     22  H   UNL     1       2.894  -9.896  24.767  0.00  0.00    +0.295 HD
ENDBRANCH  19  21
ENDBRANCH  18  19
ENDBRANCH  17  18
ENDBRANCH   5  17
BRANCH  12  23
ATOM     23  O   UNL     1      10.633   0.207  23.734  0.00  0.00    -0.481 OA
BRANCH  23  24
ATOM     24  C   UNL     1      10.045   1.486  24.002  0.00  0.00    +0.349 C 
BRANCH  24  25
ATOM     25  C   UNL     1      10.562   2.524  23.017  0.00  0.00    +0.343 C 
ATOM     26  O   UNL     1      11.188   3.521  23.349  0.00  0.00    -0.247 OA
BRANCH  25  27
ATOM     27  O   UNL     1      10.248   2.254  21.729  0.00  0.00    -0.478 OA
ATOM     28  H   UNL     1      10.052   3.089  21.250  0.00  0.00    +0.295 HD
ENDBRANCH  25  27
ENDBRANCH  24  25
ENDBRANCH  23  24
ENDBRANCH  12  23
TORSDOF 9
ENDMDL
MODEL 8
REMARK VINA RESULT:      -6.9      3.332      5.439
REMARK  Name = 
REMARK  9 active torsions:
REMARK  status: ('A' for Active; 'I' for Inactive)
REMARK    1  A    between atoms: O_1  and  N_2
REMARK    2  A    between atoms: C_6  and  O_7
REMARK    3  A    between atoms: O_7  and  C_8
REMARK    4  A    between atoms: C_8  and  C_9
REMARK    5  A    between atoms: C_9  and  O_10
REMARK    6  A    between atoms: C_18  and  O_19
REMARK    7  A    between atoms: O_19  and  C_20
REMARK    8  A    between atoms: C_20  and  C_21
REMARK    9  A    between atoms: C_21  and  O_22
REMARK                            x       y       z     vdW  Elec       q    Type
REMARK                         _______ _______ _______ _____ _____    ______ ____
ROOT
ATOM      1  N   UNL     1       6.528  -4.990  21.296  0.00  0.00    -0.086 NA
ATOM      2  C   UNL     1       6.703  -4.779  22.561  0.00  0.00    +0.118 C 
ATOM      3  C   UNL     1       6.090  -5.405  23.767  0.00  0.00    +0.015 A 
ATOM      4  C   UNL     1       5.135  -6.405  23.894  0.00  0.00    +0.056 A 
ATOM      5  C   UNL     1       4.751  -6.793  25.180  0.00  0.00    +0.122 A 
ATOM      6  C   UNL     1       5.347  -6.194  26.304  0.00  0.00    +0.046 A 
ATOM      7  C   UNL     1       6.305  -5.182  26.168  0.00  0.00    +0.013 A 
ATOM      8  C   UNL     1       6.674  -4.789  24.890  0.00  0.00    -0.008 A 
ATOM      9  C   UNL     1       7.627  -3.792  24.455  0.00  0.00    -0.008 A 
ATOM     10  C   UNL     1       8.437  -2.932  25.174  0.00  0.00    +0.013 A 
ATOM     11  C   UNL     1       9.282  -2.056  24.472  0.00  0.00    +0.046 A 
ATOM     12  C   UNL     1       9.318  -2.045  23.063  0.00  0.00    +0.122 A 
ATOM     13  C   UNL     1       8.482  -2.902  22.339  0.00  0.00    +0.056 A 
ATOM     14  C   UNL     1       7.663  -3.762  23.056  0.00  0.00    +0.015 A 
ENDROOT
BRANCH   1  15
ATOM     15  O   UNL     1       5.592  -5.991  21.039  0.00  0.00    -0.409 OA
ATOM     16  H   UNL     1       5.888  -6.710  21.627  0.00  0.00    +0.328 HD
ENDBRANCH   1  15
BRANCH   5  17
ATOM     17  O   UNL     1       3.836  -7.781  25.461  0.00  0.00    -0.481 OA
BRANCH  17  18
ATOM     18  C   UNL     1       2.492  -7.502  25.048  0.00  0.00    +0.349 C 
BRANCH  18  19
ATOM     19  C   UNL     1       1.827  -8.782  24.563  0.00  0.00    +0.343 C 
ATOM     20  O   UNL     1       1.127  -8.848  23.563  0.00  0.00    -0.247 OA
BRANCH  19  21
ATOM     21  O   UNL     1       2.096  -9.859  25.338  0.00  0.00    -0.478 OA
ATOM     22  H   UNL     1       1.444  -9.909  26.073  0.00  0.00    +0.295 HD
ENDBRANCH  19  21
ENDBRANCH  18  19
ENDBRANCH  17  18
ENDBRANCH   5  17
BRANCH  12  23
ATOM     23  O   UNL     1      10.102  -1.204  22.310  0.00  0.00    -0.481 OA
BRANCH  23  24
ATOM     24  C   UNL     1       9.423  -0.073  21.750  0.00  0.00    +0.349 C 
BRANCH  24  25
ATOM     25  C   UNL     1       9.931   1.215  22.379  0.00  0.00    +0.343 C 
ATOM     26  O   UNL     1      10.049   1.381  23.586  0.00  0.00    -0.247 OA
BRANCH  25  27
ATOM     27  O   UNL     1      10.226   2.180  21.477  0.00  0.00    -0.478 OA
ATOM     28  H   UNL     1       9.488   2.827  21.426  0.00  0.00    +0.295 HD
ENDBRANCH  25  27
ENDBRANCH  24  25
ENDBRANCH  23  24
ENDBRANCH  12  23
TORSDOF 9
ENDMDL
MODEL 9
REMARK VINA RESULT:      -6.8      3.605      8.929
REMARK  Name = 
REMARK  9 active torsions:
REMARK  status: ('A' for Active; 'I' for Inactive)
REMARK    1  A    between atoms: O_1  and  N_2
REMARK    2  A    between atoms: C_6  and  O_7
REMARK    3  A    between atoms: O_7  and  C_8
REMARK    4  A    between atoms: C_8  and  C_9
REMARK    5  A    between atoms: C_9  and  O_10
REMARK    6  A    between atoms: C_18  and  O_19
REMARK    7  A    between atoms: O_19  and  C_20
REMARK    8  A    between atoms: C_20  and  C_21
REMARK    9  A    between atoms: C_21  and  O_22
REMARK                            x       y       z     vdW  Elec       q    Type
REMARK                         _______ _______ _______ _____ _____    ______ ____
ROOT
ATOM      1  N   UNL     1       7.861  -0.431  27.087  0.00  0.00    -0.086 NA
ATOM      2  C   UNL     1       8.374  -1.016  26.053  0.00  0.00    +0.118 C 
ATOM      3  C   UNL     1       8.987  -0.474  24.807  0.00  0.00    +0.015 A 
ATOM      4  C   UNL     1       9.184   0.831  24.376  0.00  0.00    +0.056 A 
ATOM      5  C   UNL     1       9.799   1.034  23.138  0.00  0.00    +0.122 A 
ATOM      6  C   UNL     1      10.224  -0.068  22.374  0.00  0.00    +0.046 A 
ATOM      7  C   UNL     1      10.017  -1.382  22.813  0.00  0.00    +0.013 A 
ATOM      8  C   UNL     1       9.393  -1.580  24.036  0.00  0.00    -0.008 A 
ATOM      9  C   UNL     1       9.061  -2.804  24.731  0.00  0.00    -0.008 A 
ATOM     10  C   UNL     1       9.250  -4.129  24.383  0.00  0.00    +0.013 A 
ATOM     11  C   UNL     1       8.821  -5.128  25.272  0.00  0.00    +0.046 A 
ATOM     12  C   UNL     1       8.213  -4.803  26.501  0.00  0.00    +0.122 A 
ATOM     13  C   UNL     1       8.004  -3.462  26.840  0.00  0.00    +0.056 A 
ATOM     14  C   UNL     1       8.443  -2.494  25.948  0.00  0.00    +0.015 A 
ENDROOT
BRANCH   1  15
ATOM     15  O   UNL     1       7.900   0.960  26.997  0.00  0.00    -0.409 OA
ATOM     16  H   UNL     1       7.901   1.106  26.033  0.00  0.00    +0.328 HD
ENDBRANCH   1  15
BRANCH   5  17
ATOM     17  O   UNL     1      10.079   2.264  22.593  0.00  0.00    -0.481 OA
BRANCH  17  18
ATOM     18  C   UNL     1      10.814   3.154  23.443  0.00  0.00    +0.349 C 
BRANCH  18  19
ATOM     19  C   UNL     1       9.969   4.380  23.759  0.00  0.00    +0.343 C 
ATOM     20  O   UNL     1       9.044   4.381  24.558  0.00  0.00    -0.247 OA
BRANCH  19  21
ATOM     21  O   UNL     1      10.350   5.489  23.082  0.00  0.00    -0.478 OA
ATOM     22  H   UNL     1      11.244   5.769  23.382  0.00  0.00    +0.295 HD
ENDBRANCH  19  21
ENDBRANCH  18  19
ENDBRANCH  17  18
ENDBRANCH   5  17
BRANCH  12  23
ATOM     23  O   UNL     1       7.751  -5.724  27.409  0.00  0.00    -0.481 OA
BRANCH  23  24
ATOM     24  C   UNL     1       6.398  -5.533  27.841  0.00  0.00    +0.349 C 
BRANCH  24  25
ATOM     25  C   UNL     1       6.078  -6.454  29.008  0.00  0.00    +0.343 C 
ATOM     26  O   UNL     1       6.340  -6.189  30.173  0.00  0.00    -0.247 OA
BRANCH  25  27
ATOM     27  O   UNL     1       5.489  -7.615  28.637  0.00  0.00    -0.478 OA
ATOM     28  H   UNL     1       6.083  -8.371  28.841  0.00  0.00    +0.295 HD
ENDBRANCH  25  27
ENDBRANCH  24  25
ENDBRANCH  23  24
ENDBRANCH  12  23
TORSDOF 9
ENDMDL
