MODEL 1
REMARK VINA RESULT:      -7.5      0.000      0.000
REMARK  Name = 
REMARK  8 active torsions:
REMARK  status: ('A' for Active; 'I' for Inactive)
REMARK    1  A    between atoms: C_2  and  C_27
REMARK    2  A    between atoms: N_6  and  C_7
REMARK    3  A    between atoms: C_7  and  C_8
REMARK    4  A    between atoms: N_15  and  S_16
REMARK    5  A    between atoms: S_16  and  C_19
REMARK    6  A    between atoms: C_22  and  O_23
REMARK    7  A    between atoms: O_23  and  C_24
REMARK    8  A    between atoms: N_29  and  O_30
REMARK                            x       y       z     vdW  Elec       q    Type
REMARK                         _______ _______ _______ _____ _____    ______ ____
ROOT
ATOM      1  C   UNL     1       6.100  -3.520  23.830  0.00  0.00    +0.178 C 
ATOM      2  N   UNL     1       6.509  -2.105  23.555  0.00  0.00    -0.147 NA
ATOM      3  C   UNL     1       7.804  -2.094  22.873  0.00  0.00    +0.219 C 
ATOM      4  N   UNL     1       8.810  -2.715  23.671  0.00  0.00    -0.283 N 
ATOM      5  C   UNL     1       8.596  -3.985  24.162  0.00  0.00    +0.219 C 
ATOM      6  O   UNL     1       9.510  -4.760  24.435  0.00  0.00    -0.275 OA
ATOM      7  C   UNL     1       7.173  -4.297  24.579  0.00  0.00    +0.126 C 
ENDROOT
BRANCH   1   8
ATOM      8  C   UNL     1       5.711  -4.257  22.545  0.00  0.00    +0.255 C 
ATOM      9  N   UNL     1       5.876  -5.621  22.582  0.00  0.00    -0.196 N 
ATOM     10  H   UNL     1       6.420  -6.111  23.287  0.00  0.00    +0.182 HD
ATOM     11  O   UNL     1       5.290  -3.704  21.529  0.00  0.00    -0.272 OA
BRANCH   9  12
ATOM     12  O   UNL     1       5.650  -6.293  21.357  0.00  0.00    -0.295 OA
ATOM     13  H   UNL     1       6.355  -6.979  21.354  0.00  0.00    +0.241 HD
ENDBRANCH   9  12
ENDBRANCH   1   8
BRANCH   2  14
ATOM     14  S   UNL     1       6.361  -1.056  24.898  0.00  0.00    +0.063 S 
ATOM     15  O   UNL     1       7.424  -1.351  25.830  0.00  0.00    -0.153 OA
ATOM     16  O   UNL     1       4.975  -1.106  25.313  0.00  0.00    -0.153 OA
BRANCH  14  17
ATOM     17  C   UNL     1       6.671   0.550  24.205  0.00  0.00    +0.106 A 
ATOM     18  C   UNL     1       6.440   0.781  22.843  0.00  0.00    +0.032 A 
ATOM     19  C   UNL     1       6.500   2.086  22.343  0.00  0.00    +0.047 A 
ATOM     20  C   UNL     1       6.816   3.145  23.196  0.00  0.00    +0.120 A 
ATOM     21  C   UNL     1       7.093   2.890  24.544  0.00  0.00    +0.047 A 
ATOM     22  C   UNL     1       7.033   1.594  25.053  0.00  0.00    +0.032 A 
BRANCH  20  23
ATOM     23  O   UNL     1       6.817   4.467  22.851  0.00  0.00    -0.495 OA
ATOM     24  C   UNL     1       7.968   5.217  23.220  0.00  0.00    +0.277 C 
ENDBRANCH  20  23
ENDBRANCH  14  17
ENDBRANCH   2  14
BRANCH   4  25
ATOM     25  C   UNL     1      10.131  -2.113  23.736  0.00  0.00    +0.144 C 
BRANCH  25  26
ATOM     26  C   UNL     1      10.150  -0.642  23.433  0.00  0.00    -0.030 A 
ATOM     27  C   UNL     1      10.441   0.271  24.454  0.00  0.00    +0.005 A 
ATOM     28  C   UNL     1      10.521   1.634  24.178  0.00  0.00    +0.000 A 
ATOM     29  C   UNL     1      10.316   2.094  22.880  0.00  0.00    +0.000 A 
ATOM     30  C   UNL     1       9.996   1.198  21.862  0.00  0.00    +0.000 A 
ATOM     31  C   UNL     1       9.903  -0.166  22.137  0.00  0.00    +0.005 A 
ENDBRANCH  25  26
ENDBRANCH   4  25
TORSDOF 7
ENDMDL
MODEL 2
REMARK VINA RESULT:      -6.9      2.611      5.492
REMARK  Name = 
REMARK  8 active torsions:
REMARK  status: ('A' for Active; 'I' for Inactive)
REMARK    1  A    between atoms: C_2  and  C_27
REMARK    2  A    between atoms: N_6  and  C_7
REMARK    3  A    between atoms: C_7  and  C_8
REMARK    4  A    between atoms: N_15  and  S_16
REMARK    5  A    between atoms: S_16  and  C_19
REMARK    6  A    between atoms: C_22  and  O_23
REMARK    7  A    between atoms: O_23  and  C_24
REMARK    8  A    between atoms: N_29  and  O_30
REMARK                            x       y       z     vdW  Elec       q    Type
REMARK                         _______ _______ _______ _____ _____    ______ ____
ROOT
ATOM      1  C   UNL     1       9.140   0.273  24.830  0.00  0.00    +0.178 C 
ATOM      2  N   UNL     1       8.068   0.486  23.805  0.00  0.00    -0.147 NA
ATOM      3  C   UNL     1       7.384  -0.781  23.543  0.00  0.00    +0.219 C 
ATOM      4  N   UNL     1       8.294  -1.766  23.058  0.00  0.00    -0.283 N 
ATOM      5  C   UNL     1       9.440  -2.039  23.773  0.00  0.00    +0.219 C 
ATOM      6  O   UNL     1      10.019  -3.123  23.722  0.00  0.00    -0.275 OA
ATOM      7  C   UNL     1      10.094  -0.850  24.447  0.00  0.00    +0.126 C 
ENDROOT
BRANCH   1   8
ATOM      8  C   UNL     1       8.551   0.017  26.221  0.00  0.00    +0.255 C 
ATOM      9  N   UNL     1       7.899   1.088  26.785  0.00  0.00    -0.196 N 
ATOM     10  H   UNL     1       7.979   2.044  26.451  0.00  0.00    +0.182 HD
ATOM     11  O   UNL     1       8.642  -1.051  26.827  0.00  0.00    -0.272 OA
BRANCH   9  12
ATOM     12  O   UNL     1       7.471   0.903  28.121  0.00  0.00    -0.295 OA
ATOM     13  H   UNL     1       7.712   1.757  28.545  0.00  0.00    +0.241 HD
ENDBRANCH   9  12
ENDBRANCH   1   8
BRANCH   2  14
ATOM     14  S   UNL     1       8.577   1.360  22.426  0.00  0.00    +0.063 S 
ATOM     15  O   UNL     1       7.408   1.788  21.695  0.00  0.00    -0.153 OA
ATOM     16  O   UNL     1       9.602   0.563  21.784  0.00  0.00    -0.153 OA
BRANCH  14  17
ATOM     17  C   UNL     1       9.352   2.803  23.114  0.00  0.00    +0.106 A 
ATOM     18  C   UNL     1      10.745   2.930  23.087  0.00  0.00    +0.032 A 
ATOM     19  C   UNL     1      11.337   4.144  23.451  0.00  0.00    +0.047 A 
ATOM     20  C   UNL     1      10.538   5.211  23.865  0.00  0.00    +0.120 A 
ATOM     21  C   UNL     1       9.150   5.052  23.935  0.00  0.00    +0.047 A 
ATOM     22  C   UNL     1       8.550   3.847  23.570  0.00  0.00    +0.032 A 
BRANCH  20  23
ATOM     23  O   UNL     1      10.986   6.469  24.158  0.00  0.00    -0.495 OA
ATOM     24  C   UNL     1      12.234   6.555  24.836  0.00  0.00    +0.277 C 
ENDBRANCH  20  23
ENDBRANCH  14  17
ENDBRANCH   2  14
BRANCH   4  25
ATOM     25  C   UNL     1       7.878  -2.638  21.972  0.00  0.00    +0.144 C 
BRANCH  25  26
ATOM     26  C   UNL     1       6.865  -3.674  22.371  0.00  0.00    -0.030 A 
ATOM     27  C   UNL     1       5.567  -3.276  22.714  0.00  0.00    +0.005 A 
ATOM     28  C   UNL     1       4.599  -4.226  23.029  0.00  0.00    +0.000 A 
ATOM     29  C   UNL     1       4.919  -5.582  22.998  0.00  0.00    +0.000 A 
ATOM     30  C   UNL     1       6.215  -5.988  22.687  0.00  0.00    +0.000 A 
ATOM     31  C   UNL     1       7.190  -5.038  22.384  0.00  0.00    +0.005 A 
ENDBRANCH  25  26
ENDBRANCH   4  25
TORSDOF 7
ENDMDL
MODEL 3
REMARK VINA RESULT:      -6.8      2.554      5.866
REMARK  Name = 
REMARK  8 active torsions:
REMARK  status: ('A' for Active; 'I' for Inactive)
REMARK    1  A    between atoms: C_2  and  C_27
REMARK    2  A    between atoms: N_6  and  C_7
REMARK    3  A    between atoms: C_7  and  C_8
REMARK    4  A    between atoms: N_15  and  S_16
REMARK    5  A    between atoms: S_16  and  C_19
REMARK    6  A    between atoms: C_22  and  O_23
REMARK    7  A    between atoms: O_23  and  C_24
REMARK    8  A    between atoms: N_29  and  O_30
REMARK                            x       y       z     vdW  Elec       q    Type
REMARK                         _______ _______ _______ _____ _____    ______ ____
ROOT
ATOM      1  C   UNL     1       8.247  -2.106  25.863  0.00  0.00    +0.178 C 
ATOM      2  N   UNL     1       7.830  -2.033  24.425  0.00  0.00    -0.147 NA
ATOM      3  C   UNL     1       6.688  -2.920  24.202  0.00  0.00    +0.219 C 
ATOM      4  N   UNL     1       7.016  -4.272  24.516  0.00  0.00    -0.283 N 
ATOM      5  C   UNL     1       7.553  -4.569  25.750  0.00  0.00    +0.219 C 
ATOM      6  O   UNL     1       7.437  -5.671  26.283  0.00  0.00    -0.275 OA
ATOM      7  C   UNL     1       8.505  -3.535  26.319  0.00  0.00    +0.126 C 
ENDROOT
BRANCH   1   8
ATOM      8  C   UNL     1       7.225  -1.432  26.784  0.00  0.00    +0.255 C 
ATOM      9  N   UNL     1       7.540  -0.150  27.165  0.00  0.00    -0.196 N 
ATOM     10  H   UNL     1       8.461   0.266  27.062  0.00  0.00    +0.182 HD
ATOM     11  O   UNL     1       6.192  -1.969  27.184  0.00  0.00    -0.272 OA
BRANCH   9  12
ATOM     12  O   UNL     1       6.672   0.430  28.122  0.00  0.00    -0.295 OA
ATOM     13  H   UNL     1       6.840   1.392  28.010  0.00  0.00    +0.241 HD
ENDBRANCH   9  12
ENDBRANCH   1   8
BRANCH   2  14
ATOM     14  S   UNL     1       9.120  -2.179  23.311  0.00  0.00    +0.063 S 
ATOM     15  O   UNL     1       8.573  -2.515  22.018  0.00  0.00    -0.153 OA
ATOM     16  O   UNL     1      10.116  -3.023  23.937  0.00  0.00    -0.153 OA
BRANCH  14  17
ATOM     17  C   UNL     1       9.773  -0.530  23.217  0.00  0.00    +0.106 A 
ATOM     18  C   UNL     1       9.537   0.253  22.081  0.00  0.00    +0.032 A 
ATOM     19  C   UNL     1       9.885   1.608  22.089  0.00  0.00    +0.047 A 
ATOM     20  C   UNL     1      10.490   2.164  23.218  0.00  0.00    +0.120 A 
ATOM     21  C   UNL     1      10.765   1.356  24.327  0.00  0.00    +0.047 A 
ATOM     22  C   UNL     1      10.419   0.006  24.330  0.00  0.00    +0.032 A 
BRANCH  20  23
ATOM     23  O   UNL     1      10.793   3.487  23.384  0.00  0.00    -0.495 OA
ATOM     24  C   UNL     1       9.711   4.347  23.722  0.00  0.00    +0.277 C 
ENDBRANCH  20  23
ENDBRANCH  14  17
ENDBRANCH   2  14
BRANCH   4  25
ATOM     25  C   UNL     1       6.547  -5.334  23.642  0.00  0.00    +0.144 C 
BRANCH  25  26
ATOM     26  C   UNL     1       5.101  -5.693  23.835  0.00  0.00    -0.030 A 
ATOM     27  C   UNL     1       4.109  -4.917  23.223  0.00  0.00    +0.005 A 
ATOM     28  C   UNL     1       2.767  -5.269  23.343  0.00  0.00    +0.000 A 
ATOM     29  C   UNL     1       2.406  -6.402  24.068  0.00  0.00    +0.000 A 
ATOM     30  C   UNL     1       3.383  -7.165  24.706  0.00  0.00    +0.000 A 
ATOM     31  C   UNL     1       4.727  -6.807  24.599  0.00  0.00    +0.005 A 
ENDBRANCH  25  26
ENDBRANCH   4  25
TORSDOF 7
ENDMDL
MODEL 4
REMARK VINA RESULT:      -6.7      2.162      5.381
REMARK  Name = 
REMARK  8 active torsions:
REMARK  status: ('A' for Active; 'I' for Inactive)
REMARK    1  A    between atoms: C_2  and  C_27
REMARK    2  A    between atoms: N_6  and  C_7
REMARK    3  A    between atoms: C_7  and  C_8
REMARK    4  A    between atoms: N_15  and  S_16
REMARK    5  A    between atoms: S_16  and  C_19
REMARK    6  A    between atoms: C_22  and  O_23
REMARK    7  A    between atoms: O_23  and  C_24
REMARK    8  A    between atoms: N_29  and  O_30
REMARK                            x       y       z     vdW  Elec       q    Type
REMARK                         _______ _______ _______ _____ _____    ______ ____
ROOT
ATOM      1  C   UNL     1       7.938  -3.450  25.300  0.00  0.00    +0.178 C 
ATOM      2  N   UNL     1       8.492  -2.916  24.014  0.00  0.00    -0.147 NA
ATOM      3  C   UNL     1       9.697  -2.131  24.289  0.00  0.00    +0.219 C 
ATOM      4  N   UNL     1       9.409  -1.035  25.155  0.00  0.00    -0.283 N 
ATOM      5  C   UNL     1       8.768  -1.267  26.352  0.00  0.00    +0.219 C 
ATOM      6  O   UNL     1       8.888  -0.532  27.330  0.00  0.00    -0.275 OA
ATOM      7  C   UNL     1       7.712  -2.354  26.332  0.00  0.00    +0.126 C 
ENDROOT
BRANCH   1   8
ATOM      8  C   UNL     1       8.827  -4.552  25.885  0.00  0.00    +0.255 C 
ATOM      9  N   UNL     1       9.303  -5.463  24.972  0.00  0.00    -0.196 N 
ATOM     10  H   UNL     1       8.939  -5.570  24.030  0.00  0.00    +0.182 HD
ATOM     11  O   UNL     1       9.106  -4.658  27.079  0.00  0.00    -0.272 OA
BRANCH   9  12
ATOM     12  O   UNL     1      10.010  -6.560  25.521  0.00  0.00    -0.295 OA
ATOM     13  H   UNL     1      10.934  -6.389  25.229  0.00  0.00    +0.241 HD
ENDBRANCH   9  12
ENDBRANCH   1   8
BRANCH   2  14
ATOM     14  S   UNL     1       7.331  -2.174  23.002  0.00  0.00    +0.063 S 
ATOM     15  O   UNL     1       7.931  -1.936  21.711  0.00  0.00    -0.153 OA
ATOM     16  O   UNL     1       6.751  -1.087  23.763  0.00  0.00    -0.153 OA
BRANCH  14  17
ATOM     17  C   UNL     1       6.091  -3.431  22.805  0.00  0.00    +0.106 A 
ATOM     18  C   UNL     1       6.386  -4.600  22.094  0.00  0.00    +0.032 A 
ATOM     19  C   UNL     1       5.478  -5.665  22.104  0.00  0.00    +0.047 A 
ATOM     20  C   UNL     1       4.274  -5.546  22.800  0.00  0.00    +0.120 A 
ATOM     21  C   UNL     1       3.972  -4.352  23.463  0.00  0.00    +0.047 A 
ATOM     22  C   UNL     1       4.871  -3.286  23.462  0.00  0.00    +0.032 A 
BRANCH  20  23
ATOM     23  O   UNL     1       3.351  -6.540  22.961  0.00  0.00    -0.495 OA
ATOM     24  C   UNL     1       2.022  -6.129  23.260  0.00  0.00    +0.277 C 
ENDBRANCH  20  23
ENDBRANCH  14  17
ENDBRANCH   2  14
BRANCH   4  25
ATOM     25  C   UNL     1      10.019   0.257  24.884  0.00  0.00    +0.144 C 
BRANCH  25  26
ATOM     26  C   UNL     1       9.253   1.103  23.907  0.00  0.00    -0.030 A 
ATOM     27  C   UNL     1       8.271   1.984  24.377  0.00  0.00    +0.005 A 
ATOM     28  C   UNL     1       7.593   2.819  23.492  0.00  0.00    +0.000 A 
ATOM     29  C   UNL     1       7.894   2.784  22.132  0.00  0.00    +0.000 A 
ATOM     30  C   UNL     1       8.848   1.890  21.650  0.00  0.00    +0.000 A 
ATOM     31  C   UNL     1       9.520   1.044  22.532  0.00  0.00    +0.005 A 
ENDBRANCH  25  26
ENDBRANCH   4  25
TORSDOF 7
ENDMDL
MODEL 5
REMARK VINA RESULT:      -6.7      2.267      4.333
REMARK  Name = 
REMARK  8 active torsions:
REMARK  status: ('A' for Active; 'I' for Inactive)
REMARK    1  A    between atoms: C_2  and  C_27
REMARK    2  A    between atoms: N_6  and  C_7
REMARK    3  A    between atoms: C_7  and  C_8
REMARK    4  A    between atoms: N_15  and  S_16
REMARK    5  A    between atoms: S_16  and  C_19
REMARK    6  A    between atoms: C_22  and  O_23
REMARK    7  A    between atoms: O_23  and  C_24
REMARK    8  A    between atoms: N_29  and  O_30
REMARK                            x       y       z     vdW  Elec       q    Type
REMARK                         _______ _______ _______ _____ _____    ______ ____
ROOT
ATOM      1  C   UNL     1       8.534  -4.102  24.359  0.00  0.00    +0.178 C 
ATOM      2  N   UNL     1       8.949  -2.664  24.443  0.00  0.00    -0.147 NA
ATOM      3  C   UNL     1       7.992  -1.927  25.269  0.00  0.00    +0.219 C 
ATOM      4  N   UNL     1       6.679  -1.993  24.718  0.00  0.00    -0.283 N 
ATOM      5  C   UNL     1       6.130  -3.222  24.422  0.00  0.00    +0.219 C 
ATOM      6  O   UNL     1       4.918  -3.427  24.398  0.00  0.00    -0.275 OA
ATOM      7  C   UNL     1       7.095  -4.263  23.889  0.00  0.00    +0.126 C 
ENDROOT
BRANCH   1   8
ATOM      8  C   UNL     1       8.741  -4.830  25.691  0.00  0.00    +0.255 C 
ATOM      9  N   UNL     1       7.665  -5.564  26.128  0.00  0.00    -0.196 N 
ATOM     10  H   UNL     1       6.723  -5.473  25.756  0.00  0.00    +0.182 HD
ATOM     11  O   UNL     1       9.775  -4.777  26.357  0.00  0.00    -0.272 OA
BRANCH   9  12
ATOM     12  O   UNL     1       7.798  -6.128  27.420  0.00  0.00    -0.295 OA
ATOM     13  H   UNL     1       8.441  -5.523  27.853  0.00  0.00    +0.241 HD
ENDBRANCH   9  12
ENDBRANCH   1   8
BRANCH   2  14
ATOM     14  S   UNL     1       9.340  -1.956  22.936  0.00  0.00    +0.063 S 
ATOM     15  O   UNL     1       8.264  -2.223  22.010  0.00  0.00    -0.153 OA
ATOM     16  O   UNL     1      10.698  -2.353  22.630  0.00  0.00    -0.153 OA
BRANCH  14  17
ATOM     17  C   UNL     1       9.340  -0.214  23.286  0.00  0.00    +0.106 A 
ATOM     18  C   UNL     1      10.247   0.313  24.214  0.00  0.00    +0.032 A 
ATOM     19  C   UNL     1      10.376   1.700  24.344  0.00  0.00    +0.047 A 
ATOM     20  C   UNL     1       9.582   2.549  23.571  0.00  0.00    +0.120 A 
ATOM     21  C   UNL     1       8.645   2.005  22.685  0.00  0.00    +0.047 A 
ATOM     22  C   UNL     1       8.511   0.625  22.545  0.00  0.00    +0.032 A 
BRANCH  20  23
ATOM     23  O   UNL     1       9.676   3.912  23.540  0.00  0.00    -0.495 OA
ATOM     24  C   UNL     1       8.971   4.618  24.553  0.00  0.00    +0.277 C 
ENDBRANCH  20  23
ENDBRANCH  14  17
ENDBRANCH   2  14
BRANCH   4  25
ATOM     25  C   UNL     1       5.851  -0.798  24.718  0.00  0.00    +0.144 C 
BRANCH  25  26
ATOM     26  C   UNL     1       6.081   0.106  25.895  0.00  0.00    -0.030 A 
ATOM     27  C   UNL     1       5.625  -0.280  27.162  0.00  0.00    +0.005 A 
ATOM     28  C   UNL     1       5.881   0.518  28.275  0.00  0.00    +0.000 A 
ATOM     29  C   UNL     1       6.600   1.702  28.132  0.00  0.00    +0.000 A 
ATOM     30  C   UNL     1       7.032   2.111  26.872  0.00  0.00    +0.000 A 
ATOM     31  C   UNL     1       6.766   1.321  25.753  0.00  0.00    +0.005 A 
ENDBRANCH  25  26
ENDBRANCH   4  25
TORSDOF 7
ENDMDL
MODEL 6
REMARK VINA RESULT:      -6.6      2.858      5.855
REMARK  Name = 
REMARK  8 active torsions:
REMARK  status: ('A' for Active; 'I' for Inactive)
REMARK    1  A    between atoms: C_2  and  C_27
REMARK    2  A    between atoms: N_6  and  C_7
REMARK    3  A    between atoms: C_7  and  C_8
REMARK    4  A    between atoms: N_15  and  S_16
REMARK    5  A    between atoms: S_16  and  C_19
REMARK    6  A    between atoms: C_22  and  O_23
REMARK    7  A    between atoms: O_23  and  C_24
REMARK    8  A    between atoms: N_29  and  O_30
REMARK                            x       y       z     vdW  Elec       q    Type
REMARK                         _______ _______ _______ _____ _____    ______ ____
ROOT
ATOM      1  C   UNL     1       6.954  -3.350  25.924  0.00  0.00    +0.178 C 
ATOM      2  N   UNL     1       6.798  -3.732  24.483  0.00  0.00    -0.147 NA
ATOM      3  C   UNL     1       8.100  -3.673  23.818  0.00  0.00    +0.219 C 
ATOM      4  N   UNL     1       8.654  -2.361  23.888  0.00  0.00    -0.283 N 
ATOM      5  C   UNL     1       8.771  -1.739  25.112  0.00  0.00    +0.219 C 
ATOM      6  O   UNL     1       9.611  -0.872  25.345  0.00  0.00    -0.275 OA
ATOM      7  C   UNL     1       7.649  -2.007  26.095  0.00  0.00    +0.126 C 
ENDROOT
BRANCH   1   8
ATOM      8  C   UNL     1       7.689  -4.433  26.720  0.00  0.00    +0.255 C 
ATOM      9  N   UNL     1       6.887  -5.418  27.243  0.00  0.00    -0.196 N 
ATOM     10  H   UNL     1       5.875  -5.351  27.319  0.00  0.00    +0.182 HD
ATOM     11  O   UNL     1       8.905  -4.448  26.911  0.00  0.00    -0.272 OA
BRANCH   9  12
ATOM     12  O   UNL     1       7.538  -6.345  28.092  0.00  0.00    -0.295 OA
ATOM     13  H   UNL     1       6.887  -6.467  28.819  0.00  0.00    +0.241 HD
ENDBRANCH   9  12
ENDBRANCH   1   8
BRANCH   2  14
ATOM     14  S   UNL     1       5.512  -2.940  23.681  0.00  0.00    +0.063 S 
ATOM     15  O   UNL     1       5.815  -2.884  22.270  0.00  0.00    -0.153 OA
ATOM     16  O   UNL     1       5.237  -1.731  24.429  0.00  0.00    -0.153 OA
BRANCH  14  17
ATOM     17  C   UNL     1       4.142  -4.049  23.902  0.00  0.00    +0.106 A 
ATOM     18  C   UNL     1       4.061  -5.222  23.142  0.00  0.00    +0.032 A 
ATOM     19  C   UNL     1       3.091  -6.182  23.451  0.00  0.00    +0.047 A 
ATOM     20  C   UNL     1       2.194  -5.953  24.496  0.00  0.00    +0.120 A 
ATOM     21  C   UNL     1       2.255  -4.753  25.213  0.00  0.00    +0.047 A 
ATOM     22  C   UNL     1       3.220  -3.792  24.915  0.00  0.00    +0.032 A 
BRANCH  20  23
ATOM     23  O   UNL     1       1.265  -6.846  24.952  0.00  0.00    -0.495 OA
ATOM     24  C   UNL     1       1.534  -7.450  26.212  0.00  0.00    +0.277 C 
ENDBRANCH  20  23
ENDBRANCH  14  17
ENDBRANCH   2  14
BRANCH   4  25
ATOM     25  C   UNL     1       9.316  -1.811  22.716  0.00  0.00    +0.144 C 
BRANCH  25  26
ATOM     26  C   UNL     1       8.970  -0.377  22.434  0.00  0.00    -0.030 A 
ATOM     27  C   UNL     1       7.640   0.047  22.539  0.00  0.00    +0.005 A 
ATOM     28  C   UNL     1       7.309   1.386  22.338  0.00  0.00    +0.000 A 
ATOM     29  C   UNL     1       8.306   2.311  22.039  0.00  0.00    +0.000 A 
ATOM     30  C   UNL     1       9.629   1.896  21.902  0.00  0.00    +0.000 A 
ATOM     31  C   UNL     1       9.961   0.554  22.089  0.00  0.00    +0.005 A 
ENDBRANCH  25  26
ENDBRANCH   4  25
TORSDOF 7
ENDMDL
MODEL 7
REMARK VINA RESULT:      -6.6      3.007      6.805
REMARK  Name = 
REMARK  8 active torsions:
REMARK  status: ('A' for Active; 'I' for Inactive)
REMARK    1  A    between atoms: C_2  and  C_27
REMARK    2  A    between atoms: N_6  and  C_7
REMARK    3  A    between atoms: C_7  and  C_8
REMARK    4  A    between atoms: N_15  and  S_16
REMARK    5  A    between atoms: S_16  and  C_19
REMARK    6  A    between atoms: C_22  and  O_23
REMARK    7  A    between atoms: O_23  and  C_24
REMARK    8  A    between atoms: N_29  and  O_30
REMARK                            x       y       z     vdW  Elec       q    Type
REMARK                         _______ _______ _______ _____ _____    ______ ____
ROOT
ATOM      1  C   UNL     1       7.050   1.609  25.072  0.00  0.00    +0.178 C 
ATOM      2  N   UNL     1       8.407   1.663  24.436  0.00  0.00    -0.147 NA
ATOM      3  C   UNL     1       8.992   2.988  24.647  0.00  0.00    +0.219 C 
ATOM      4  N   UNL     1       8.176   4.008  24.074  0.00  0.00    -0.283 N 
ATOM      5  C   UNL     1       6.840   4.073  24.407  0.00  0.00    +0.219 C 
ATOM      6  O   UNL     1       6.189   5.115  24.363  0.00  0.00    -0.275 OA
ATOM      7  C   UNL     1       6.146   2.740  24.603  0.00  0.00    +0.126 C 
ENDROOT
BRANCH   1   8
ATOM      8  C   UNL     1       7.141   1.601  26.601  0.00  0.00    +0.255 C 
ATOM      9  N   UNL     1       7.966   0.638  27.132  0.00  0.00    -0.196 N 
ATOM     10  H   UNL     1       8.318  -0.161  26.612  0.00  0.00    +0.182 HD
ATOM     11  O   UNL     1       6.528   2.375  27.336  0.00  0.00    -0.272 OA
BRANCH   9  12
ATOM     12  O   UNL     1       7.950   0.536  28.543  0.00  0.00    -0.295 OA
ATOM     13  H   UNL     1       8.049   1.473  28.828  0.00  0.00    +0.241 HD
ENDBRANCH   9  12
ENDBRANCH   1   8
BRANCH   2  14
ATOM     14  S   UNL     1       8.457   1.069  22.834  0.00  0.00    +0.063 S 
ATOM     15  O   UNL     1       9.672   1.536  22.208  0.00  0.00    -0.153 OA
ATOM     16  O   UNL     1       7.164   1.350  22.246  0.00  0.00    -0.153 OA
BRANCH  14  17
ATOM     17  C   UNL     1       8.594  -0.689  23.049  0.00  0.00    +0.106 A 
ATOM     18  C   UNL     1       9.778  -1.243  23.551  0.00  0.00    +0.032 A 
ATOM     19  C   UNL     1       9.815  -2.598  23.899  0.00  0.00    +0.047 A 
ATOM     20  C   UNL     1       8.683  -3.394  23.719  0.00  0.00    +0.120 A 
ATOM     21  C   UNL     1       7.524  -2.837  23.170  0.00  0.00    +0.047 A 
ATOM     22  C   UNL     1       7.474  -1.487  22.823  0.00  0.00    +0.032 A 
BRANCH  20  23
ATOM     23  O   UNL     1       8.565  -4.700  24.103  0.00  0.00    -0.495 OA
ATOM     24  C   UNL     1       9.467  -5.150  25.107  0.00  0.00    +0.277 C 
ENDBRANCH  20  23
ENDBRANCH  14  17
ENDBRANCH   2  14
BRANCH   4  25
ATOM     25  C   UNL     1       8.811   5.103  23.360  0.00  0.00    +0.144 C 
BRANCH  25  26
ATOM     26  C   UNL     1       9.990   5.699  24.076  0.00  0.00    -0.030 A 
ATOM     27  C   UNL     1      11.282   5.468  23.591  0.00  0.00    +0.005 A 
ATOM     28  C   UNL     1      12.382   6.060  24.208  0.00  0.00    +0.000 A 
ATOM     29  C   UNL     1      12.198   6.893  25.309  0.00  0.00    +0.000 A 
ATOM     30  C   UNL     1      10.918   7.107  25.818  0.00  0.00    +0.000 A 
ATOM     31  C   UNL     1       9.817   6.504  25.211  0.00  0.00    +0.005 A 
ENDBRANCH  25  26
ENDBRANCH   4  25
TORSDOF 7
ENDMDL
MODEL 8
REMARK VINA RESULT:      -6.5      2.586      4.892
REMARK  Name = 
REMARK  8 active torsions:
REMARK  status: ('A' for Active; 'I' for Inactive)
REMARK    1  A    between atoms: C_2  and  C_27
REMARK    2  A    between atoms: N_6  and  C_7
REMARK    3  A    between atoms: C_7  and  C_8
REMARK    4  A    between atoms: N_15  and  S_16
REMARK    5  A    between atoms: S_16  and  C_19
REMARK    6  A    between atoms: C_22  and  O_23
REMARK    7  A    between atoms: O_23  and  C_24
REMARK    8  A    between atoms: N_29  and  O_30
REMARK                            x       y       z     vdW  Elec       q    Type
REMARK                         _______ _______ _______ _____ _____    ______ ____
ROOT
ATOM      1  C   UNL     1       7.646  -0.294  25.916  0.00  0.00    +0.178 C 
ATOM      2  N   UNL     1       7.717  -0.540  24.439  0.00  0.00    -0.147 NA
ATOM      3  C   UNL     1       7.295  -1.911  24.151  0.00  0.00    +0.219 C 
ATOM      4  N   UNL     1       8.131  -2.857  24.815  0.00  0.00    -0.283 N 
ATOM      5  C   UNL     1       8.330  -2.748  26.173  0.00  0.00    +0.219 C 
ATOM      6  O   UNL     1       8.614  -3.708  26.888  0.00  0.00    -0.275 OA
ATOM      7  C   UNL     1       8.418  -1.335  26.714  0.00  0.00    +0.126 C 
ENDROOT
BRANCH   1   8
ATOM      8  C   UNL     1       6.197  -0.217  26.407  0.00  0.00    +0.255 C 
ATOM      9  N   UNL     1       5.363   0.565  25.644  0.00  0.00    -0.196 N 
ATOM     10  H   UNL     1       5.684   1.232  24.948  0.00  0.00    +0.182 HD
ATOM     11  O   UNL     1       5.775  -0.788  27.413  0.00  0.00    -0.272 OA
BRANCH   9  12
ATOM     12  O   UNL     1       4.060   0.751  26.166  0.00  0.00    -0.295 OA
ATOM     13  H   UNL     1       3.665  -0.146  26.085  0.00  0.00    +0.241 HD
ENDBRANCH   9  12
ENDBRANCH   1   8
BRANCH   2  14
ATOM     14  S   UNL     1       9.183  -0.040  23.713  0.00  0.00    +0.063 S 
ATOM     15  O   UNL     1       9.328  -0.728  22.452  0.00  0.00    -0.153 OA
ATOM     16  O   UNL     1      10.206  -0.138  24.733  0.00  0.00    -0.153 OA
BRANCH  14  17
ATOM     17  C   UNL     1       8.908   1.681  23.369  0.00  0.00    +0.106 A 
ATOM     18  C   UNL     1       7.942   2.062  22.431  0.00  0.00    +0.032 A 
ATOM     19  C   UNL     1       7.595   3.411  22.303  0.00  0.00    +0.047 A 
ATOM     20  C   UNL     1       8.232   4.371  23.092  0.00  0.00    +0.120 A 
ATOM     21  C   UNL     1       9.231   3.979  23.989  0.00  0.00    +0.047 A 
ATOM     22  C   UNL     1       9.582   2.637  24.127  0.00  0.00    +0.032 A 
BRANCH  20  23
ATOM     23  O   UNL     1       7.920   5.701  23.127  0.00  0.00    -0.495 OA
ATOM     24  C   UNL     1       7.345   6.248  21.946  0.00  0.00    +0.277 C 
ENDBRANCH  20  23
ENDBRANCH  14  17
ENDBRANCH   2  14
BRANCH   4  25
ATOM     25  C   UNL     1       8.544  -4.056  24.103  0.00  0.00    +0.144 C 
BRANCH  25  26
ATOM     26  C   UNL     1       7.411  -4.818  23.477  0.00  0.00    -0.030 A 
ATOM     27  C   UNL     1       6.381  -5.313  24.286  0.00  0.00    +0.005 A 
ATOM     28  C   UNL     1       5.293  -5.971  23.716  0.00  0.00    +0.000 A 
ATOM     29  C   UNL     1       5.223  -6.133  22.335  0.00  0.00    +0.000 A 
ATOM     30  C   UNL     1       6.257  -5.670  21.523  0.00  0.00    +0.000 A 
ATOM     31  C   UNL     1       7.354  -5.023  22.091  0.00  0.00    +0.005 A 
ENDBRANCH  25  26
ENDBRANCH   4  25
TORSDOF 7
ENDMDL
MODEL 9
REMARK VINA RESULT:      -6.4      2.655      5.872
REMARK  Name = 
REMARK  8 active torsions:
REMARK  status: ('A' for Active; 'I' for Inactive)
REMARK    1  A    between atoms: C_2  and  C_27
REMARK    2  A    between atoms: N_6  and  C_7
REMARK    3  A    between atoms: C_7  and  C_8
REMARK    4  A    between atoms: N_15  and  S_16
REMARK    5  A    between atoms: S_16  and  C_19
REMARK    6  A    between atoms: C_22  and  O_23
REMARK    7  A    between atoms: O_23  and  C_24
REMARK    8  A    between atoms: N_29  and  O_30
REMARK                            x       y       z     vdW  Elec       q    Type
REMARK                         _______ _______ _______ _____ _____    ______ ____
ROOT
ATOM      1  C   UNL     1       7.216  -4.028  25.961  0.00  0.00    +0.178 C 
ATOM      2  N   UNL     1       6.275  -3.388  24.986  0.00  0.00    -0.147 NA
ATOM      3  C   UNL     1       6.952  -2.283  24.306  0.00  0.00    +0.219 C 
ATOM      4  N   UNL     1       7.389  -1.296  25.238  0.00  0.00    -0.283 N 
ATOM      5  C   UNL     1       8.162  -1.675  26.314  0.00  0.00    +0.219 C 
ATOM      6  O   UNL     1       8.946  -0.913  26.877  0.00  0.00    -0.275 OA
ATOM      7  C   UNL     1       7.824  -3.020  26.926  0.00  0.00    +0.126 C 
ENDROOT
BRANCH   1   8
ATOM      8  C   UNL     1       8.321  -4.814  25.249  0.00  0.00    +0.255 C 
ATOM      9  N   UNL     1       9.455  -5.032  25.994  0.00  0.00    -0.196 N 
ATOM     10  H   UNL     1       9.676  -4.537  26.854  0.00  0.00    +0.182 HD
ATOM     11  O   UNL     1       8.243  -5.227  24.092  0.00  0.00    -0.272 OA
BRANCH   9  12
ATOM     12  O   UNL     1      10.530  -5.637  25.301  0.00  0.00    -0.295 OA
ATOM     13  H   UNL     1      10.071  -6.162  24.607  0.00  0.00    +0.241 HD
ENDBRANCH   9  12
ENDBRANCH   1   8
BRANCH   2  14
ATOM     14  S   UNL     1       4.729  -3.036  25.627  0.00  0.00    +0.063 S 
ATOM     15  O   UNL     1       4.360  -1.698  25.230  0.00  0.00    -0.153 OA
ATOM     16  O   UNL     1       4.764  -3.411  27.026  0.00  0.00    -0.153 OA
BRANCH  14  17
ATOM     17  C   UNL     1       3.661  -4.173  24.778  0.00  0.00    +0.106 A 
ATOM     18  C   UNL     1       2.272  -4.066  24.918  0.00  0.00    +0.032 A 
ATOM     19  C   UNL     1       1.433  -4.834  24.103  0.00  0.00    +0.047 A 
ATOM     20  C   UNL     1       1.984  -5.720  23.176  0.00  0.00    +0.120 A 
ATOM     21  C   UNL     1       3.374  -5.852  23.084  0.00  0.00    +0.047 A 
ATOM     22  C   UNL     1       4.219  -5.089  23.888  0.00  0.00    +0.032 A 
BRANCH  20  23
ATOM     23  O   UNL     1       1.277  -6.454  22.265  0.00  0.00    -0.495 OA
ATOM     24  C   UNL     1       1.174  -7.850  22.519  0.00  0.00    +0.277 C 
ENDBRANCH  20  23
ENDBRANCH  14  17
ENDBRANCH   2  14
BRANCH   4  25
ATOM     25  C   UNL     1       7.231   0.110  24.904  0.00  0.00    +0.144 C 
BRANCH  25  26
ATOM     26  C   UNL     1       8.236   0.620  23.911  0.00  0.00    -0.030 A 
ATOM     27  C   UNL     1       7.983   0.487  22.540  0.00  0.00    +0.005 A 
ATOM     28  C   UNL     1       8.875   1.007  21.605  0.00  0.00    +0.000 A 
ATOM     29  C   UNL     1      10.024   1.669  22.033  0.00  0.00    +0.000 A 
ATOM     30  C   UNL     1      10.301   1.781  23.394  0.00  0.00    +0.000 A 
ATOM     31  C   UNL     1       9.416   1.250  24.332  0.00  0.00    +0.005 A 
ENDBRANCH  25  26
ENDBRANCH   4  25
TORSDOF 7
ENDMDL
