MODEL 1
REMARK VINA RESULT:      -8.2      0.000      0.000
REMARK  Name = 
REMARK  4 active torsions:
REMARK  status: ('A' for Active; 'I' for Inactive)
REMARK    1  A    between atoms: C_1  and  C_2
REMARK    2  A    between atoms: C_2  and  N_3
REMARK    3  A    between atoms: C_9  and  N_12
REMARK    4  A    between atoms: C_15  and  C_16
REMARK                            x       y       z     vdW  Elec       q    Type
REMARK                         _______ _______ _______ _____ _____    ______ ____
ROOT
ATOM      1  N   UNL     1       8.050  -0.954  23.138  0.00  0.00    -0.311 N 
ATOM      2  H   UNL     1       8.390  -0.728  22.211  0.00  0.00    +0.149 HD
ATOM      3  C   UNL     1       7.678  -2.284  23.108  0.00  0.00    +0.216 A 
ATOM      4  N   UNL     1       7.335  -2.762  21.913  0.00  0.00    -0.221 NA
ATOM      5  C   UNL     1       6.808  -4.003  21.888  0.00  0.00    +0.136 A 
ATOM      6  C   UNL     1       6.629  -4.799  23.000  0.00  0.00    +0.085 A 
ATOM      7 CL   UNL     1       5.754  -6.263  22.816  0.00  0.00    -0.080 Cl
ATOM      8  C   UNL     1       7.104  -4.261  24.180  0.00  0.00    +0.096 A 
ATOM      9  N   UNL     1       7.624  -3.004  24.229  0.00  0.00    -0.213 NA
ENDROOT
BRANCH   1  16
ATOM     10  N   UNL     1      11.158   3.869  23.222  0.00  0.00    -0.300 N 
ATOM     11  H   UNL     1      11.260   3.444  22.315  0.00  0.00    +0.150 HD
ATOM     12  C   UNL     1       9.956   3.587  23.824  0.00  0.00    +0.302 C 
ATOM     13  N   UNL     1       9.494   2.297  23.633  0.00  0.00    -0.286 N 
ATOM     14  C   UNL     1       8.142   1.968  24.077  0.00  0.00    +0.111 C 
ATOM     15  C   UNL     1       8.138   0.729  24.962  0.00  0.00    +0.041 C 
ATOM     16  C   UNL     1       8.816  -0.471  24.282  0.00  0.00    +0.076 C 
ATOM     17  C   UNL     1      10.222  -0.060  23.818  0.00  0.00    +0.041 C 
ATOM     18  C   UNL     1      10.209   1.209  22.967  0.00  0.00    +0.111 C 
ATOM     19  O   UNL     1       9.352   4.427  24.486  0.00  0.00    -0.253 OA
BRANCH  10  21
ATOM     20  C   UNL     1      13.182   5.229  22.978  0.00  0.00    +0.024 C 
ATOM     21  C   UNL     1      11.714   5.201  23.353  0.00  0.00    +0.102 C 
ENDBRANCH  10  21
ENDBRANCH   1  16
BRANCH   8  22
ATOM     22  C   UNL     1       7.034  -4.901  25.498  0.00  0.00    +0.027 A 
ATOM     23  C   UNL     1       5.944  -5.342  26.329  0.00  0.00    +0.009 A 
ATOM     24  C   UNL     1       6.499  -5.845  27.511  0.00  0.00    +0.047 A 
ATOM     25  C   UNL     1       5.731  -6.297  28.591  0.00  0.00    +0.026 A 
ATOM     26  C   UNL     1       4.344  -6.247  28.468  0.00  0.00    +0.002 A 
ATOM     27  C   UNL     1       3.750  -5.806  27.292  0.00  0.00    +0.001 A 
ATOM     28  N   UNL     1       7.864  -5.810  27.371  0.00  0.00    -0.360 N 
ATOM     29  H   UNL     1       8.522  -6.156  28.055  0.00  0.00    +0.165 HD
ATOM     30  C   UNL     1       4.534  -5.376  26.213  0.00  0.00    +0.010 A 
ATOM     31  C   UNL     1       8.195  -5.249  26.173  0.00  0.00    +0.093 A 
ENDBRANCH   8  22
TORSDOF 3
ENDMDL
MODEL 2
REMARK VINA RESULT:      -8.0      4.279      9.071
REMARK  Name = 
REMARK  4 active torsions:
REMARK  status: ('A' for Active; 'I' for Inactive)
REMARK    1  A    between atoms: C_1  and  C_2
REMARK    2  A    between atoms: C_2  and  N_3
REMARK    3  A    between atoms: C_9  and  N_12
REMARK    4  A    between atoms: C_15  and  C_16
REMARK                            x       y       z     vdW  Elec       q    Type
REMARK                         _______ _______ _______ _____ _____    ______ ____
ROOT
ATOM      1  N   UNL     1       7.599  -4.091  23.002  0.00  0.00    -0.311 N 
ATOM      2  H   UNL     1       8.196  -4.910  23.040  0.00  0.00    +0.149 HD
ATOM      3  C   UNL     1       8.419  -2.997  23.200  0.00  0.00    +0.216 A 
ATOM      4  N   UNL     1       9.539  -3.229  23.882  0.00  0.00    -0.221 NA
ATOM      5  C   UNL     1      10.267  -2.148  24.233  0.00  0.00    +0.136 A 
ATOM      6  C   UNL     1       9.939  -0.848  23.913  0.00  0.00    +0.085 A 
ATOM      7 CL   UNL     1      10.862   0.416  24.616  0.00  0.00    -0.080 Cl
ATOM      8  C   UNL     1       8.816  -0.711  23.121  0.00  0.00    +0.096 A 
ATOM      9  N   UNL     1       8.059  -1.786  22.770  0.00  0.00    -0.213 NA
ENDROOT
BRANCH   1  16
ATOM     10  N   UNL     1       2.746  -7.149  22.881  0.00  0.00    -0.300 N 
ATOM     11  H   UNL     1       3.477  -7.734  23.252  0.00  0.00    +0.150 HD
ATOM     12  C   UNL     1       2.936  -5.813  23.130  0.00  0.00    +0.302 C 
ATOM     13  N   UNL     1       4.248  -5.381  23.041  0.00  0.00    -0.286 N 
ATOM     14  C   UNL     1       4.566  -4.023  23.472  0.00  0.00    +0.111 C 
ATOM     15  C   UNL     1       5.336  -3.269  22.396  0.00  0.00    +0.041 C 
ATOM     16  C   UNL     1       6.595  -4.027  21.946  0.00  0.00    +0.076 C 
ATOM     17  C   UNL     1       6.203  -5.452  21.527  0.00  0.00    +0.041 C 
ATOM     18  C   UNL     1       5.395  -6.176  22.603  0.00  0.00    +0.111 C 
ATOM     19  O   UNL     1       2.000  -5.067  23.403  0.00  0.00    -0.253 OA
BRANCH  10  21
ATOM     20  C   UNL     1       0.930  -8.211  21.624  0.00  0.00    +0.024 C 
ATOM     21  C   UNL     1       1.406  -7.697  22.967  0.00  0.00    +0.102 C 
ENDBRANCH  10  21
ENDBRANCH   1  16
BRANCH   8  22
ATOM     22  C   UNL     1       8.257   0.559  22.646  0.00  0.00    +0.027 A 
ATOM     23  C   UNL     1       7.129   1.358  23.051  0.00  0.00    +0.009 A 
ATOM     24  C   UNL     1       7.068   2.457  22.187  0.00  0.00    +0.047 A 
ATOM     25  C   UNL     1       6.049   3.417  22.233  0.00  0.00    +0.026 A 
ATOM     26  C   UNL     1       5.055   3.264  23.198  0.00  0.00    +0.002 A 
ATOM     27  C   UNL     1       5.107   2.217  24.111  0.00  0.00    +0.001 A 
ATOM     28  N   UNL     1       8.161   2.391  21.360  0.00  0.00    -0.360 N 
ATOM     29  H   UNL     1       8.399   3.083  20.663  0.00  0.00    +0.165 HD
ATOM     30  C   UNL     1       6.145   1.277  24.064  0.00  0.00    +0.010 A 
ATOM     31  C   UNL     1       8.878   1.262  21.625  0.00  0.00    +0.093 A 
ENDBRANCH   8  22
TORSDOF 3
ENDMDL
MODEL 3
REMARK VINA RESULT:      -7.5      3.570      9.589
REMARK  Name = 
REMARK  4 active torsions:
REMARK  status: ('A' for Active; 'I' for Inactive)
REMARK    1  A    between atoms: C_1  and  C_2
REMARK    2  A    between atoms: C_2  and  N_3
REMARK    3  A    between atoms: C_9  and  N_12
REMARK    4  A    between atoms: C_15  and  C_16
REMARK                            x       y       z     vdW  Elec       q    Type
REMARK                         _______ _______ _______ _____ _____    ______ ____
ROOT
ATOM      1  N   UNL     1       8.481   0.683  22.787  0.00  0.00    -0.311 N 
ATOM      2  H   UNL     1       7.770   0.010  22.523  0.00  0.00    +0.149 HD
ATOM      3  C   UNL     1       7.840   1.899  22.924  0.00  0.00    +0.216 A 
ATOM      4  N   UNL     1       6.720   2.046  22.219  0.00  0.00    -0.221 NA
ATOM      5  C   UNL     1       6.172   3.279  22.204  0.00  0.00    +0.136 A 
ATOM      6  C   UNL     1       6.680   4.367  22.881  0.00  0.00    +0.085 A 
ATOM      7 CL   UNL     1       5.979   5.904  22.584  0.00  0.00    -0.080 Cl
ATOM      8  C   UNL     1       7.785   4.099  23.664  0.00  0.00    +0.096 A 
ATOM      9  N   UNL     1       8.362   2.866  23.680  0.00  0.00    -0.213 NA
ENDROOT
BRANCH   1  16
ATOM     10  N   UNL     1       8.054  -3.974  26.111  0.00  0.00    -0.300 N 
ATOM     11  H   UNL     1       7.132  -3.584  25.995  0.00  0.00    +0.150 HD
ATOM     12  C   UNL     1       8.889  -3.726  25.050  0.00  0.00    +0.302 C 
ATOM     13  N   UNL     1       8.760  -2.468  24.486  0.00  0.00    -0.286 N 
ATOM     14  C   UNL     1       9.471  -2.187  23.242  0.00  0.00    +0.111 C 
ATOM     15  C   UNL     1      10.297  -0.912  23.354  0.00  0.00    +0.041 C 
ATOM     16  C   UNL     1       9.450   0.288  23.804  0.00  0.00    +0.076 C 
ATOM     17  C   UNL     1       8.709  -0.074  25.101  0.00  0.00    +0.041 C 
ATOM     18  C   UNL     1       7.921  -1.377  24.980  0.00  0.00    +0.111 C 
ATOM     19  O   UNL     1       9.691  -4.564  24.648  0.00  0.00    -0.253 OA
BRANCH  10  21
ATOM     20  C   UNL     1       6.823  -5.568  27.508  0.00  0.00    +0.024 C 
ATOM     21  C   UNL     1       8.106  -5.271  26.757  0.00  0.00    +0.102 C 
ENDBRANCH  10  21
ENDBRANCH   1  16
BRANCH   8  22
ATOM     22  C   UNL     1       8.513   5.079  24.478  0.00  0.00    +0.027 A 
ATOM     23  C   UNL     1       9.864   5.575  24.458  0.00  0.00    +0.009 A 
ATOM     24  C   UNL     1       9.990   6.479  25.519  0.00  0.00    +0.047 A 
ATOM     25  C   UNL     1      11.196   7.108  25.856  0.00  0.00    +0.026 A 
ATOM     26  C   UNL     1      12.318   6.818  25.083  0.00  0.00    +0.002 A 
ATOM     27  C   UNL     1      12.226   5.967  23.988  0.00  0.00    +0.001 A 
ATOM     28  N   UNL     1       8.752   6.610  26.097  0.00  0.00    -0.360 N 
ATOM     29  H   UNL     1       8.536   7.235  26.860  0.00  0.00    +0.165 HD
ATOM     30  C   UNL     1      11.008   5.362  23.652  0.00  0.00    +0.010 A 
ATOM     31  C   UNL     1       7.862   5.778  25.483  0.00  0.00    +0.093 A 
ENDBRANCH   8  22
TORSDOF 3
ENDMDL
MODEL 4
REMARK VINA RESULT:      -7.3      1.433      1.459
REMARK  Name = 
REMARK  4 active torsions:
REMARK  status: ('A' for Active; 'I' for Inactive)
REMARK    1  A    between atoms: C_1  and  C_2
REMARK    2  A    between atoms: C_2  and  N_3
REMARK    3  A    between atoms: C_9  and  N_12
REMARK    4  A    between atoms: C_15  and  C_16
REMARK                            x       y       z     vdW  Elec       q    Type
REMARK                         _______ _______ _______ _____ _____    ______ ____
ROOT
ATOM      1  N   UNL     1       8.267  -0.895  23.450  0.00  0.00    -0.311 N 
ATOM      2  H   UNL     1       8.733  -0.633  22.589  0.00  0.00    +0.149 HD
ATOM      3  C   UNL     1       7.935  -2.230  23.328  0.00  0.00    +0.216 A 
ATOM      4  N   UNL     1       7.782  -2.677  22.082  0.00  0.00    -0.221 NA
ATOM      5  C   UNL     1       7.294  -3.927  21.945  0.00  0.00    +0.136 A 
ATOM      6  C   UNL     1       6.973  -4.761  22.996  0.00  0.00    +0.085 A 
ATOM      7 CL   UNL     1       6.170  -6.235  22.644  0.00  0.00    -0.080 Cl
ATOM      8  C   UNL     1       7.258  -4.251  24.247  0.00  0.00    +0.096 A 
ATOM      9  N   UNL     1       7.734  -2.987  24.408  0.00  0.00    -0.213 NA
ENDROOT
BRANCH   1  16
ATOM     10  N   UNL     1       9.279   4.591  24.793  0.00  0.00    -0.300 N 
ATOM     11  H   UNL     1       9.491   4.461  23.817  0.00  0.00    +0.150 HD
ATOM     12  C   UNL     1       8.311   3.737  25.260  0.00  0.00    +0.302 C 
ATOM     13  N   UNL     1       8.372   2.450  24.753  0.00  0.00    -0.286 N 
ATOM     14  C   UNL     1       7.276   1.532  25.048  0.00  0.00    +0.111 C 
ATOM     15  C   UNL     1       7.794   0.218  25.618  0.00  0.00    +0.041 C 
ATOM     16  C   UNL     1       8.846  -0.434  24.707  0.00  0.00    +0.076 C 
ATOM     17  C   UNL     1       9.959   0.584  24.413  0.00  0.00    +0.041 C 
ATOM     18  C   UNL     1       9.415   1.909  23.882  0.00  0.00    +0.111 C 
ATOM     19  O   UNL     1       7.466   4.100  26.072  0.00  0.00    -0.253 OA
BRANCH  10  21
ATOM     20  C   UNL     1       9.069   6.936  24.113  0.00  0.00    +0.024 C 
ATOM     21  C   UNL     1       9.286   5.965  25.256  0.00  0.00    +0.102 C 
ENDBRANCH  10  21
ENDBRANCH   1  16
BRANCH   8  22
ATOM     22  C   UNL     1       7.011  -4.934  25.523  0.00  0.00    +0.027 A 
ATOM     23  C   UNL     1       5.823  -5.434  26.165  0.00  0.00    +0.009 A 
ATOM     24  C   UNL     1       6.210  -5.955  27.405  0.00  0.00    +0.047 A 
ATOM     25  C   UNL     1       5.303  -6.464  28.343  0.00  0.00    +0.026 A 
ATOM     26  C   UNL     1       3.949  -6.455  28.010  0.00  0.00    +0.002 A 
ATOM     27  C   UNL     1       3.527  -5.996  26.768  0.00  0.00    +0.001 A 
ATOM     28  N   UNL     1       7.578  -5.873  27.476  0.00  0.00    -0.360 N 
ATOM     29  H   UNL     1       8.136  -6.219  28.244  0.00  0.00    +0.165 HD
ATOM     30  C   UNL     1       4.450  -5.508  25.833  0.00  0.00    +0.010 A 
ATOM     31  C   UNL     1       8.067  -5.265  26.358  0.00  0.00    +0.093 A 
ENDBRANCH   8  22
TORSDOF 3
ENDMDL
MODEL 5
REMARK VINA RESULT:      -7.3      2.397      3.779
REMARK  Name = 
REMARK  4 active torsions:
REMARK  status: ('A' for Active; 'I' for Inactive)
REMARK    1  A    between atoms: C_1  and  C_2
REMARK    2  A    between atoms: C_2  and  N_3
REMARK    3  A    between atoms: C_9  and  N_12
REMARK    4  A    between atoms: C_15  and  C_16
REMARK                            x       y       z     vdW  Elec       q    Type
REMARK                         _______ _______ _______ _____ _____    ______ ____
ROOT
ATOM      1  N   UNL     1       9.114  -2.850  24.737  0.00  0.00    -0.311 N 
ATOM      2  H   UNL     1       9.615  -2.386  25.486  0.00  0.00    +0.149 HD
ATOM      3  C   UNL     1       8.149  -3.636  25.335  0.00  0.00    +0.216 A 
ATOM      4  N   UNL     1       8.412  -4.027  26.581  0.00  0.00    -0.221 NA
ATOM      5  C   UNL     1       7.569  -4.931  27.122  0.00  0.00    +0.136 A 
ATOM      6  C   UNL     1       6.460  -5.445  26.483  0.00  0.00    +0.085 A 
ATOM      7 CL   UNL     1       5.619  -6.737  27.234  0.00  0.00    -0.080 Cl
ATOM      8  C   UNL     1       6.210  -4.908  25.235  0.00  0.00    +0.096 A 
ATOM      9  N   UNL     1       7.057  -4.009  24.665  0.00  0.00    -0.213 NA
ENDROOT
BRANCH   1  16
ATOM     10  N   UNL     1       8.847   2.880  24.607  0.00  0.00    -0.300 N 
ATOM     11  H   UNL     1       8.508   2.569  25.503  0.00  0.00    +0.150 HD
ATOM     12  C   UNL     1       9.769   2.031  24.047  0.00  0.00    +0.302 C 
ATOM     13  N   UNL     1       9.514   0.684  24.236  0.00  0.00    -0.286 N 
ATOM     14  C   UNL     1      10.536  -0.281  23.839  0.00  0.00    +0.111 C 
ATOM     15  C   UNL     1       9.954  -1.361  22.936  0.00  0.00    +0.041 C 
ATOM     16  C   UNL     1       8.740  -2.055  23.572  0.00  0.00    +0.076 C 
ATOM     17  C   UNL     1       7.712  -0.992  23.988  0.00  0.00    +0.041 C 
ATOM     18  C   UNL     1       8.324   0.104  24.858  0.00  0.00    +0.111 C 
ATOM     19  O   UNL     1      10.738   2.451  23.421  0.00  0.00    -0.253 OA
BRANCH  10  21
ATOM     20  C   UNL     1       8.317   4.858  23.259  0.00  0.00    +0.024 C 
ATOM     21  C   UNL     1       9.038   4.311  24.475  0.00  0.00    +0.102 C 
ENDBRANCH  10  21
ENDBRANCH   1  16
BRANCH   8  22
ATOM     22  C   UNL     1       5.100  -5.284  24.352  0.00  0.00    +0.027 A 
ATOM     23  C   UNL     1       3.698  -4.955  24.329  0.00  0.00    +0.009 A 
ATOM     24  C   UNL     1       3.125  -5.655  23.261  0.00  0.00    +0.047 A 
ATOM     25  C   UNL     1       1.754  -5.638  22.976  0.00  0.00    +0.026 A 
ATOM     26  C   UNL     1       0.929  -4.875  23.799  0.00  0.00    +0.002 A 
ATOM     27  C   UNL     1       1.462  -4.121  24.838  0.00  0.00    +0.001 A 
ATOM     28  N   UNL     1       4.141  -6.299  22.600  0.00  0.00    -0.360 N 
ATOM     29  H   UNL     1       4.025  -6.845  21.758  0.00  0.00    +0.165 HD
ATOM     30  C   UNL     1       2.839  -4.134  25.097  0.00  0.00    +0.010 A 
ATOM     31  C   UNL     1       5.324  -6.084  23.242  0.00  0.00    +0.093 A 
ENDBRANCH   8  22
TORSDOF 3
ENDMDL
MODEL 6
REMARK VINA RESULT:      -7.1      1.335      1.603
REMARK  Name = 
REMARK  4 active torsions:
REMARK  status: ('A' for Active; 'I' for Inactive)
REMARK    1  A    between atoms: C_1  and  C_2
REMARK    2  A    between atoms: C_2  and  N_3
REMARK    3  A    between atoms: C_9  and  N_12
REMARK    4  A    between atoms: C_15  and  C_16
REMARK                            x       y       z     vdW  Elec       q    Type
REMARK                         _______ _______ _______ _____ _____    ______ ____
ROOT
ATOM      1  N   UNL     1       8.358  -0.898  23.159  0.00  0.00    -0.311 N 
ATOM      2  H   UNL     1       9.068  -1.061  22.454  0.00  0.00    +0.149 HD
ATOM      3  C   UNL     1       7.641  -2.073  23.275  0.00  0.00    +0.216 A 
ATOM      4  N   UNL     1       7.637  -2.857  22.198  0.00  0.00    -0.221 NA
ATOM      5  C   UNL     1       6.808  -3.921  22.229  0.00  0.00    +0.136 A 
ATOM      6  C   UNL     1       5.999  -4.251  23.296  0.00  0.00    +0.085 A 
ATOM      7 CL   UNL     1       4.856  -5.513  23.087  0.00  0.00    -0.080 Cl
ATOM      8  C   UNL     1       6.143  -3.440  24.405  0.00  0.00    +0.096 A 
ATOM      9  N   UNL     1       6.961  -2.352  24.388  0.00  0.00    -0.213 NA
ENDROOT
BRANCH   1  16
ATOM     10  N   UNL     1      11.416   3.954  23.333  0.00  0.00    -0.300 N 
ATOM     11  H   UNL     1      11.778   3.380  22.588  0.00  0.00    +0.150 HD
ATOM     12  C   UNL     1      10.082   3.747  23.584  0.00  0.00    +0.302 C 
ATOM     13  N   UNL     1       9.667   2.430  23.491  0.00  0.00    -0.286 N 
ATOM     14  C   UNL     1       8.237   2.144  23.556  0.00  0.00    +0.111 C 
ATOM     15  C   UNL     1       7.934   1.078  24.601  0.00  0.00    +0.041 C 
ATOM     16  C   UNL     1       8.755  -0.201  24.378  0.00  0.00    +0.076 C 
ATOM     17  C   UNL     1      10.245   0.163  24.295  0.00  0.00    +0.041 C 
ATOM     18  C   UNL     1      10.522   1.263  23.272  0.00  0.00    +0.111 C 
ATOM     19  O   UNL     1       9.328   4.671  23.875  0.00  0.00    -0.253 OA
BRANCH  10  21
ATOM     20  C   UNL     1      13.146   5.471  22.487  0.00  0.00    +0.024 C 
ATOM     21  C   UNL     1      11.940   5.304  23.391  0.00  0.00    +0.102 C 
ENDBRANCH  10  21
ENDBRANCH   1  16
BRANCH   8  22
ATOM     22  C   UNL     1       5.402  -3.575  25.663  0.00  0.00    +0.027 A 
ATOM     23  C   UNL     1       5.167  -4.677  26.561  0.00  0.00    +0.009 A 
ATOM     24  C   UNL     1       4.339  -4.207  27.586  0.00  0.00    +0.047 A 
ATOM     25  C   UNL     1       3.838  -5.025  28.607  0.00  0.00    +0.026 A 
ATOM     26  C   UNL     1       4.197  -6.372  28.596  0.00  0.00    +0.002 A 
ATOM     27  C   UNL     1       5.061  -6.869  27.628  0.00  0.00    +0.001 A 
ATOM     28  N   UNL     1       4.158  -2.862  27.385  0.00  0.00    -0.360 N 
ATOM     29  H   UNL     1       3.639  -2.252  28.000  0.00  0.00    +0.165 HD
ATOM     30  C   UNL     1       5.569  -6.032  26.625  0.00  0.00    +0.010 A 
ATOM     31  C   UNL     1       4.788  -2.474  26.240  0.00  0.00    +0.093 A 
ENDBRANCH   8  22
TORSDOF 3
ENDMDL
MODEL 7
REMARK VINA RESULT:      -7.0      4.252      9.231
REMARK  Name = 
REMARK  4 active torsions:
REMARK  status: ('A' for Active; 'I' for Inactive)
REMARK    1  A    between atoms: C_1  and  C_2
REMARK    2  A    between atoms: C_2  and  N_3
REMARK    3  A    between atoms: C_9  and  N_12
REMARK    4  A    between atoms: C_15  and  C_16
REMARK                            x       y       z     vdW  Elec       q    Type
REMARK                         _______ _______ _______ _____ _____    ______ ____
ROOT
ATOM      1  N   UNL     1       9.633   0.376  24.549  0.00  0.00    -0.311 N 
ATOM      2  H   UNL     1      10.224  -0.123  23.893  0.00  0.00    +0.149 HD
ATOM      3  C   UNL     1       9.726   1.715  24.224  0.00  0.00    +0.216 A 
ATOM      4  N   UNL     1      10.847   2.084  23.605  0.00  0.00    -0.221 NA
ATOM      5  C   UNL     1      11.033   3.409  23.432  0.00  0.00    +0.136 A 
ATOM      6  C   UNL     1      10.139   4.382  23.828  0.00  0.00    +0.085 A 
ATOM      7 CL   UNL     1      10.628   6.022  23.720  0.00  0.00    -0.080 Cl
ATOM      8  C   UNL     1       8.963   3.902  24.370  0.00  0.00    +0.096 A 
ATOM      9  N   UNL     1       8.763   2.571  24.568  0.00  0.00    -0.213 NA
ENDROOT
BRANCH   1  16
ATOM     10  N   UNL     1       7.566  -4.508  22.359  0.00  0.00    -0.300 N 
ATOM     11  H   UNL     1       8.094  -4.040  21.641  0.00  0.00    +0.150 HD
ATOM     12  C   UNL     1       8.008  -4.233  23.629  0.00  0.00    +0.302 C 
ATOM     13  N   UNL     1       8.409  -2.925  23.839  0.00  0.00    -0.286 N 
ATOM     14  C   UNL     1       9.067  -2.591  25.099  0.00  0.00    +0.111 C 
ATOM     15  C   UNL     1       8.399  -1.399  25.771  0.00  0.00    +0.041 C 
ATOM     16  C   UNL     1       8.316  -0.181  24.838  0.00  0.00    +0.076 C 
ATOM     17  C   UNL     1       7.637  -0.597  23.524  0.00  0.00    +0.041 C 
ATOM     18  C   UNL     1       8.296  -1.820  22.888  0.00  0.00    +0.111 C 
ATOM     19  O   UNL     1       8.033  -5.092  24.506  0.00  0.00    -0.253 OA
BRANCH  10  21
ATOM     20  C   UNL     1       6.104  -5.864  20.934  0.00  0.00    +0.024 C 
ATOM     21  C   UNL     1       7.139  -5.857  22.040  0.00  0.00    +0.102 C 
ENDBRANCH  10  21
ENDBRANCH   1  16
BRANCH   8  22
ATOM     22  C   UNL     1       7.855   4.726  24.868  0.00  0.00    +0.027 A 
ATOM     23  C   UNL     1       6.583   5.114  24.316  0.00  0.00    +0.009 A 
ATOM     24  C   UNL     1       5.965   5.953  25.249  0.00  0.00    +0.047 A 
ATOM     25  C   UNL     1       4.737   6.587  25.020  0.00  0.00    +0.026 A 
ATOM     26  C   UNL     1       4.104   6.357  23.800  0.00  0.00    +0.002 A 
ATOM     27  C   UNL     1       4.657   5.489  22.866  0.00  0.00    +0.001 A 
ATOM     28  N   UNL     1       6.769   5.995  26.361  0.00  0.00    -0.360 N 
ATOM     29  H   UNL     1       6.548   6.489  27.214  0.00  0.00    +0.165 HD
ATOM     30  C   UNL     1       5.876   4.846  23.120  0.00  0.00    +0.010 A 
ATOM     31  C   UNL     1       7.900   5.265  26.145  0.00  0.00    +0.093 A 
ENDBRANCH   8  22
TORSDOF 3
ENDMDL
MODEL 8
REMARK VINA RESULT:      -6.9      1.750      2.139
REMARK  Name = 
REMARK  4 active torsions:
REMARK  status: ('A' for Active; 'I' for Inactive)
REMARK    1  A    between atoms: C_1  and  C_2
REMARK    2  A    between atoms: C_2  and  N_3
REMARK    3  A    between atoms: C_9  and  N_12
REMARK    4  A    between atoms: C_15  and  C_16
REMARK                            x       y       z     vdW  Elec       q    Type
REMARK                         _______ _______ _______ _____ _____    ______ ____
ROOT
ATOM      1  N   UNL     1       8.795  -1.274  23.706  0.00  0.00    -0.311 N 
ATOM      2  H   UNL     1       9.636  -1.522  23.197  0.00  0.00    +0.149 HD
ATOM      3  C   UNL     1       8.082  -2.444  23.882  0.00  0.00    +0.216 A 
ATOM      4  N   UNL     1       8.306  -3.400  22.981  0.00  0.00    -0.221 NA
ATOM      5  C   UNL     1       7.500  -4.481  23.033  0.00  0.00    +0.136 A 
ATOM      6  C   UNL     1       6.494  -4.661  23.959  0.00  0.00    +0.085 A 
ATOM      7 CL   UNL     1       5.433  -5.992  23.752  0.00  0.00    -0.080 Cl
ATOM      8  C   UNL     1       6.400  -3.667  24.913  0.00  0.00    +0.096 A 
ATOM      9  N   UNL     1       7.192  -2.561  24.869  0.00  0.00    -0.213 NA
ENDROOT
BRANCH   1  16
ATOM     10  N   UNL     1      11.358   3.856  23.521  0.00  0.00    -0.300 N 
ATOM     11  H   UNL     1      11.884   3.220  22.944  0.00  0.00    +0.150 HD
ATOM     12  C   UNL     1      10.024   3.543  23.603  0.00  0.00    +0.302 C 
ATOM     13  N   UNL     1       9.743   2.189  23.670  0.00  0.00    -0.286 N 
ATOM     14  C   UNL     1       8.351   1.760  23.570  0.00  0.00    +0.111 C 
ATOM     15  C   UNL     1       7.973   0.837  24.721  0.00  0.00    +0.041 C 
ATOM     16  C   UNL     1       8.926  -0.363  24.837  0.00  0.00    +0.076 C 
ATOM     17  C   UNL     1      10.373   0.148  24.916  0.00  0.00    +0.041 C 
ATOM     18  C   UNL     1      10.719   1.104  23.777  0.00  0.00    +0.111 C 
ATOM     19  O   UNL     1       9.157   4.411  23.622  0.00  0.00    -0.253 OA
BRANCH  10  21
ATOM     20  C   UNL     1      13.031   5.415  22.640  0.00  0.00    +0.024 C 
ATOM     21  C   UNL     1      11.749   5.248  23.431  0.00  0.00    +0.102 C 
ENDBRANCH  10  21
ENDBRANCH   1  16
BRANCH   8  22
ATOM     22  C   UNL     1       5.418  -3.621  26.003  0.00  0.00    +0.027 A 
ATOM     23  C   UNL     1       3.980  -3.552  26.037  0.00  0.00    +0.009 A 
ATOM     24  C   UNL     1       3.600  -3.491  27.383  0.00  0.00    +0.047 A 
ATOM     25  C   UNL     1       2.272  -3.340  27.802  0.00  0.00    +0.026 A 
ATOM     26  C   UNL     1       1.286  -3.256  26.821  0.00  0.00    +0.002 A 
ATOM     27  C   UNL     1       1.613  -3.367  25.475  0.00  0.00    +0.001 A 
ATOM     28  N   UNL     1       4.739  -3.619  28.138  0.00  0.00    -0.360 N 
ATOM     29  H   UNL     1       4.760  -3.656  29.147  0.00  0.00    +0.165 HD
ATOM     30  C   UNL     1       2.945  -3.538  25.073  0.00  0.00    +0.010 A 
ATOM     31  C   UNL     1       5.830  -3.698  27.324  0.00  0.00    +0.093 A 
ENDBRANCH   8  22
TORSDOF 3
ENDMDL
MODEL 9
REMARK VINA RESULT:      -6.9      3.650      9.808
REMARK  Name = 
REMARK  4 active torsions:
REMARK  status: ('A' for Active; 'I' for Inactive)
REMARK    1  A    between atoms: C_1  and  C_2
REMARK    2  A    between atoms: C_2  and  N_3
REMARK    3  A    between atoms: C_9  and  N_12
REMARK    4  A    between atoms: C_15  and  C_16
REMARK                            x       y       z     vdW  Elec       q    Type
REMARK                         _______ _______ _______ _____ _____    ______ ____
ROOT
ATOM      1  N   UNL     1       6.068   0.382  23.674  0.00  0.00    -0.311 N 
ATOM      2  H   UNL     1       5.088   0.321  23.928  0.00  0.00    +0.149 HD
ATOM      3  C   UNL     1       6.345   1.724  23.495  0.00  0.00    +0.216 A 
ATOM      4  N   UNL     1       5.307   2.489  23.160  0.00  0.00    -0.221 NA
ATOM      5  C   UNL     1       5.584   3.764  22.815  0.00  0.00    +0.136 A 
ATOM      6  C   UNL     1       6.848   4.316  22.813  0.00  0.00    +0.085 A 
ATOM      7 CL   UNL     1       7.044   5.885  22.147  0.00  0.00    -0.080 Cl
ATOM      8  C   UNL     1       7.847   3.479  23.269  0.00  0.00    +0.096 A 
ATOM      9  N   UNL     1       7.591   2.185  23.606  0.00  0.00    -0.213 NA
ENDROOT
BRANCH   1  16
ATOM     10  N   UNL     1       5.151  -5.015  25.393  0.00  0.00    -0.300 N 
ATOM     11  H   UNL     1       4.288  -4.502  25.489  0.00  0.00    +0.150 HD
ATOM     12  C   UNL     1       5.961  -4.537  24.394  0.00  0.00    +0.302 C 
ATOM     13  N   UNL     1       5.983  -3.159  24.266  0.00  0.00    -0.286 N 
ATOM     14  C   UNL     1       6.666  -2.576  23.114  0.00  0.00    +0.111 C 
ATOM     15  C   UNL     1       7.667  -1.512  23.547  0.00  0.00    +0.041 C 
ATOM     16  C   UNL     1       7.019  -0.431  24.425  0.00  0.00    +0.076 C 
ATOM     17  C   UNL     1       6.298  -1.102  25.603  0.00  0.00    +0.041 C 
ATOM     18  C   UNL     1       5.330  -2.195  25.151  0.00  0.00    +0.111 C 
ATOM     19  O   UNL     1       6.617  -5.289  23.679  0.00  0.00    -0.253 OA
BRANCH  10  21
ATOM     20  C   UNL     1       3.645  -6.948  25.325  0.00  0.00    +0.024 C 
ATOM     21  C   UNL     1       5.051  -6.447  25.593  0.00  0.00    +0.102 C 
ENDBRANCH  10  21
ENDBRANCH   1  16
BRANCH   8  22
ATOM     22  C   UNL     1       9.270   3.822  23.363  0.00  0.00    +0.027 A 
ATOM     23  C   UNL     1       9.991   4.891  24.006  0.00  0.00    +0.009 A 
ATOM     24  C   UNL     1      11.347   4.715  23.707  0.00  0.00    +0.047 A 
ATOM     25  C   UNL     1      12.346   5.613  24.104  0.00  0.00    +0.026 A 
ATOM     26  C   UNL     1      11.959   6.731  24.840  0.00  0.00    +0.002 A 
ATOM     27  C   UNL     1      10.631   6.917  25.204  0.00  0.00    +0.001 A 
ATOM     28  N   UNL     1      11.464   3.541  23.005  0.00  0.00    -0.360 N 
ATOM     29  H   UNL     1      12.338   3.139  22.697  0.00  0.00    +0.165 HD
ATOM     30  C   UNL     1       9.647   5.998  24.816  0.00  0.00    +0.010 A 
ATOM     31  C   UNL     1      10.230   3.000  22.794  0.00  0.00    +0.093 A 
ENDBRANCH   8  22
TORSDOF 3
ENDMDL
