MODEL 1
REMARK VINA RESULT:      -6.5      0.000      0.000
REMARK  Name = 
REMARK  19 active torsions:
REMARK  status: ('A' for Active; 'I' for Inactive)
REMARK    1  A    between atoms: O_1  and  C_2
REMARK    2  A    between atoms: C_2  and  C_3
REMARK    3  A    between atoms: C_3  and  C_5
REMARK    4  A    between atoms: C_5  and  O_6
REMARK    5  A    between atoms: O_6  and  P_7
REMARK    6  A    between atoms: P_7  and  O_8
REMARK    7  A    between atoms: P_7  and  O_10
REMARK    8  A    between atoms: O_10  and  C_11
REMARK    9  A    between atoms: C_13  and  O_15
REMARK   10  A    between atoms: C_16  and  O_18
REMARK   11  A    between atoms: C_19  and  O_21
REMARK   12  A    between atoms: O_21  and  P_22
REMARK   13  A    between atoms: P_22  and  O_23
REMARK   14  A    between atoms: P_22  and  O_24
REMARK   15  A    between atoms: C_26  and  O_28
REMARK   16  A    between atoms: O_28  and  P_29
REMARK   17  A    between atoms: P_29  and  O_30
REMARK   18  A    between atoms: P_29  and  O_31
REMARK   19  A    between atoms: C_33  and  O_35
REMARK                            x       y       z     vdW  Elec       q    Type
REMARK                         _______ _______ _______ _____ _____    ______ ____
ROOT
ATOM      1  C   UNL     1       8.903  -3.608  24.674  0.00  0.00    +0.192 C 
ATOM      2  C   UNL     1       8.260  -4.834  24.049  0.00  0.00    +0.178 C 
ATOM      3  C   UNL     1       6.725  -4.802  24.272  0.00  0.00    +0.193 C 
ATOM      4  C   UNL     1       6.330  -4.614  25.743  0.00  0.00    +0.193 C 
ATOM      5  C   UNL     1       7.011  -3.425  26.405  0.00  0.00    +0.177 C 
ATOM      6  C   UNL     1       8.552  -3.585  26.184  0.00  0.00    +0.177 C 
ENDROOT
BRANCH   6   7
ATOM      7  O   UNL     1       9.059  -4.752  26.881  0.00  0.00    -0.386 OA
ATOM      8  H   UNL     1       9.605  -4.440  27.641  0.00  0.00    +0.210 HD
ENDBRANCH   6   7
BRANCH   5   9
ATOM      9  O   UNL     1       6.376  -2.241  25.941  0.00  0.00    -0.386 OA
ATOM     10  H   UNL     1       6.792  -1.984  25.096  0.00  0.00    +0.210 HD
ENDBRANCH   5   9
BRANCH   2  11
ATOM     11  O   UNL     1       8.836  -6.039  24.568  0.00  0.00    -0.386 OA
ATOM     12  H   UNL     1       8.109  -6.647  24.821  0.00  0.00    +0.210 HD
ENDBRANCH   2  11
BRANCH   3  13
ATOM     13  O   UNL     1       6.169  -6.039  23.767  0.00  0.00    -0.278 OA
BRANCH  13  14
ATOM     14  P   UNL     1       4.523  -5.801  23.292  0.00  0.00    +0.473 P 
ATOM     15  O   UNL     1       3.049  -5.589  22.868  0.00  0.00    -0.228 OA
BRANCH  14  16
ATOM     16  O   UNL     1       5.076  -6.132  21.795  0.00  0.00    -0.303 OA
ATOM     17  H   UNL     1       6.036  -6.298  21.837  0.00  0.00    +0.222 HD
ENDBRANCH  14  16
BRANCH  14  18
ATOM     18  O   UNL     1       4.253  -7.346  23.747  0.00  0.00    -0.303 OA
ATOM     19  H   UNL     1       4.301  -7.868  22.919  0.00  0.00    +0.222 HD
ENDBRANCH  14  18
ENDBRANCH  13  14
ENDBRANCH   3  13
BRANCH   4  20
ATOM     20  O   UNL     1       6.753  -5.722  26.482  0.00  0.00    -0.278 OA
BRANCH  20  21
ATOM     21  P   UNL     1       5.913  -5.889  27.985  0.00  0.00    +0.473 P 
ATOM     22  O   UNL     1       5.162  -6.038  29.330  0.00  0.00    -0.228 OA
BRANCH  21  23
ATOM     23  O   UNL     1       5.299  -7.258  27.337  0.00  0.00    -0.303 OA
ATOM     24  H   UNL     1       5.245  -7.899  28.071  0.00  0.00    +0.222 HD
ENDBRANCH  21  23
BRANCH  21  25
ATOM     25  O   UNL     1       7.291  -6.600  28.503  0.00  0.00    -0.303 OA
ATOM     26  H   UNL     1       7.339  -7.524  28.190  0.00  0.00    +0.222 HD
ENDBRANCH  21  25
ENDBRANCH  20  21
ENDBRANCH   4  20
BRANCH   1  27
ATOM     27  O   UNL     1       8.405  -2.486  23.925  0.00  0.00    -0.278 OA
BRANCH  27  28
ATOM     28  P   UNL     1       9.630  -1.294  23.658  0.00  0.00    +0.476 P 
ATOM     29  O   UNL     1      10.513  -2.351  22.998  0.00  0.00    -0.227 OA
BRANCH  28  30
ATOM     30  O   UNL     1       8.897  -0.556  22.433  0.00  0.00    -0.302 OA
ATOM     31  H   UNL     1       8.875  -1.172  21.670  0.00  0.00    +0.222 HD
ENDBRANCH  28  30
BRANCH  28  32
ATOM     32  O   UNL     1      10.856  -0.103  23.390  0.00  0.00    -0.279 OA
BRANCH  32  33
ATOM     33  C   UNL     1      10.951   0.860  24.414  0.00  0.00    +0.249 C 
BRANCH  33  34
ATOM     34  C   UNL     1      10.081   2.060  24.093  0.00  0.00    +0.184 C 
ATOM     35  O   UNL     1       9.146   2.382  24.830  0.00  0.00    -0.292 OA
BRANCH  34  36
ATOM     36  C   UNL     1      10.425   2.858  22.841  0.00  0.00    +0.232 C 
BRANCH  36  37
ATOM     37  O   UNL     1      10.065   2.176  21.651  0.00  0.00    -0.387 OA
ATOM     38  H   UNL     1       9.159   1.847  21.775  0.00  0.00    +0.210 HD
ENDBRANCH  36  37
ENDBRANCH  34  36
ENDBRANCH  33  34
ENDBRANCH  32  33
ENDBRANCH  28  32
ENDBRANCH  27  28
ENDBRANCH   1  27
TORSDOF 19
ENDMDL
MODEL 2
REMARK VINA RESULT:      -6.2      1.637      2.147
REMARK  Name = 
REMARK  19 active torsions:
REMARK  status: ('A' for Active; 'I' for Inactive)
REMARK    1  A    between atoms: O_1  and  C_2
REMARK    2  A    between atoms: C_2  and  C_3
REMARK    3  A    between atoms: C_3  and  C_5
REMARK    4  A    between atoms: C_5  and  O_6
REMARK    5  A    between atoms: O_6  and  P_7
REMARK    6  A    between atoms: P_7  and  O_8
REMARK    7  A    between atoms: P_7  and  O_10
REMARK    8  A    between atoms: O_10  and  C_11
REMARK    9  A    between atoms: C_13  and  O_15
REMARK   10  A    between atoms: C_16  and  O_18
REMARK   11  A    between atoms: C_19  and  O_21
REMARK   12  A    between atoms: O_21  and  P_22
REMARK   13  A    between atoms: P_22  and  O_23
REMARK   14  A    between atoms: P_22  and  O_24
REMARK   15  A    between atoms: C_26  and  O_28
REMARK   16  A    between atoms: O_28  and  P_29
REMARK   17  A    between atoms: P_29  and  O_30
REMARK   18  A    between atoms: P_29  and  O_31
REMARK   19  A    between atoms: C_33  and  O_35
REMARK                            x       y       z     vdW  Elec       q    Type
REMARK                         _______ _______ _______ _____ _____    ______ ____
ROOT
ATOM      1  C   UNL     1       8.255  -1.881  24.140  0.00  0.00    +0.192 C 
ATOM      2  C   UNL     1       8.210  -3.314  23.640  0.00  0.00    +0.178 C 
ATOM      3  C   UNL     1       6.798  -3.914  23.867  0.00  0.00    +0.193 C 
ATOM      4  C   UNL     1       6.308  -3.779  25.315  0.00  0.00    +0.193 C 
ATOM      5  C   UNL     1       6.401  -2.360  25.856  0.00  0.00    +0.177 C 
ATOM      6  C   UNL     1       7.873  -1.872  25.642  0.00  0.00    +0.177 C 
ENDROOT
BRANCH   6   7
ATOM      7  O   UNL     1       8.799  -2.648  26.446  0.00  0.00    -0.386 OA
ATOM      8  H   UNL     1       8.663  -3.601  26.231  0.00  0.00    +0.210 HD
ENDBRANCH   6   7
BRANCH   5   9
ATOM      9  O   UNL     1       5.344  -1.602  25.282  0.00  0.00    -0.386 OA
ATOM     10  H   UNL     1       5.199  -0.813  25.839  0.00  0.00    +0.210 HD
ENDBRANCH   5   9
BRANCH   2  11
ATOM     11  O   UNL     1       9.222  -4.111  24.269  0.00  0.00    -0.386 OA
ATOM     12  H   UNL     1       8.915  -4.347  25.170  0.00  0.00    +0.210 HD
ENDBRANCH   2  11
BRANCH   3  13
ATOM     13  O   UNL     1       6.833  -5.310  23.487  0.00  0.00    -0.278 OA
BRANCH  13  14
ATOM     14  P   UNL     1       6.375  -5.486  21.829  0.00  0.00    +0.473 P 
ATOM     15  O   UNL     1       5.965  -5.643  20.344  0.00  0.00    -0.228 OA
BRANCH  14  16
ATOM     16  O   UNL     1       5.427  -6.690  22.386  0.00  0.00    -0.303 OA
ATOM     17  H   UNL     1       4.794  -6.327  23.031  0.00  0.00    +0.222 HD
ENDBRANCH  14  16
BRANCH  14  18
ATOM     18  O   UNL     1       5.313  -4.271  22.076  0.00  0.00    -0.303 OA
ATOM     19  H   UNL     1       4.561  -4.464  21.478  0.00  0.00    +0.222 HD
ENDBRANCH  14  18
ENDBRANCH  13  14
ENDBRANCH   3  13
BRANCH   4  20
ATOM     20  O   UNL     1       7.132  -4.534  26.155  0.00  0.00    -0.278 OA
BRANCH  20  21
ATOM     21  P   UNL     1       6.253  -5.355  27.398  0.00  0.00    +0.473 P 
ATOM     22  O   UNL     1       5.466  -6.091  28.510  0.00  0.00    -0.228 OA
BRANCH  21  23
ATOM     23  O   UNL     1       5.875  -6.436  26.232  0.00  0.00    -0.303 OA
ATOM     24  H   UNL     1       5.670  -5.909  25.437  0.00  0.00    +0.222 HD
ENDBRANCH  21  23
BRANCH  21  25
ATOM     25  O   UNL     1       7.692  -6.045  27.751  0.00  0.00    -0.303 OA
ATOM     26  H   UNL     1       8.426  -5.441  27.527  0.00  0.00    +0.222 HD
ENDBRANCH  21  25
ENDBRANCH  20  21
ENDBRANCH   4  20
BRANCH   1  27
ATOM     27  O   UNL     1       7.358  -1.147  23.289  0.00  0.00    -0.278 OA
BRANCH  27  28
ATOM     28  P   UNL     1       7.559   0.563  23.461  0.00  0.00    +0.476 P 
ATOM     29  O   UNL     1       7.864   0.676  21.969  0.00  0.00    -0.227 OA
BRANCH  28  30
ATOM     30  O   UNL     1       5.997   0.916  23.584  0.00  0.00    -0.302 OA
ATOM     31  H   UNL     1       5.555   0.194  24.081  0.00  0.00    +0.222 HD
ENDBRANCH  28  30
BRANCH  28  32
ATOM     32  O   UNL     1       7.761   2.273  23.633  0.00  0.00    -0.279 OA
BRANCH  32  33
ATOM     33  C   UNL     1       8.740   2.641  24.576  0.00  0.00    +0.249 C 
BRANCH  33  34
ATOM     34  C   UNL     1      10.105   2.143  24.141  0.00  0.00    +0.184 C 
ATOM     35  O   UNL     1      10.654   1.205  24.724  0.00  0.00    -0.292 OA
BRANCH  34  36
ATOM     36  C   UNL     1      10.753   2.833  22.947  0.00  0.00    +0.232 C 
BRANCH  36  37
ATOM     37  O   UNL     1      10.234   2.373  21.710  0.00  0.00    -0.387 OA
ATOM     38  H   UNL     1       9.329   2.061  21.881  0.00  0.00    +0.210 HD
ENDBRANCH  36  37
ENDBRANCH  34  36
ENDBRANCH  33  34
ENDBRANCH  32  33
ENDBRANCH  28  32
ENDBRANCH  27  28
ENDBRANCH   1  27
TORSDOF 19
ENDMDL
MODEL 3
REMARK VINA RESULT:      -6.1      1.614      3.916
REMARK  Name = 
REMARK  19 active torsions:
REMARK  status: ('A' for Active; 'I' for Inactive)
REMARK    1  A    between atoms: O_1  and  C_2
REMARK    2  A    between atoms: C_2  and  C_3
REMARK    3  A    between atoms: C_3  and  C_5
REMARK    4  A    between atoms: C_5  and  O_6
REMARK    5  A    between atoms: O_6  and  P_7
REMARK    6  A    between atoms: P_7  and  O_8
REMARK    7  A    between atoms: P_7  and  O_10
REMARK    8  A    between atoms: O_10  and  C_11
REMARK    9  A    between atoms: C_13  and  O_15
REMARK   10  A    between atoms: C_16  and  O_18
REMARK   11  A    between atoms: C_19  and  O_21
REMARK   12  A    between atoms: O_21  and  P_22
REMARK   13  A    between atoms: P_22  and  O_23
REMARK   14  A    between atoms: P_22  and  O_24
REMARK   15  A    between atoms: C_26  and  O_28
REMARK   16  A    between atoms: O_28  and  P_29
REMARK   17  A    between atoms: P_29  and  O_30
REMARK   18  A    between atoms: P_29  and  O_31
REMARK   19  A    between atoms: C_33  and  O_35
REMARK                            x       y       z     vdW  Elec       q    Type
REMARK                         _______ _______ _______ _____ _____    ______ ____
ROOT
ATOM      1  C   UNL     1       7.218  -2.972  22.887  0.00  0.00    +0.192 C 
ATOM      2  C   UNL     1       6.456  -3.057  24.198  0.00  0.00    +0.178 C 
ATOM      3  C   UNL     1       6.544  -4.495  24.773  0.00  0.00    +0.193 C 
ATOM      4  C   UNL     1       6.118  -5.576  23.772  0.00  0.00    +0.193 C 
ATOM      5  C   UNL     1       6.828  -5.471  22.430  0.00  0.00    +0.177 C 
ATOM      6  C   UNL     1       6.623  -4.011  21.903  0.00  0.00    +0.177 C 
ENDROOT
BRANCH   6   7
ATOM      7  O   UNL     1       5.224  -3.754  21.616  0.00  0.00    -0.386 OA
ATOM      8  H   UNL     1       5.101  -2.777  21.557  0.00  0.00    +0.210 HD
ENDBRANCH   6   7
BRANCH   5   9
ATOM      9  O   UNL     1       8.154  -5.955  22.596  0.00  0.00    -0.386 OA
ATOM     10  H   UNL     1       8.188  -6.473  23.423  0.00  0.00    +0.210 HD
ENDBRANCH   5   9
BRANCH   2  11
ATOM     11  O   UNL     1       5.092  -2.647  24.028  0.00  0.00    -0.386 OA
ATOM     12  H   UNL     1       4.998  -1.734  24.372  0.00  0.00    +0.210 HD
ENDBRANCH   2  11
BRANCH   3  13
ATOM     13  O   UNL     1       5.711  -4.561  25.954  0.00  0.00    -0.278 OA
BRANCH  13  14
ATOM     14  P   UNL     1       6.527  -5.423  27.211  0.00  0.00    +0.473 P 
ATOM     15  O   UNL     1       7.258  -6.196  28.336  0.00  0.00    -0.228 OA
BRANCH  14  16
ATOM     16  O   UNL     1       5.617  -4.509  28.209  0.00  0.00    -0.303 OA
ATOM     17  H   UNL     1       4.704  -4.849  28.210  0.00  0.00    +0.222 HD
ENDBRANCH  14  16
BRANCH  14  18
ATOM     18  O   UNL     1       5.436  -6.617  26.991  0.00  0.00    -0.303 OA
ATOM     19  H   UNL     1       4.730  -6.442  27.647  0.00  0.00    +0.222 HD
ENDBRANCH  14  18
ENDBRANCH  13  14
ENDBRANCH   3  13
BRANCH   4  20
ATOM     20  O   UNL     1       4.762  -5.419  23.469  0.00  0.00    -0.278 OA
BRANCH  20  21
ATOM     21  P   UNL     1       3.815  -6.805  23.885  0.00  0.00    +0.473 P 
ATOM     22  O   UNL     1       2.968  -8.046  24.259  0.00  0.00    -0.228 OA
BRANCH  21  23
ATOM     23  O   UNL     1       3.113  -5.828  24.991  0.00  0.00    -0.303 OA
ATOM     24  H   UNL     1       3.842  -5.331  25.408  0.00  0.00    +0.222 HD
ENDBRANCH  21  23
BRANCH  21  25
ATOM     25  O   UNL     1       2.848  -6.326  22.658  0.00  0.00    -0.303 OA
ATOM     26  H   UNL     1       2.101  -6.945  22.548  0.00  0.00    +0.222 HD
ENDBRANCH  21  25
ENDBRANCH  20  21
ENDBRANCH   4  20
BRANCH   1  27
ATOM     27  O   UNL     1       8.598  -3.190  23.229  0.00  0.00    -0.278 OA
BRANCH  27  28
ATOM     28  P   UNL     1       9.549  -1.760  23.021  0.00  0.00    +0.476 P 
ATOM     29  O   UNL     1      10.816  -2.563  23.304  0.00  0.00    -0.227 OA
BRANCH  28  30
ATOM     30  O   UNL     1       9.449  -1.709  21.419  0.00  0.00    -0.302 OA
ATOM     31  H   UNL     1       8.899  -0.936  21.168  0.00  0.00    +0.222 HD
ENDBRANCH  28  30
BRANCH  28  32
ATOM     32  O   UNL     1      10.500  -0.330  22.814  0.00  0.00    -0.279 OA
BRANCH  32  33
ATOM     33  C   UNL     1      10.190   0.700  23.724  0.00  0.00    +0.249 C 
BRANCH  33  34
ATOM     34  C   UNL     1       9.978   2.009  22.987  0.00  0.00    +0.184 C 
ATOM     35  O   UNL     1      10.760   2.952  23.131  0.00  0.00    -0.292 OA
BRANCH  34  36
ATOM     36  C   UNL     1       8.779   2.099  22.052  0.00  0.00    +0.232 C 
BRANCH  36  37
ATOM     37  O   UNL     1       8.908   1.248  20.925  0.00  0.00    -0.387 OA
ATOM     38  H   UNL     1       8.697   0.347  21.223  0.00  0.00    +0.210 HD
ENDBRANCH  36  37
ENDBRANCH  34  36
ENDBRANCH  33  34
ENDBRANCH  32  33
ENDBRANCH  28  32
ENDBRANCH  27  28
ENDBRANCH   1  27
TORSDOF 19
ENDMDL
MODEL 4
REMARK VINA RESULT:      -5.8      2.823      8.163
REMARK  Name = 
REMARK  19 active torsions:
REMARK  status: ('A' for Active; 'I' for Inactive)
REMARK    1  A    between atoms: O_1  and  C_2
REMARK    2  A    between atoms: C_2  and  C_3
REMARK    3  A    between atoms: C_3  and  C_5
REMARK    4  A    between atoms: C_5  and  O_6
REMARK    5  A    between atoms: O_6  and  P_7
REMARK    6  A    between atoms: P_7  and  O_8
REMARK    7  A    between atoms: P_7  and  O_10
REMARK    8  A    between atoms: O_10  and  C_11
REMARK    9  A    between atoms: C_13  and  O_15
REMARK   10  A    between atoms: C_16  and  O_18
REMARK   11  A    between atoms: C_19  and  O_21
REMARK   12  A    between atoms: O_21  and  P_22
REMARK   13  A    between atoms: P_22  and  O_23
REMARK   14  A    between atoms: P_22  and  O_24
REMARK   15  A    between atoms: C_26  and  O_28
REMARK   16  A    between atoms: O_28  and  P_29
REMARK   17  A    between atoms: P_29  and  O_30
REMARK   18  A    between atoms: P_29  and  O_31
REMARK   19  A    between atoms: C_33  and  O_35
REMARK                            x       y       z     vdW  Elec       q    Type
REMARK                         _______ _______ _______ _____ _____    ______ ____
ROOT
ATOM      1  C   UNL     1       9.183  -0.311  23.834  0.00  0.00    +0.192 C 
ATOM      2  C   UNL     1       8.298   0.583  24.685  0.00  0.00    +0.178 C 
ATOM      3  C   UNL     1       7.735   1.747  23.829  0.00  0.00    +0.193 C 
ATOM      4  C   UNL     1       8.823   2.532  23.084  0.00  0.00    +0.193 C 
ATOM      5  C   UNL     1       9.757   1.648  22.271  0.00  0.00    +0.177 C 
ATOM      6  C   UNL     1      10.323   0.552  23.235  0.00  0.00    +0.177 C 
ENDROOT
BRANCH   6   7
ATOM      7  O   UNL     1      11.157   1.146  24.264  0.00  0.00    -0.386 OA
ATOM      8  H   UNL     1      10.591   1.748  24.803  0.00  0.00    +0.210 HD
ENDBRANCH   6   7
BRANCH   5   9
ATOM      9  O   UNL     1       9.063   1.233  21.102  0.00  0.00    -0.386 OA
ATOM     10  H   UNL     1       9.491   1.649  20.330  0.00  0.00    +0.210 HD
ENDBRANCH   5   9
BRANCH   2  11
ATOM     11  O   UNL     1       9.011   1.075  25.828  0.00  0.00    -0.386 OA
ATOM     12  H   UNL     1       9.656   0.392  26.109  0.00  0.00    +0.210 HD
ENDBRANCH   2  11
BRANCH   3  13
ATOM     13  O   UNL     1       6.998   2.635  24.703  0.00  0.00    -0.278 OA
BRANCH  13  14
ATOM     14  P   UNL     1       5.308   2.550  24.349  0.00  0.00    +0.473 P 
ATOM     15  O   UNL     1       3.794   2.472  24.032  0.00  0.00    -0.228 OA
BRANCH  14  16
ATOM     16  O   UNL     1       5.614   3.814  23.366  0.00  0.00    -0.303 OA
ATOM     17  H   UNL     1       6.499   4.169  23.566  0.00  0.00    +0.222 HD
ENDBRANCH  14  16
BRANCH  14  18
ATOM     18  O   UNL     1       5.673   1.375  23.276  0.00  0.00    -0.303 OA
ATOM     19  H   UNL     1       6.144   0.692  23.796  0.00  0.00    +0.222 HD
ENDBRANCH  14  18
ENDBRANCH  13  14
ENDBRANCH   3  13
BRANCH   4  20
ATOM     20  O   UNL     1       9.653   3.169  24.011  0.00  0.00    -0.278 OA
BRANCH  20  21
ATOM     21  P   UNL     1       9.699   4.886  23.805  0.00  0.00    +0.473 P 
ATOM     22  O   UNL     1       9.740   6.422  23.619  0.00  0.00    -0.228 OA
BRANCH  21  23
ATOM     23  O   UNL     1       8.410   4.669  22.823  0.00  0.00    -0.303 OA
ATOM     24  H   UNL     1       8.774   4.575  21.923  0.00  0.00    +0.222 HD
ENDBRANCH  21  23
BRANCH  21  25
ATOM     25  O   UNL     1       8.811   4.923  25.176  0.00  0.00    -0.303 OA
ATOM     26  H   UNL     1       9.390   5.004  25.958  0.00  0.00    +0.222 HD
ENDBRANCH  21  25
ENDBRANCH  20  21
ENDBRANCH   4  20
BRANCH   1  27
ATOM     27  O   UNL     1       8.307  -0.906  22.861  0.00  0.00    -0.278 OA
BRANCH  27  28
ATOM     28  P   UNL     1       7.608  -2.379  23.438  0.00  0.00    +0.476 P 
ATOM     29  O   UNL     1       6.214  -1.771  23.298  0.00  0.00    -0.227 OA
BRANCH  28  30
ATOM     30  O   UNL     1       7.821  -3.220  22.086  0.00  0.00    -0.302 OA
ATOM     31  H   UNL     1       8.666  -3.714  22.159  0.00  0.00    +0.222 HD
ENDBRANCH  28  30
BRANCH  28  32
ATOM     32  O   UNL     1       6.907  -3.852  24.015  0.00  0.00    -0.279 OA
BRANCH  32  33
ATOM     33  C   UNL     1       7.745  -4.977  23.875  0.00  0.00    +0.249 C 
BRANCH  33  34
ATOM     34  C   UNL     1       8.739  -5.039  25.019  0.00  0.00    +0.184 C 
ATOM     35  O   UNL     1       9.953  -4.962  24.811  0.00  0.00    -0.292 OA
BRANCH  34  36
ATOM     36  C   UNL     1       8.176  -5.177  26.428  0.00  0.00    +0.232 C 
BRANCH  36  37
ATOM     37  O   UNL     1       6.935  -5.862  26.449  0.00  0.00    -0.387 OA
ATOM     38  H   UNL     1       6.478  -5.647  25.618  0.00  0.00    +0.210 HD
ENDBRANCH  36  37
ENDBRANCH  34  36
ENDBRANCH  33  34
ENDBRANCH  32  33
ENDBRANCH  28  32
ENDBRANCH  27  28
ENDBRANCH   1  27
TORSDOF 19
ENDMDL
MODEL 5
REMARK VINA RESULT:      -5.8      2.200      4.207
REMARK  Name = 
REMARK  19 active torsions:
REMARK  status: ('A' for Active; 'I' for Inactive)
REMARK    1  A    between atoms: O_1  and  C_2
REMARK    2  A    between atoms: C_2  and  C_3
REMARK    3  A    between atoms: C_3  and  C_5
REMARK    4  A    between atoms: C_5  and  O_6
REMARK    5  A    between atoms: O_6  and  P_7
REMARK    6  A    between atoms: P_7  and  O_8
REMARK    7  A    between atoms: P_7  and  O_10
REMARK    8  A    between atoms: O_10  and  C_11
REMARK    9  A    between atoms: C_13  and  O_15
REMARK   10  A    between atoms: C_16  and  O_18
REMARK   11  A    between atoms: C_19  and  O_21
REMARK   12  A    between atoms: O_21  and  P_22
REMARK   13  A    between atoms: P_22  and  O_23
REMARK   14  A    between atoms: P_22  and  O_24
REMARK   15  A    between atoms: C_26  and  O_28
REMARK   16  A    between atoms: O_28  and  P_29
REMARK   17  A    between atoms: P_29  and  O_30
REMARK   18  A    between atoms: P_29  and  O_31
REMARK   19  A    between atoms: C_33  and  O_35
REMARK                            x       y       z     vdW  Elec       q    Type
REMARK                         _______ _______ _______ _____ _____    ______ ____
ROOT
ATOM      1  C   UNL     1       7.623  -3.043  22.230  0.00  0.00    +0.192 C 
ATOM      2  C   UNL     1       6.685  -2.386  23.228  0.00  0.00    +0.178 C 
ATOM      3  C   UNL     1       6.708  -3.160  24.572  0.00  0.00    +0.193 C 
ATOM      4  C   UNL     1       6.438  -4.661  24.411  0.00  0.00    +0.193 C 
ATOM      5  C   UNL     1       7.327  -5.328  23.371  0.00  0.00    +0.177 C 
ATOM      6  C   UNL     1       7.182  -4.517  22.040  0.00  0.00    +0.177 C 
ENDROOT
BRANCH   6   7
ATOM      7  O   UNL     1       5.834  -4.621  21.513  0.00  0.00    -0.386 OA
ATOM      8  H   UNL     1       5.707  -5.542  21.183  0.00  0.00    +0.210 HD
ENDBRANCH   6   7
BRANCH   5   9
ATOM      9  O   UNL     1       8.623  -5.483  23.936  0.00  0.00    -0.386 OA
ATOM     10  H   UNL     1       8.967  -6.358  23.674  0.00  0.00    +0.210 HD
ENDBRANCH   5   9
BRANCH   2  11
ATOM     11  O   UNL     1       5.355  -2.295  22.702  0.00  0.00    -0.386 OA
ATOM     12  H   UNL     1       5.048  -1.367  22.792  0.00  0.00    +0.210 HD
ENDBRANCH   2  11
BRANCH   3  13
ATOM     13  O   UNL     1       5.719  -2.572  25.449  0.00  0.00    -0.278 OA
BRANCH  13  14
ATOM     14  P   UNL     1       6.272  -1.039  26.027  0.00  0.00    +0.473 P 
ATOM     15  O   UNL     1       6.768   0.334  26.545  0.00  0.00    -0.228 OA
BRANCH  14  16
ATOM     16  O   UNL     1       5.516  -1.467  27.407  0.00  0.00    -0.303 OA
ATOM     17  H   UNL     1       4.607  -1.753  27.198  0.00  0.00    +0.222 HD
ENDBRANCH  14  16
BRANCH  14  18
ATOM     18  O   UNL     1       7.697  -1.765  26.351  0.00  0.00    -0.303 OA
ATOM     19  H   UNL     1       7.461  -2.661  26.671  0.00  0.00    +0.222 HD
ENDBRANCH  14  18
ENDBRANCH  13  14
ENDBRANCH   3  13
BRANCH   4  20
ATOM     20  O   UNL     1       5.136  -4.850  23.938  0.00  0.00    -0.278 OA
BRANCH  20  21
ATOM     21  P   UNL     1       4.491  -6.403  24.344  0.00  0.00    +0.473 P 
ATOM     22  O   UNL     1       3.913  -7.791  24.709  0.00  0.00    -0.228 OA
BRANCH  21  23
ATOM     23  O   UNL     1       3.209  -5.569  24.923  0.00  0.00    -0.303 OA
ATOM     24  H   UNL     1       2.439  -5.874  24.407  0.00  0.00    +0.222 HD
ENDBRANCH  21  23
BRANCH  21  25
ATOM     25  O   UNL     1       3.949  -6.414  22.802  0.00  0.00    -0.303 OA
ATOM     26  H   UNL     1       3.105  -5.929  22.732  0.00  0.00    +0.222 HD
ENDBRANCH  21  25
ENDBRANCH  20  21
ENDBRANCH   4  20
BRANCH   1  27
ATOM     27  O   UNL     1       8.943  -2.878  22.774  0.00  0.00    -0.278 OA
BRANCH  27  28
ATOM     28  P   UNL     1       9.508  -1.250  22.613  0.00  0.00    +0.476 P 
ATOM     29  O   UNL     1       9.851  -1.223  24.101  0.00  0.00    -0.227 OA
BRANCH  28  30
ATOM     30  O   UNL     1      10.893  -1.612  21.884  0.00  0.00    -0.302 OA
ATOM     31  H   UNL     1      10.934  -1.118  21.037  0.00  0.00    +0.222 HD
ENDBRANCH  28  30
BRANCH  28  32
ATOM     32  O   UNL     1      10.073   0.377  22.453  0.00  0.00    -0.279 OA
BRANCH  32  33
ATOM     33  C   UNL     1       9.112   1.268  21.934  0.00  0.00    +0.249 C 
BRANCH  33  34
ATOM     34  C   UNL     1       8.926   2.447  22.870  0.00  0.00    +0.184 C 
ATOM     35  O   UNL     1       8.152   3.365  22.588  0.00  0.00    -0.292 OA
BRANCH  34  36
ATOM     36  C   UNL     1       9.714   2.435  24.174  0.00  0.00    +0.232 C 
BRANCH  36  37
ATOM     37  O   UNL     1       9.178   1.527  25.122  0.00  0.00    -0.387 OA
ATOM     38  H   UNL     1       9.345   0.631  24.782  0.00  0.00    +0.210 HD
ENDBRANCH  36  37
ENDBRANCH  34  36
ENDBRANCH  33  34
ENDBRANCH  32  33
ENDBRANCH  28  32
ENDBRANCH  27  28
ENDBRANCH   1  27
TORSDOF 19
ENDMDL
MODEL 6
REMARK VINA RESULT:      -5.7      2.584      3.556
REMARK  Name = 
REMARK  19 active torsions:
REMARK  status: ('A' for Active; 'I' for Inactive)
REMARK    1  A    between atoms: O_1  and  C_2
REMARK    2  A    between atoms: C_2  and  C_3
REMARK    3  A    between atoms: C_3  and  C_5
REMARK    4  A    between atoms: C_5  and  O_6
REMARK    5  A    between atoms: O_6  and  P_7
REMARK    6  A    between atoms: P_7  and  O_8
REMARK    7  A    between atoms: P_7  and  O_10
REMARK    8  A    between atoms: O_10  and  C_11
REMARK    9  A    between atoms: C_13  and  O_15
REMARK   10  A    between atoms: C_16  and  O_18
REMARK   11  A    between atoms: C_19  and  O_21
REMARK   12  A    between atoms: O_21  and  P_22
REMARK   13  A    between atoms: P_22  and  O_23
REMARK   14  A    between atoms: P_22  and  O_24
REMARK   15  A    between atoms: C_26  and  O_28
REMARK   16  A    between atoms: O_28  and  P_29
REMARK   17  A    between atoms: P_29  and  O_30
REMARK   18  A    between atoms: P_29  and  O_31
REMARK   19  A    between atoms: C_33  and  O_35
REMARK                            x       y       z     vdW  Elec       q    Type
REMARK                         _______ _______ _______ _____ _____    ______ ____
ROOT
ATOM      1  C   UNL     1       8.471  -0.560  23.243  0.00  0.00    +0.192 C 
ATOM      2  C   UNL     1       8.575  -1.883  22.504  0.00  0.00    +0.178 C 
ATOM      3  C   UNL     1       7.392  -2.806  22.896  0.00  0.00    +0.193 C 
ATOM      4  C   UNL     1       7.242  -2.989  24.412  0.00  0.00    +0.193 C 
ATOM      5  C   UNL     1       7.196  -1.674  25.177  0.00  0.00    +0.177 C 
ATOM      6  C   UNL     1       8.460  -0.847  24.766  0.00  0.00    +0.177 C 
ENDROOT
BRANCH   6   7
ATOM      7  O   UNL     1       9.677  -1.504  25.207  0.00  0.00    -0.386 OA
ATOM      8  H   UNL     1       9.720  -1.434  26.190  0.00  0.00    +0.210 HD
ENDBRANCH   6   7
BRANCH   5   9
ATOM      9  O   UNL     1       5.912  -1.096  24.981  0.00  0.00    -0.386 OA
ATOM     10  H   UNL     1       5.778  -0.972  24.022  0.00  0.00    +0.210 HD
ENDBRANCH   5   9
BRANCH   2  11
ATOM     11  O   UNL     1       9.836  -2.516  22.756  0.00  0.00    -0.386 OA
ATOM     12  H   UNL     1       9.685  -3.283  23.348  0.00  0.00    +0.210 HD
ENDBRANCH   2  11
BRANCH   3  13
ATOM     13  O   UNL     1       7.594  -4.092  22.263  0.00  0.00    -0.278 OA
BRANCH  13  14
ATOM     14  P   UNL     1       6.102  -4.965  22.201  0.00  0.00    +0.473 P 
ATOM     15  O   UNL     1       4.767  -5.748  22.146  0.00  0.00    -0.228 OA
BRANCH  14  16
ATOM     16  O   UNL     1       5.664  -3.823  21.124  0.00  0.00    -0.303 OA
ATOM     17  H   UNL     1       5.787  -4.171  20.221  0.00  0.00    +0.222 HD
ENDBRANCH  14  16
BRANCH  14  18
ATOM     18  O   UNL     1       6.827  -5.970  21.139  0.00  0.00    -0.303 OA
ATOM     19  H   UNL     1       7.581  -5.459  20.777  0.00  0.00    +0.222 HD
ENDBRANCH  14  18
ENDBRANCH  13  14
ENDBRANCH   3  13
BRANCH   4  20
ATOM     20  O   UNL     1       8.365  -3.652  24.913  0.00  0.00    -0.278 OA
BRANCH  20  21
ATOM     21  P   UNL     1       7.992  -4.705  26.234  0.00  0.00    +0.473 P 
ATOM     22  O   UNL     1       7.658  -5.648  27.415  0.00  0.00    -0.228 OA
BRANCH  21  23
ATOM     23  O   UNL     1       9.057  -5.733  25.541  0.00  0.00    -0.303 OA
ATOM     24  H   UNL     1       9.637  -6.041  26.262  0.00  0.00    +0.222 HD
ENDBRANCH  21  23
BRANCH  21  25
ATOM     25  O   UNL     1       9.136  -3.858  27.036  0.00  0.00    -0.303 OA
ATOM     26  H   UNL     1      10.013  -4.270  26.919  0.00  0.00    +0.222 HD
ENDBRANCH  21  25
ENDBRANCH  20  21
ENDBRANCH   4  20
BRANCH   1  27
ATOM     27  O   UNL     1       7.279   0.069  22.743  0.00  0.00    -0.278 OA
BRANCH  27  28
ATOM     28  P   UNL     1       7.560   1.714  22.287  0.00  0.00    +0.476 P 
ATOM     29  O   UNL     1       8.425   1.909  23.530  0.00  0.00    -0.227 OA
BRANCH  28  30
ATOM     30  O   UNL     1       8.606   1.398  21.110  0.00  0.00    -0.302 OA
ATOM     31  H   UNL     1       9.402   0.983  21.507  0.00  0.00    +0.222 HD
ENDBRANCH  28  30
BRANCH  28  32
ATOM     32  O   UNL     1       7.841   3.360  21.833  0.00  0.00    -0.279 OA
BRANCH  32  33
ATOM     33  C   UNL     1       6.974   4.281  22.454  0.00  0.00    +0.249 C 
BRANCH  33  34
ATOM     34  C   UNL     1       7.531   5.687  22.343  0.00  0.00    +0.184 C 
ATOM     35  O   UNL     1       7.051   6.499  21.548  0.00  0.00    -0.292 OA
BRANCH  34  36
ATOM     36  C   UNL     1       8.687   6.056  23.264  0.00  0.00    +0.232 C 
BRANCH  36  37
ATOM     37  O   UNL     1       9.718   5.082  23.255  0.00  0.00    -0.387 OA
ATOM     38  H   UNL     1       9.658   4.598  24.096  0.00  0.00    +0.210 HD
ENDBRANCH  36  37
ENDBRANCH  34  36
ENDBRANCH  33  34
ENDBRANCH  32  33
ENDBRANCH  28  32
ENDBRANCH  27  28
ENDBRANCH   1  27
TORSDOF 19
ENDMDL
MODEL 7
REMARK VINA RESULT:      -5.6      1.802      2.623
REMARK  Name = 
REMARK  19 active torsions:
REMARK  status: ('A' for Active; 'I' for Inactive)
REMARK    1  A    between atoms: O_1  and  C_2
REMARK    2  A    between atoms: C_2  and  C_3
REMARK    3  A    between atoms: C_3  and  C_5
REMARK    4  A    between atoms: C_5  and  O_6
REMARK    5  A    between atoms: O_6  and  P_7
REMARK    6  A    between atoms: P_7  and  O_8
REMARK    7  A    between atoms: P_7  and  O_10
REMARK    8  A    between atoms: O_10  and  C_11
REMARK    9  A    between atoms: C_13  and  O_15
REMARK   10  A    between atoms: C_16  and  O_18
REMARK   11  A    between atoms: C_19  and  O_21
REMARK   12  A    between atoms: O_21  and  P_22
REMARK   13  A    between atoms: P_22  and  O_23
REMARK   14  A    between atoms: P_22  and  O_24
REMARK   15  A    between atoms: C_26  and  O_28
REMARK   16  A    between atoms: O_28  and  P_29
REMARK   17  A    between atoms: P_29  and  O_30
REMARK   18  A    between atoms: P_29  and  O_31
REMARK   19  A    between atoms: C_33  and  O_35
REMARK                            x       y       z     vdW  Elec       q    Type
REMARK                         _______ _______ _______ _____ _____    ______ ____
ROOT
ATOM      1  C   UNL     1       7.310  -2.625  26.132  0.00  0.00    +0.192 C 
ATOM      2  C   UNL     1       7.609  -3.736  25.140  0.00  0.00    +0.178 C 
ATOM      3  C   UNL     1       6.343  -4.060  24.305  0.00  0.00    +0.193 C 
ATOM      4  C   UNL     1       5.108  -4.356  25.167  0.00  0.00    +0.193 C 
ATOM      5  C   UNL     1       4.825  -3.283  26.208  0.00  0.00    +0.177 C 
ATOM      6  C   UNL     1       6.137  -3.078  27.039  0.00  0.00    +0.177 C 
ENDROOT
BRANCH   6   7
ATOM      7  O   UNL     1       6.462  -4.271  27.798  0.00  0.00    -0.386 OA
ATOM      8  H   UNL     1       7.328  -4.612  27.472  0.00  0.00    +0.210 HD
ENDBRANCH   6   7
BRANCH   5   9
ATOM      9  O   UNL     1       4.261  -2.162  25.540  0.00  0.00    -0.386 OA
ATOM     10  H   UNL     1       4.523  -1.356  26.026  0.00  0.00    +0.210 HD
ENDBRANCH   5   9
BRANCH   2  11
ATOM     11  O   UNL     1       8.105  -4.903  25.808  0.00  0.00    -0.386 OA
ATOM     12  H   UNL     1       7.506  -5.110  26.557  0.00  0.00    +0.210 HD
ENDBRANCH   2  11
BRANCH   3  13
ATOM     13  O   UNL     1       6.638  -5.197  23.460  0.00  0.00    -0.278 OA
BRANCH  13  14
ATOM     14  P   UNL     1       6.190  -4.855  21.825  0.00  0.00    +0.473 P 
ATOM     15  O   UNL     1       5.789  -4.549  20.361  0.00  0.00    -0.228 OA
BRANCH  14  16
ATOM     16  O   UNL     1       7.371  -5.915  21.450  0.00  0.00    -0.303 OA
ATOM     17  H   UNL     1       7.269  -6.192  20.521  0.00  0.00    +0.222 HD
ENDBRANCH  14  16
BRANCH  14  18
ATOM     18  O   UNL     1       4.994  -5.950  22.008  0.00  0.00    -0.303 OA
ATOM     19  H   UNL     1       4.900  -6.374  21.129  0.00  0.00    +0.222 HD
ENDBRANCH  14  18
ENDBRANCH  13  14
ENDBRANCH   3  13
BRANCH   4  20
ATOM     20  O   UNL     1       5.328  -5.521  25.908  0.00  0.00    -0.278 OA
BRANCH  20  21
ATOM     21  P   UNL     1       3.963  -6.584  25.911  0.00  0.00    +0.473 P 
ATOM     22  O   UNL     1       2.742  -7.535  25.912  0.00  0.00    -0.228 OA
BRANCH  21  23
ATOM     23  O   UNL     1       4.666  -7.273  24.606  0.00  0.00    -0.303 OA
ATOM     24  H   UNL     1       5.586  -6.948  24.597  0.00  0.00    +0.222 HD
ENDBRANCH  21  23
BRANCH  21  25
ATOM     25  O   UNL     1       4.830  -7.448  26.994  0.00  0.00    -0.303 OA
ATOM     26  H   UNL     1       4.485  -7.312  27.897  0.00  0.00    +0.222 HD
ENDBRANCH  21  25
ENDBRANCH  20  21
ENDBRANCH   4  20
BRANCH   1  27
ATOM     27  O   UNL     1       7.037  -1.460  25.335  0.00  0.00    -0.278 OA
BRANCH  27  28
ATOM     28  P   UNL     1       8.475  -0.561  24.993  0.00  0.00    +0.476 P 
ATOM     29  O   UNL     1       7.639   0.704  24.811  0.00  0.00    -0.227 OA
BRANCH  28  30
ATOM     30  O   UNL     1       9.003  -0.484  26.508  0.00  0.00    -0.302 OA
ATOM     31  H   UNL     1       8.325  -0.026  27.049  0.00  0.00    +0.222 HD
ENDBRANCH  28  30
BRANCH  28  32
ATOM     32  O   UNL     1       9.912   0.339  24.650  0.00  0.00    -0.279 OA
BRANCH  32  33
ATOM     33  C   UNL     1      10.629  -0.133  23.532  0.00  0.00    +0.249 C 
BRANCH  33  34
ATOM     34  C   UNL     1      10.017   0.401  22.251  0.00  0.00    +0.184 C 
ATOM     35  O   UNL     1       9.553  -0.364  21.401  0.00  0.00    -0.292 OA
BRANCH  34  36
ATOM     36  C   UNL     1       9.982   1.914  22.070  0.00  0.00    +0.232 C 
BRANCH  36  37
ATOM     37  O   UNL     1       9.048   2.540  22.934  0.00  0.00    -0.387 OA
ATOM     38  H   UNL     1       9.197   3.498  22.867  0.00  0.00    +0.210 HD
ENDBRANCH  36  37
ENDBRANCH  34  36
ENDBRANCH  33  34
ENDBRANCH  32  33
ENDBRANCH  28  32
ENDBRANCH  27  28
ENDBRANCH   1  27
TORSDOF 19
ENDMDL
MODEL 8
REMARK VINA RESULT:      -5.4      2.119      4.335
REMARK  Name = 
REMARK  19 active torsions:
REMARK  status: ('A' for Active; 'I' for Inactive)
REMARK    1  A    between atoms: O_1  and  C_2
REMARK    2  A    between atoms: C_2  and  C_3
REMARK    3  A    between atoms: C_3  and  C_5
REMARK    4  A    between atoms: C_5  and  O_6
REMARK    5  A    between atoms: O_6  and  P_7
REMARK    6  A    between atoms: P_7  and  O_8
REMARK    7  A    between atoms: P_7  and  O_10
REMARK    8  A    between atoms: O_10  and  C_11
REMARK    9  A    between atoms: C_13  and  O_15
REMARK   10  A    between atoms: C_16  and  O_18
REMARK   11  A    between atoms: C_19  and  O_21
REMARK   12  A    between atoms: O_21  and  P_22
REMARK   13  A    between atoms: P_22  and  O_23
REMARK   14  A    between atoms: P_22  and  O_24
REMARK   15  A    between atoms: C_26  and  O_28
REMARK   16  A    between atoms: O_28  and  P_29
REMARK   17  A    between atoms: P_29  and  O_30
REMARK   18  A    between atoms: P_29  and  O_31
REMARK   19  A    between atoms: C_33  and  O_35
REMARK                            x       y       z     vdW  Elec       q    Type
REMARK                         _______ _______ _______ _____ _____    ______ ____
ROOT
ATOM      1  C   UNL     1       7.676  -2.595  23.166  0.00  0.00    +0.192 C 
ATOM      2  C   UNL     1       7.067  -1.896  24.369  0.00  0.00    +0.178 C 
ATOM      3  C   UNL     1       7.883  -2.226  25.646  0.00  0.00    +0.193 C 
ATOM      4  C   UNL     1       8.072  -3.732  25.873  0.00  0.00    +0.193 C 
ATOM      5  C   UNL     1       8.625  -4.461  24.658  0.00  0.00    +0.177 C 
ATOM      6  C   UNL     1       7.698  -4.120  23.443  0.00  0.00    +0.177 C 
ENDROOT
BRANCH   6   7
ATOM      7  O   UNL     1       6.365  -4.659  23.638  0.00  0.00    -0.386 OA
ATOM      8  H   UNL     1       6.444  -5.639  23.725  0.00  0.00    +0.210 HD
ENDBRANCH   6   7
BRANCH   5   9
ATOM      9  O   UNL     1      10.012  -4.163  24.560  0.00  0.00    -0.386 OA
ATOM     10  H   UNL     1      10.511  -4.991  24.693  0.00  0.00    +0.210 HD
ENDBRANCH   5   9
BRANCH   2  11
ATOM     11  O   UNL     1       5.687  -2.250  24.527  0.00  0.00    -0.386 OA
ATOM     12  H   UNL     1       5.228  -2.097  23.674  0.00  0.00    +0.210 HD
ENDBRANCH   2  11
BRANCH   3  13
ATOM     13  O   UNL     1       7.204  -1.639  26.781  0.00  0.00    -0.278 OA
BRANCH  13  14
ATOM     14  P   UNL     1       7.369   0.083  26.748  0.00  0.00    +0.473 P 
ATOM     15  O   UNL     1       7.518   1.624  26.718  0.00  0.00    -0.228 OA
BRANCH  14  16
ATOM     16  O   UNL     1       6.245   0.053  27.928  0.00  0.00    -0.303 OA
ATOM     17  H   UNL     1       5.704   0.862  27.876  0.00  0.00    +0.222 HD
ENDBRANCH  14  16
BRANCH  14  18
ATOM     18  O   UNL     1       8.672  -0.104  27.713  0.00  0.00    -0.303 OA
ATOM     19  H   UNL     1       8.310  -0.165  28.622  0.00  0.00    +0.222 HD
ENDBRANCH  14  18
ENDBRANCH  13  14
ENDBRANCH   3  13
BRANCH   4  20
ATOM     20  O   UNL     1       6.828  -4.325  26.107  0.00  0.00    -0.278 OA
BRANCH  20  21
ATOM     21  P   UNL     1       6.853  -5.442  27.427  0.00  0.00    +0.473 P 
ATOM     22  O   UNL     1       6.875  -6.441  28.609  0.00  0.00    -0.228 OA
BRANCH  21  23
ATOM     23  O   UNL     1       5.582  -4.589  27.999  0.00  0.00    -0.303 OA
ATOM     24  H   UNL     1       4.840  -5.220  28.054  0.00  0.00    +0.222 HD
ENDBRANCH  21  23
BRANCH  21  25
ATOM     25  O   UNL     1       5.945  -6.385  26.450  0.00  0.00    -0.303 OA
ATOM     26  H   UNL     1       5.185  -6.756  26.939  0.00  0.00    +0.222 HD
ENDBRANCH  21  25
ENDBRANCH  20  21
ENDBRANCH   4  20
BRANCH   1  27
ATOM     27  O   UNL     1       8.972  -1.998  22.988  0.00  0.00    -0.278 OA
BRANCH  27  28
ATOM     28  P   UNL     1       8.860  -0.373  22.406  0.00  0.00    +0.476 P 
ATOM     29  O   UNL     1       9.942   0.055  23.396  0.00  0.00    -0.227 OA
BRANCH  28  30
ATOM     30  O   UNL     1       9.646  -0.621  21.027  0.00  0.00    -0.302 OA
ATOM     31  H   UNL     1       9.070  -0.333  20.287  0.00  0.00    +0.222 HD
ENDBRANCH  28  30
BRANCH  28  32
ATOM     32  O   UNL     1       8.749   1.253  21.825  0.00  0.00    -0.279 OA
BRANCH  32  33
ATOM     33  C   UNL     1       7.455   1.805  21.914  0.00  0.00    +0.249 C 
BRANCH  33  34
ATOM     34  C   UNL     1       7.512   3.184  22.543  0.00  0.00    +0.184 C 
ATOM     35  O   UNL     1       7.270   4.195  21.879  0.00  0.00    -0.292 OA
BRANCH  34  36
ATOM     36  C   UNL     1       7.857   3.263  24.025  0.00  0.00    +0.232 C 
BRANCH  36  37
ATOM     37  O   UNL     1       9.156   2.768  24.304  0.00  0.00    -0.387 OA
ATOM     38  H   UNL     1       9.789   3.417  23.951  0.00  0.00    +0.210 HD
ENDBRANCH  36  37
ENDBRANCH  34  36
ENDBRANCH  33  34
ENDBRANCH  32  33
ENDBRANCH  28  32
ENDBRANCH  27  28
ENDBRANCH   1  27
TORSDOF 19
ENDMDL
MODEL 9
REMARK VINA RESULT:      -5.4      2.590      4.777
REMARK  Name = 
REMARK  19 active torsions:
REMARK  status: ('A' for Active; 'I' for Inactive)
REMARK    1  A    between atoms: O_1  and  C_2
REMARK    2  A    between atoms: C_2  and  C_3
REMARK    3  A    between atoms: C_3  and  C_5
REMARK    4  A    between atoms: C_5  and  O_6
REMARK    5  A    between atoms: O_6  and  P_7
REMARK    6  A    between atoms: P_7  and  O_8
REMARK    7  A    between atoms: P_7  and  O_10
REMARK    8  A    between atoms: O_10  and  C_11
REMARK    9  A    between atoms: C_13  and  O_15
REMARK   10  A    between atoms: C_16  and  O_18
REMARK   11  A    between atoms: C_19  and  O_21
REMARK   12  A    between atoms: O_21  and  P_22
REMARK   13  A    between atoms: P_22  and  O_23
REMARK   14  A    between atoms: P_22  and  O_24
REMARK   15  A    between atoms: C_26  and  O_28
REMARK   16  A    between atoms: O_28  and  P_29
REMARK   17  A    between atoms: P_29  and  O_30
REMARK   18  A    between atoms: P_29  and  O_31
REMARK   19  A    between atoms: C_33  and  O_35
REMARK                            x       y       z     vdW  Elec       q    Type
REMARK                         _______ _______ _______ _____ _____    ______ ____
ROOT
ATOM      1  C   UNL     1       8.463   0.276  24.382  0.00  0.00    +0.192 C 
ATOM      2  C   UNL     1       8.307  -0.830  25.411  0.00  0.00    +0.178 C 
ATOM      3  C   UNL     1       8.418  -2.216  24.725  0.00  0.00    +0.193 C 
ATOM      4  C   UNL     1       7.464  -2.381  23.534  0.00  0.00    +0.193 C 
ATOM      5  C   UNL     1       7.562  -1.251  22.520  0.00  0.00    +0.177 C 
ATOM      6  C   UNL     1       7.371   0.095  23.297  0.00  0.00    +0.177 C 
ENDROOT
BRANCH   6   7
ATOM      7  O   UNL     1       6.031   0.190  23.848  0.00  0.00    -0.386 OA
ATOM      8  H   UNL     1       5.525  -0.603  23.555  0.00  0.00    +0.210 HD
ENDBRANCH   6   7
BRANCH   5   9
ATOM      9  O   UNL     1       8.754  -1.438  21.768  0.00  0.00    -0.386 OA
ATOM     10  H   UNL     1       8.934  -2.396  21.717  0.00  0.00    +0.210 HD
ENDBRANCH   5   9
BRANCH   2  11
ATOM     11  O   UNL     1       7.071  -0.700  26.125  0.00  0.00    -0.386 OA
ATOM     12  H   UNL     1       7.089   0.143  26.626  0.00  0.00    +0.210 HD
ENDBRANCH   2  11
BRANCH   3  13
ATOM     13  O   UNL     1       8.148  -3.235  25.717  0.00  0.00    -0.278 OA
BRANCH  13  14
ATOM     14  P   UNL     1       8.900  -4.724  25.261  0.00  0.00    +0.473 P 
ATOM     15  O   UNL     1       9.573  -6.058  24.853  0.00  0.00    -0.228 OA
BRANCH  14  16
ATOM     16  O   UNL     1      10.038  -3.761  24.601  0.00  0.00    -0.303 OA
ATOM     17  H   UNL     1       9.677  -2.861  24.499  0.00  0.00    +0.222 HD
ENDBRANCH  14  16
BRANCH  14  18
ATOM     18  O   UNL     1       9.532  -4.773  26.765  0.00  0.00    -0.303 OA
ATOM     19  H   UNL     1       9.245  -5.634  27.134  0.00  0.00    +0.222 HD
ENDBRANCH  14  18
ENDBRANCH  13  14
ENDBRANCH   3  13
BRANCH   4  20
ATOM     20  O   UNL     1       6.143  -2.337  23.989  0.00  0.00    -0.278 OA
BRANCH  20  21
ATOM     21  P   UNL     1       5.145  -3.556  23.275  0.00  0.00    +0.473 P 
ATOM     22  O   UNL     1       4.252  -4.647  22.635  0.00  0.00    -0.228 OA
BRANCH  21  23
ATOM     23  O   UNL     1       6.542  -4.163  22.682  0.00  0.00    -0.303 OA
ATOM     24  H   UNL     1       6.351  -4.418  21.759  0.00  0.00    +0.222 HD
ENDBRANCH  21  23
BRANCH  21  25
ATOM     25  O   UNL     1       5.284  -4.304  24.721  0.00  0.00    -0.303 OA
ATOM     26  H   UNL     1       5.084  -3.684  25.449  0.00  0.00    +0.222 HD
ENDBRANCH  21  25
ENDBRANCH  20  21
ENDBRANCH   4  20
BRANCH   1  27
ATOM     27  O   UNL     1       9.812   0.167  23.899  0.00  0.00    -0.278 OA
BRANCH  27  28
ATOM     28  P   UNL     1      10.484   1.712  23.505  0.00  0.00    +0.476 P 
ATOM     29  O   UNL     1      10.082   1.514  22.046  0.00  0.00    -0.227 OA
BRANCH  28  30
ATOM     30  O   UNL     1       9.297   2.590  24.138  0.00  0.00    -0.302 OA
ATOM     31  H   UNL     1       9.119   3.347  23.539  0.00  0.00    +0.222 HD
ENDBRANCH  28  30
BRANCH  28  32
ATOM     32  O   UNL     1      11.156   3.257  23.111  0.00  0.00    -0.279 OA
BRANCH  32  33
ATOM     33  C   UNL     1      10.822   4.275  24.026  0.00  0.00    +0.249 C 
BRANCH  33  34
ATOM     34  C   UNL     1      11.588   5.544  23.704  0.00  0.00    +0.184 C 
ATOM     35  O   UNL     1      11.303   6.614  24.248  0.00  0.00    -0.292 OA
BRANCH  34  36
ATOM     36  C   UNL     1      12.733   5.436  22.704  0.00  0.00    +0.232 C 
BRANCH  36  37
ATOM     37  O   UNL     1      13.907   4.892  23.284  0.00  0.00    -0.387 OA
ATOM     38  H   UNL     1      13.759   4.855  24.244  0.00  0.00    +0.210 HD
ENDBRANCH  36  37
ENDBRANCH  34  36
ENDBRANCH  33  34
ENDBRANCH  32  33
ENDBRANCH  28  32
ENDBRANCH  27  28
ENDBRANCH   1  27
TORSDOF 19
ENDMDL
