MODEL 1
REMARK VINA RESULT:      -7.2      0.000      0.000
REMARK  Name = 
REMARK  10 active torsions:
REMARK  status: ('A' for Active; 'I' for Inactive)
REMARK    1  A    between atoms: C_1  and  C_2
REMARK    2  A    between atoms: C_2  and  C_3
REMARK    3  A    between atoms: C_8  and  N_9
REMARK    4  A    between atoms: C_10  and  C_11
REMARK    5  A    between atoms: C_16  and  C_17
REMARK    6  A    between atoms: C_16  and  C_18
REMARK    7  A    between atoms: N_21  and  C_22
REMARK    8  A    between atoms: C_22  and  C_23
REMARK    9  A    between atoms: C_23  and  N_24
REMARK   10  A    between atoms: C_25  and  C_26
REMARK                            x       y       z     vdW  Elec       q    Type
REMARK                         _______ _______ _______ _____ _____    ______ ____
ROOT
ATOM      1  C   UNL     1       6.983  -3.721  24.868  0.00  0.00    -0.011 A 
ATOM      2  C   UNL     1       7.554  -2.497  25.302  0.00  0.00    +0.033 A 
ATOM      3  C   UNL     1       8.159  -1.557  24.440  0.00  0.00    +0.050 A 
ATOM      4  C   UNL     1       8.371  -1.966  23.116  0.00  0.00    +0.030 A 
ATOM      5  S   UNL     1       9.317  -1.044  21.931  0.00  0.00    -0.108 S 
ATOM      6  C   UNL     1       9.052   0.614  22.604  0.00  0.00    +0.092 C 
ATOM      7  C   UNL     1       9.316   0.635  24.115  0.00  0.00    +0.236 C 
ATOM      8  O   UNL     1       9.978   1.543  24.630  0.00  0.00    -0.274 OA
ATOM      9  C   UNL     1      10.011   1.553  21.860  0.00  0.00    +0.032 C 
ATOM     10  C   UNL     1       7.607   1.079  22.350  0.00  0.00    +0.032 C 
ATOM     11  C   UNL     1       7.819  -3.163  22.650  0.00  0.00    +0.017 A 
ATOM     12  N   UNL     1       8.582  -0.262  24.910  0.00  0.00    -0.268 N 
ATOM     13  C   UNL     1       7.075  -3.983  23.497  0.00  0.00    +0.010 A 
ENDROOT
BRANCH   1  15
ATOM     14  C   UNL     1       4.933  -4.847  25.944  0.00  0.00    +0.056 A 
ATOM     15  C   UNL     1       6.325  -4.671  25.827  0.00  0.00    +0.043 A 
ATOM     16  C   UNL     1       7.056  -5.499  26.698  0.00  0.00    +0.129 A 
ATOM     17  N   UNL     1       6.507  -6.383  27.549  0.00  0.00    -0.199 NA
ATOM     18  C   UNL     1       5.184  -6.460  27.571  0.00  0.00    +0.214 A 
ATOM     19  N   UNL     1       4.594  -7.344  28.448  0.00  0.00    -0.327 N 
ATOM     20  H   UNL     1       5.218  -7.532  29.216  0.00  0.00    +0.145 HD
ATOM     21  H   UNL     1       3.660  -7.024  28.669  0.00  0.00    +0.145 HD
ATOM     22  N   UNL     1       4.380  -5.708  26.833  0.00  0.00    -0.219 NA
BRANCH  16  23
ATOM     23  N   UNL     1       8.450  -5.524  26.735  0.00  0.00    -0.343 N 
ATOM     24  H   UNL     1       8.872  -4.603  26.694  0.00  0.00    +0.144 HD
ATOM     25  H   UNL     1       8.734  -6.026  27.573  0.00  0.00    +0.144 HD
ENDBRANCH  16  23
BRANCH  14  27
ATOM     26  C   UNL     1       3.429  -4.758  23.868  0.00  0.00    +0.010 C 
ATOM     27  C   UNL     1       3.900  -4.073  25.150  0.00  0.00    +0.053 C 
ENDBRANCH  14  27
ENDBRANCH   1  15
BRANCH  12  28
ATOM     28  C   UNL     1       8.130   0.289  26.203  0.00  0.00    +0.132 C 
BRANCH  28  29
ATOM     29  C   UNL     1       7.075   1.407  26.006  0.00  0.00    +0.123 C 
BRANCH  29  30
ATOM     30  N   UNL     1       7.532   2.729  26.393  0.00  0.00    -0.314 N 
ATOM     31  H   UNL     1       7.971   2.836  27.299  0.00  0.00    +0.149 HD
ATOM     32  C   UNL     1       7.471   3.799  25.532  0.00  0.00    +0.210 C 
ATOM     33  O   UNL     1       6.969   3.738  24.414  0.00  0.00    -0.276 OA
ATOM     34  C   UNL     1       8.084   5.067  26.067  0.00  0.00    +0.109 C 
ENDBRANCH  29  30
ENDBRANCH  28  29
ENDBRANCH  12  28
TORSDOF 6
ENDMDL
MODEL 2
REMARK VINA RESULT:      -7.0      1.890      2.310
REMARK  Name = 
REMARK  10 active torsions:
REMARK  status: ('A' for Active; 'I' for Inactive)
REMARK    1  A    between atoms: C_1  and  C_2
REMARK    2  A    between atoms: C_2  and  C_3
REMARK    3  A    between atoms: C_8  and  N_9
REMARK    4  A    between atoms: C_10  and  C_11
REMARK    5  A    between atoms: C_16  and  C_17
REMARK    6  A    between atoms: C_16  and  C_18
REMARK    7  A    between atoms: N_21  and  C_22
REMARK    8  A    between atoms: C_22  and  C_23
REMARK    9  A    between atoms: C_23  and  N_24
REMARK   10  A    between atoms: C_25  and  C_26
REMARK                            x       y       z     vdW  Elec       q    Type
REMARK                         _______ _______ _______ _____ _____    ______ ____
ROOT
ATOM      1  C   UNL     1       7.554  -3.375  24.479  0.00  0.00    -0.011 A 
ATOM      2  C   UNL     1       7.171  -2.013  24.578  0.00  0.00    +0.033 A 
ATOM      3  C   UNL     1       8.021  -0.929  24.273  0.00  0.00    +0.050 A 
ATOM      4  C   UNL     1       9.372  -1.233  24.052  0.00  0.00    +0.030 A 
ATOM      5  S   UNL     1      10.650  -0.015  23.885  0.00  0.00    -0.108 S 
ATOM      6  C   UNL     1       9.647   1.343  23.235  0.00  0.00    +0.092 C 
ATOM      7  C   UNL     1       8.383   1.537  24.083  0.00  0.00    +0.236 C 
ATOM      8  O   UNL     1       8.018   2.667  24.427  0.00  0.00    -0.274 OA
ATOM      9  C   UNL     1      10.530   2.598  23.261  0.00  0.00    +0.032 C 
ATOM     10  C   UNL     1       9.227   1.062  21.782  0.00  0.00    +0.032 C 
ATOM     11  C   UNL     1       9.786  -2.564  23.943  0.00  0.00    +0.017 A 
ATOM     12  N   UNL     1       7.535   0.428  24.239  0.00  0.00    -0.268 N 
ATOM     13  C   UNL     1       8.874  -3.609  24.079  0.00  0.00    +0.010 A 
ENDROOT
BRANCH   1  15
ATOM     14  C   UNL     1       5.772  -5.119  23.836  0.00  0.00    +0.056 A 
ATOM     15  C   UNL     1       6.597  -4.490  24.789  0.00  0.00    +0.043 A 
ATOM     16  C   UNL     1       6.451  -5.030  26.079  0.00  0.00    +0.129 A 
ATOM     17  N   UNL     1       5.628  -6.047  26.392  0.00  0.00    -0.199 NA
ATOM     18  C   UNL     1       4.899  -6.558  25.410  0.00  0.00    +0.214 A 
ATOM     19  N   UNL     1       4.034  -7.589  25.706  0.00  0.00    -0.327 N 
ATOM     20  H   UNL     1       3.788  -7.559  26.683  0.00  0.00    +0.145 HD
ATOM     21  H   UNL     1       3.279  -7.597  25.032  0.00  0.00    +0.145 HD
ATOM     22  N   UNL     1       4.912  -6.115  24.161  0.00  0.00    -0.219 NA
BRANCH  16  23
ATOM     23  N   UNL     1       7.191  -4.591  27.177  0.00  0.00    -0.343 N 
ATOM     24  H   UNL     1       7.163  -3.586  27.308  0.00  0.00    +0.144 HD
ATOM     25  H   UNL     1       6.853  -5.082  28.002  0.00  0.00    +0.144 HD
ENDBRANCH  16  23
BRANCH  14  27
ATOM     26  C   UNL     1       6.437  -5.673  21.422  0.00  0.00    +0.010 C 
ATOM     27  C   UNL     1       5.701  -4.731  22.373  0.00  0.00    +0.053 C 
ENDBRANCH  14  27
ENDBRANCH   1  15
BRANCH  12  28
ATOM     28  C   UNL     1       6.093   0.743  24.194  0.00  0.00    +0.132 C 
BRANCH  28  29
ATOM     29  C   UNL     1       5.457   0.689  25.607  0.00  0.00    +0.123 C 
BRANCH  29  30
ATOM     30  N   UNL     1       5.848   1.783  26.476  0.00  0.00    -0.314 N 
ATOM     31  H   UNL     1       5.402   2.682  26.343  0.00  0.00    +0.149 HD
ATOM     32  C   UNL     1       6.723   1.602  27.521  0.00  0.00    +0.210 C 
ATOM     33  O   UNL     1       7.287   0.537  27.753  0.00  0.00    -0.276 OA
ATOM     34  C   UNL     1       6.933   2.823  28.379  0.00  0.00    +0.109 C 
ENDBRANCH  29  30
ENDBRANCH  28  29
ENDBRANCH  12  28
TORSDOF 6
ENDMDL
MODEL 3
REMARK VINA RESULT:      -7.0      2.419      3.265
REMARK  Name = 
REMARK  10 active torsions:
REMARK  status: ('A' for Active; 'I' for Inactive)
REMARK    1  A    between atoms: C_1  and  C_2
REMARK    2  A    between atoms: C_2  and  C_3
REMARK    3  A    between atoms: C_8  and  N_9
REMARK    4  A    between atoms: C_10  and  C_11
REMARK    5  A    between atoms: C_16  and  C_17
REMARK    6  A    between atoms: C_16  and  C_18
REMARK    7  A    between atoms: N_21  and  C_22
REMARK    8  A    between atoms: C_22  and  C_23
REMARK    9  A    between atoms: C_23  and  N_24
REMARK   10  A    between atoms: C_25  and  C_26
REMARK                            x       y       z     vdW  Elec       q    Type
REMARK                         _______ _______ _______ _____ _____    ______ ____
ROOT
ATOM      1  C   UNL     1       7.594  -2.855  23.710  0.00  0.00    -0.011 A 
ATOM      2  C   UNL     1       7.233  -1.513  23.994  0.00  0.00    +0.033 A 
ATOM      3  C   UNL     1       8.138  -0.430  23.976  0.00  0.00    +0.050 A 
ATOM      4  C   UNL     1       9.499  -0.751  23.862  0.00  0.00    +0.030 A 
ATOM      5  S   UNL     1      10.815   0.422  24.051  0.00  0.00    -0.108 S 
ATOM      6  C   UNL     1       9.928   1.911  23.530  0.00  0.00    +0.092 C 
ATOM      7  C   UNL     1       8.577   2.016  24.248  0.00  0.00    +0.236 C 
ATOM      8  O   UNL     1       8.200   3.087  24.735  0.00  0.00    -0.274 OA
ATOM      9  C   UNL     1      10.831   3.105  23.868  0.00  0.00    +0.032 C 
ATOM     10  C   UNL     1       9.679   1.892  22.012  0.00  0.00    +0.032 C 
ATOM     11  C   UNL     1       9.892  -2.062  23.577  0.00  0.00    +0.017 A 
ATOM     12  N   UNL     1       7.691   0.933  24.117  0.00  0.00    -0.268 N 
ATOM     13  C   UNL     1       8.946  -3.075  23.429  0.00  0.00    +0.010 A 
ENDROOT
BRANCH   1  15
ATOM     14  C   UNL     1       6.234  -4.719  24.853  0.00  0.00    +0.056 A 
ATOM     15  C   UNL     1       6.581  -3.964  23.716  0.00  0.00    +0.043 A 
ATOM     16  C   UNL     1       5.861  -4.342  22.568  0.00  0.00    +0.129 A 
ATOM     17  N   UNL     1       4.926  -5.307  22.538  0.00  0.00    -0.199 NA
ATOM     18  C   UNL     1       4.685  -5.951  23.672  0.00  0.00    +0.214 A 
ATOM     19  N   UNL     1       3.745  -6.958  23.665  0.00  0.00    -0.327 N 
ATOM     20  H   UNL     1       3.646  -7.328  22.733  0.00  0.00    +0.145 HD
ATOM     21  H   UNL     1       3.949  -7.612  24.410  0.00  0.00    +0.145 HD
ATOM     22  N   UNL     1       5.322  -5.721  24.811  0.00  0.00    -0.219 NA
BRANCH  16  23
ATOM     23  N   UNL     1       6.010  -3.711  21.333  0.00  0.00    -0.343 N 
ATOM     24  H   UNL     1       5.597  -4.226  20.563  0.00  0.00    +0.144 HD
ATOM     25  H   UNL     1       5.619  -2.776  21.406  0.00  0.00    +0.144 HD
ENDBRANCH  16  23
BRANCH  14  27
ATOM     26  C   UNL     1       8.171  -5.311  26.426  0.00  0.00    +0.010 C 
ATOM     27  C   UNL     1       6.863  -4.549  26.221  0.00  0.00    +0.053 C 
ENDBRANCH  14  27
ENDBRANCH   1  15
BRANCH  12  28
ATOM     28  C   UNL     1       6.273   1.313  23.963  0.00  0.00    +0.132 C 
BRANCH  28  29
ATOM     29  C   UNL     1       6.045   2.146  22.676  0.00  0.00    +0.123 C 
BRANCH  29  30
ATOM     30  N   UNL     1       5.479   3.461  22.913  0.00  0.00    -0.314 N 
ATOM     31  H   UNL     1       4.602   3.520  23.415  0.00  0.00    +0.149 HD
ATOM     32  C   UNL     1       6.145   4.612  22.564  0.00  0.00    +0.210 C 
ATOM     33  O   UNL     1       7.219   4.617  21.970  0.00  0.00    -0.276 OA
ATOM     34  C   UNL     1       5.454   5.884  22.980  0.00  0.00    +0.109 C 
ENDBRANCH  29  30
ENDBRANCH  28  29
ENDBRANCH  12  28
TORSDOF 6
ENDMDL
MODEL 4
REMARK VINA RESULT:      -7.0      3.082      7.737
REMARK  Name = 
REMARK  10 active torsions:
REMARK  status: ('A' for Active; 'I' for Inactive)
REMARK    1  A    between atoms: C_1  and  C_2
REMARK    2  A    between atoms: C_2  and  C_3
REMARK    3  A    between atoms: C_8  and  N_9
REMARK    4  A    between atoms: C_10  and  C_11
REMARK    5  A    between atoms: C_16  and  C_17
REMARK    6  A    between atoms: C_16  and  C_18
REMARK    7  A    between atoms: N_21  and  C_22
REMARK    8  A    between atoms: C_22  and  C_23
REMARK    9  A    between atoms: C_23  and  N_24
REMARK   10  A    between atoms: C_25  and  C_26
REMARK                            x       y       z     vdW  Elec       q    Type
REMARK                         _______ _______ _______ _____ _____    ______ ____
ROOT
ATOM      1  C   UNL     1       7.215  -0.521  25.178  0.00  0.00    -0.011 A 
ATOM      2  C   UNL     1       7.739  -1.720  25.726  0.00  0.00    +0.033 A 
ATOM      3  C   UNL     1       6.946  -2.761  26.252  0.00  0.00    +0.050 A 
ATOM      4  C   UNL     1       5.579  -2.490  26.411  0.00  0.00    +0.030 A 
ATOM      5  S   UNL     1       4.446  -3.558  27.261  0.00  0.00    -0.108 S 
ATOM      6  C   UNL     1       5.289  -5.133  26.971  0.00  0.00    +0.092 C 
ATOM      7  C   UNL     1       6.781  -5.019  27.311  0.00  0.00    +0.236 C 
ATOM      8  O   UNL     1       7.350  -5.900  27.965  0.00  0.00    -0.274 OA
ATOM      9  C   UNL     1       4.596  -6.176  27.857  0.00  0.00    +0.032 C 
ATOM     10  C   UNL     1       5.151  -5.560  25.500  0.00  0.00    +0.032 C 
ATOM     11  C   UNL     1       5.025  -1.321  25.879  0.00  0.00    +0.017 A 
ATOM     12  N   UNL     1       7.519  -4.022  26.652  0.00  0.00    -0.268 N 
ATOM     13  C   UNL     1       5.823  -0.395  25.209  0.00  0.00    +0.010 A 
ENDROOT
BRANCH   1  15
ATOM     14  C   UNL     1       8.821   0.417  23.396  0.00  0.00    +0.056 A 
ATOM     15  C   UNL     1       8.107   0.543  24.604  0.00  0.00    +0.043 A 
ATOM     16  C   UNL     1       8.298   1.791  25.224  0.00  0.00    +0.129 A 
ATOM     17  N   UNL     1       9.064   2.779  24.729  0.00  0.00    -0.199 NA
ATOM     18  C   UNL     1       9.688   2.544  23.584  0.00  0.00    +0.214 A 
ATOM     19  N   UNL     1      10.494   3.533  23.063  0.00  0.00    -0.327 N 
ATOM     20  H   UNL     1      10.805   4.145  23.801  0.00  0.00    +0.145 HD
ATOM     21  H   UNL     1      11.201   3.113  22.473  0.00  0.00    +0.145 HD
ATOM     22  N   UNL     1       9.626   1.398  22.920  0.00  0.00    -0.219 NA
BRANCH  16  23
ATOM     23  N   UNL     1       7.665   2.156  26.413  0.00  0.00    -0.343 N 
ATOM     24  H   UNL     1       8.274   2.643  27.062  0.00  0.00    +0.144 HD
ATOM     25  H   UNL     1       6.851   2.717  26.177  0.00  0.00    +0.144 HD
ENDBRANCH  16  23
BRANCH  14  27
ATOM     26  C   UNL     1      10.185  -1.498  22.373  0.00  0.00    +0.010 C 
ATOM     27  C   UNL     1       8.823  -0.823  22.527  0.00  0.00    +0.053 C 
ENDBRANCH  14  27
ENDBRANCH   1  15
BRANCH  12  28
ATOM     28  C   UNL     1       8.879  -4.428  26.247  0.00  0.00    +0.132 C 
BRANCH  28  29
ATOM     29  C   UNL     1       9.070  -4.322  24.712  0.00  0.00    +0.123 C 
BRANCH  29  30
ATOM     30  N   UNL     1       8.347  -5.326  23.954  0.00  0.00    -0.314 N 
ATOM     31  H   UNL     1       8.351  -6.279  24.297  0.00  0.00    +0.149 HD
ATOM     32  C   UNL     1       7.588  -4.999  22.855  0.00  0.00    +0.210 C 
ATOM     33  O   UNL     1       7.521  -3.864  22.394  0.00  0.00    -0.276 OA
ATOM     34  C   UNL     1       6.825  -6.153  22.257  0.00  0.00    +0.109 C 
ENDBRANCH  29  30
ENDBRANCH  28  29
ENDBRANCH  12  28
TORSDOF 6
ENDMDL
MODEL 5
REMARK VINA RESULT:      -7.0      1.998      2.391
REMARK  Name = 
REMARK  10 active torsions:
REMARK  status: ('A' for Active; 'I' for Inactive)
REMARK    1  A    between atoms: C_1  and  C_2
REMARK    2  A    between atoms: C_2  and  C_3
REMARK    3  A    between atoms: C_8  and  N_9
REMARK    4  A    between atoms: C_10  and  C_11
REMARK    5  A    between atoms: C_16  and  C_17
REMARK    6  A    between atoms: C_16  and  C_18
REMARK    7  A    between atoms: N_21  and  C_22
REMARK    8  A    between atoms: C_22  and  C_23
REMARK    9  A    between atoms: C_23  and  N_24
REMARK   10  A    between atoms: C_25  and  C_26
REMARK                            x       y       z     vdW  Elec       q    Type
REMARK                         _______ _______ _______ _____ _____    ______ ____
ROOT
ATOM      1  C   UNL     1       7.724  -3.226  24.479  0.00  0.00    -0.011 A 
ATOM      2  C   UNL     1       7.377  -1.867  24.690  0.00  0.00    +0.033 A 
ATOM      3  C   UNL     1       8.237  -0.781  24.422  0.00  0.00    +0.050 A 
ATOM      4  C   UNL     1       9.570  -1.096  24.120  0.00  0.00    +0.030 A 
ATOM      5  S   UNL     1      10.868   0.106  23.980  0.00  0.00    -0.108 S 
ATOM      6  C   UNL     1       9.869   1.526  23.472  0.00  0.00    +0.092 C 
ATOM      7  C   UNL     1       8.647   1.685  24.387  0.00  0.00    +0.236 C 
ATOM      8  O   UNL     1       8.324   2.795  24.825  0.00  0.00    -0.274 OA
ATOM      9  C   UNL     1      10.781   2.758  23.544  0.00  0.00    +0.032 C 
ATOM     10  C   UNL     1       9.379   1.356  22.023  0.00  0.00    +0.032 C 
ATOM     11  C   UNL     1       9.948  -2.423  23.900  0.00  0.00    +0.017 A 
ATOM     12  N   UNL     1       7.782   0.584  24.504  0.00  0.00    -0.268 N 
ATOM     13  C   UNL     1       9.019  -3.457  24.004  0.00  0.00    +0.010 A 
ENDROOT
BRANCH   1  15
ATOM     14  C   UNL     1       5.921  -4.927  23.783  0.00  0.00    +0.056 A 
ATOM     15  C   UNL     1       6.756  -4.341  24.754  0.00  0.00    +0.043 A 
ATOM     16  C   UNL     1       6.608  -4.923  26.026  0.00  0.00    +0.129 A 
ATOM     17  N   UNL     1       5.776  -5.941  26.307  0.00  0.00    -0.199 NA
ATOM     18  C   UNL     1       5.038  -6.411  25.311  0.00  0.00    +0.214 A 
ATOM     19  N   UNL     1       4.162  -7.441  25.574  0.00  0.00    -0.327 N 
ATOM     20  H   UNL     1       3.920  -7.443  26.552  0.00  0.00    +0.145 HD
ATOM     21  H   UNL     1       3.405  -7.418  24.903  0.00  0.00    +0.145 HD
ATOM     22  N   UNL     1       5.051  -5.925  24.077  0.00  0.00    -0.219 NA
BRANCH  16  23
ATOM     23  N   UNL     1       7.357  -4.530  27.136  0.00  0.00    -0.343 N 
ATOM     24  H   UNL     1       8.349  -4.450  26.946  0.00  0.00    +0.144 HD
ATOM     25  H   UNL     1       6.973  -3.654  27.480  0.00  0.00    +0.144 HD
ENDBRANCH  16  23
BRANCH  14  27
ATOM     26  C   UNL     1       6.304  -5.538  21.322  0.00  0.00    +0.010 C 
ATOM     27  C   UNL     1       5.849  -4.489  22.335  0.00  0.00    +0.053 C 
ENDBRANCH  14  27
ENDBRANCH   1  15
BRANCH  12  28
ATOM     28  C   UNL     1       6.348   0.931  24.548  0.00  0.00    +0.132 C 
BRANCH  28  29
ATOM     29  C   UNL     1       5.878   1.574  23.218  0.00  0.00    +0.123 C 
BRANCH  29  30
ATOM     30  N   UNL     1       5.395   2.935  23.355  0.00  0.00    -0.314 N 
ATOM     31  H   UNL     1       4.633   3.109  23.998  0.00  0.00    +0.149 HD
ATOM     32  C   UNL     1       6.003   3.990  22.716  0.00  0.00    +0.210 C 
ATOM     33  O   UNL     1       6.942   3.856  21.936  0.00  0.00    -0.276 OA
ATOM     34  C   UNL     1       5.431   5.341  23.056  0.00  0.00    +0.109 C 
ENDBRANCH  29  30
ENDBRANCH  28  29
ENDBRANCH  12  28
TORSDOF 6
ENDMDL
MODEL 6
REMARK VINA RESULT:      -6.9      2.377      3.400
REMARK  Name = 
REMARK  10 active torsions:
REMARK  status: ('A' for Active; 'I' for Inactive)
REMARK    1  A    between atoms: C_1  and  C_2
REMARK    2  A    between atoms: C_2  and  C_3
REMARK    3  A    between atoms: C_8  and  N_9
REMARK    4  A    between atoms: C_10  and  C_11
REMARK    5  A    between atoms: C_16  and  C_17
REMARK    6  A    between atoms: C_16  and  C_18
REMARK    7  A    between atoms: N_21  and  C_22
REMARK    8  A    between atoms: C_22  and  C_23
REMARK    9  A    between atoms: C_23  and  N_24
REMARK   10  A    between atoms: C_25  and  C_26
REMARK                            x       y       z     vdW  Elec       q    Type
REMARK                         _______ _______ _______ _____ _____    ______ ____
ROOT
ATOM      1  C   UNL     1       7.500  -2.882  23.763  0.00  0.00    -0.011 A 
ATOM      2  C   UNL     1       7.131  -1.513  23.822  0.00  0.00    +0.033 A 
ATOM      3  C   UNL     1       8.053  -0.445  23.814  0.00  0.00    +0.050 A 
ATOM      4  C   UNL     1       9.407  -0.783  23.955  0.00  0.00    +0.030 A 
ATOM      5  S   UNL     1      10.705   0.399  24.204  0.00  0.00    -0.108 S 
ATOM      6  C   UNL     1       9.945   1.816  23.374  0.00  0.00    +0.092 C 
ATOM      7  C   UNL     1       8.500   2.014  23.854  0.00  0.00    +0.236 C 
ATOM      8  O   UNL     1       8.077   3.139  24.141  0.00  0.00    -0.274 OA
ATOM      9  C   UNL     1      10.811   3.039  23.702  0.00  0.00    +0.032 C 
ATOM     10  C   UNL     1       9.933   1.611  21.849  0.00  0.00    +0.032 C 
ATOM     11  C   UNL     1       9.809  -2.121  23.897  0.00  0.00    +0.017 A 
ATOM     12  N   UNL     1       7.621   0.927  23.717  0.00  0.00    -0.268 N 
ATOM     13  C   UNL     1       8.874  -3.140  23.726  0.00  0.00    +0.010 A 
ENDROOT
BRANCH   1  15
ATOM     14  C   UNL     1       6.035  -4.678  24.885  0.00  0.00    +0.056 A 
ATOM     15  C   UNL     1       6.474  -3.978  23.744  0.00  0.00    +0.043 A 
ATOM     16  C   UNL     1       5.831  -4.398  22.565  0.00  0.00    +0.129 A 
ATOM     17  N   UNL     1       4.887  -5.353  22.510  0.00  0.00    -0.199 NA
ATOM     18  C   UNL     1       4.556  -5.942  23.650  0.00  0.00    +0.214 A 
ATOM     19  N   UNL     1       3.604  -6.938  23.621  0.00  0.00    -0.327 N 
ATOM     20  H   UNL     1       3.566  -7.348  22.701  0.00  0.00    +0.145 HD
ATOM     21  H   UNL     1       3.745  -7.561  24.406  0.00  0.00    +0.145 HD
ATOM     22  N   UNL     1       5.114  -5.670  24.822  0.00  0.00    -0.219 NA
BRANCH  16  23
ATOM     23  N   UNL     1       6.077  -3.824  21.317  0.00  0.00    -0.343 N 
ATOM     24  H   UNL     1       6.089  -4.497  20.559  0.00  0.00    +0.144 HD
ATOM     25  H   UNL     1       5.381  -3.100  21.160  0.00  0.00    +0.144 HD
ENDBRANCH  16  23
BRANCH  14  27
ATOM     26  C   UNL     1       7.810  -5.271  26.639  0.00  0.00    +0.010 C 
ATOM     27  C   UNL     1       6.568  -4.454  26.286  0.00  0.00    +0.053 C 
ENDBRANCH  14  27
ENDBRANCH   1  15
BRANCH  12  28
ATOM     28  C   UNL     1       6.253   1.290  23.297  0.00  0.00    +0.132 C 
BRANCH  28  29
ATOM     29  C   UNL     1       5.412   1.808  24.492  0.00  0.00    +0.123 C 
BRANCH  29  30
ATOM     30  N   UNL     1       5.850   1.316  25.784  0.00  0.00    -0.314 N 
ATOM     31  H   UNL     1       6.559   1.841  26.280  0.00  0.00    +0.149 HD
ATOM     32  C   UNL     1       5.264   0.225  26.383  0.00  0.00    +0.210 C 
ATOM     33  O   UNL     1       4.388  -0.448  25.849  0.00  0.00    -0.276 OA
ATOM     34  C   UNL     1       5.777  -0.078  27.766  0.00  0.00    +0.109 C 
ENDBRANCH  29  30
ENDBRANCH  28  29
ENDBRANCH  12  28
TORSDOF 6
ENDMDL
MODEL 7
REMARK VINA RESULT:      -6.8      2.515      4.563
REMARK  Name = 
REMARK  10 active torsions:
REMARK  status: ('A' for Active; 'I' for Inactive)
REMARK    1  A    between atoms: C_1  and  C_2
REMARK    2  A    between atoms: C_2  and  C_3
REMARK    3  A    between atoms: C_8  and  N_9
REMARK    4  A    between atoms: C_10  and  C_11
REMARK    5  A    between atoms: C_16  and  C_17
REMARK    6  A    between atoms: C_16  and  C_18
REMARK    7  A    between atoms: N_21  and  C_22
REMARK    8  A    between atoms: C_22  and  C_23
REMARK    9  A    between atoms: C_23  and  N_24
REMARK   10  A    between atoms: C_25  and  C_26
REMARK                            x       y       z     vdW  Elec       q    Type
REMARK                         _______ _______ _______ _____ _____    ______ ____
ROOT
ATOM      1  C   UNL     1       7.177  -2.369  26.465  0.00  0.00    -0.011 A 
ATOM      2  C   UNL     1       7.545  -2.160  25.111  0.00  0.00    +0.033 A 
ATOM      3  C   UNL     1       8.076  -0.951  24.614  0.00  0.00    +0.050 A 
ATOM      4  C   UNL     1       8.045   0.152  25.481  0.00  0.00    +0.030 A 
ATOM      5  S   UNL     1       8.440   1.811  24.993  0.00  0.00    -0.108 S 
ATOM      6  C   UNL     1       9.582   1.431  23.642  0.00  0.00    +0.092 C 
ATOM      7  C   UNL     1       8.977   0.381  22.700  0.00  0.00    +0.236 C 
ATOM      8  O   UNL     1       9.040   0.519  21.474  0.00  0.00    -0.274 OA
ATOM      9  C   UNL     1       9.849   2.750  22.904  0.00  0.00    +0.032 C 
ATOM     10  C   UNL     1      10.914   0.891  24.191  0.00  0.00    +0.032 C 
ATOM     11  C   UNL     1       7.692  -0.017  26.824  0.00  0.00    +0.017 A 
ATOM     12  N   UNL     1       8.579  -0.841  23.268  0.00  0.00    -0.268 N 
ATOM     13  C   UNL     1       7.340  -1.272  27.317  0.00  0.00    +0.010 A 
ENDROOT
BRANCH   1  15
ATOM     14  C   UNL     1       5.296  -3.930  27.276  0.00  0.00    +0.056 A 
ATOM     15  C   UNL     1       6.643  -3.689  26.944  0.00  0.00    +0.043 A 
ATOM     16  C   UNL     1       7.454  -4.830  27.088  0.00  0.00    +0.129 A 
ATOM     17  N   UNL     1       7.010  -6.035  27.485  0.00  0.00    -0.199 NA
ATOM     18  C   UNL     1       5.720  -6.140  27.771  0.00  0.00    +0.214 A 
ATOM     19  N   UNL     1       5.242  -7.360  28.199  0.00  0.00    -0.327 N 
ATOM     20  H   UNL     1       5.991  -7.899  28.602  0.00  0.00    +0.145 HD
ATOM     21  H   UNL     1       4.412  -7.217  28.760  0.00  0.00    +0.145 HD
ATOM     22  N   UNL     1       4.858  -5.135  27.717  0.00  0.00    -0.219 NA
BRANCH  16  23
ATOM     23  N   UNL     1       8.815  -4.841  26.784  0.00  0.00    -0.343 N 
ATOM     24  H   UNL     1       9.074  -5.556  26.114  0.00  0.00    +0.144 HD
ATOM     25  H   UNL     1       9.072  -3.914  26.455  0.00  0.00    +0.144 HD
ENDBRANCH  16  23
BRANCH  14  27
ATOM     26  C   UNL     1       3.965  -2.152  28.559  0.00  0.00    +0.010 C 
ATOM     27  C   UNL     1       4.202  -2.882  27.238  0.00  0.00    +0.053 C 
ENDBRANCH  14  27
ENDBRANCH   1  15
BRANCH  12  28
ATOM     28  C   UNL     1       8.874  -2.029  22.443  0.00  0.00    +0.132 C 
BRANCH  28  29
ATOM     29  C   UNL     1       7.575  -2.701  21.930  0.00  0.00    +0.123 C 
BRANCH  29  30
ATOM     30  N   UNL     1       7.479  -4.116  22.234  0.00  0.00    -0.314 N 
ATOM     31  H   UNL     1       8.081  -4.491  22.956  0.00  0.00    +0.149 HD
ATOM     32  C   UNL     1       6.537  -4.924  21.642  0.00  0.00    +0.210 C 
ATOM     33  O   UNL     1       5.763  -4.535  20.773  0.00  0.00    -0.276 OA
ATOM     34  C   UNL     1       6.518  -6.341  22.156  0.00  0.00    +0.109 C 
ENDBRANCH  29  30
ENDBRANCH  28  29
ENDBRANCH  12  28
TORSDOF 6
ENDMDL
MODEL 8
REMARK VINA RESULT:      -6.8      3.113      7.359
REMARK  Name = 
REMARK  10 active torsions:
REMARK  status: ('A' for Active; 'I' for Inactive)
REMARK    1  A    between atoms: C_1  and  C_2
REMARK    2  A    between atoms: C_2  and  C_3
REMARK    3  A    between atoms: C_8  and  N_9
REMARK    4  A    between atoms: C_10  and  C_11
REMARK    5  A    between atoms: C_16  and  C_17
REMARK    6  A    between atoms: C_16  and  C_18
REMARK    7  A    between atoms: N_21  and  C_22
REMARK    8  A    between atoms: C_22  and  C_23
REMARK    9  A    between atoms: C_23  and  N_24
REMARK   10  A    between atoms: C_25  and  C_26
REMARK                            x       y       z     vdW  Elec       q    Type
REMARK                         _______ _______ _______ _____ _____    ______ ____
ROOT
ATOM      1  C   UNL     1       6.866  -2.004  23.791  0.00  0.00    -0.011 A 
ATOM      2  C   UNL     1       6.286  -2.525  24.976  0.00  0.00    +0.033 A 
ATOM      3  C   UNL     1       5.296  -3.530  24.995  0.00  0.00    +0.050 A 
ATOM      4  C   UNL     1       4.729  -3.877  23.760  0.00  0.00    +0.030 A 
ATOM      5  S   UNL     1       3.319  -4.937  23.576  0.00  0.00    -0.108 S 
ATOM      6  C   UNL     1       3.529  -5.929  25.074  0.00  0.00    +0.092 C 
ATOM      7  C   UNL     1       3.772  -5.028  26.292  0.00  0.00    +0.236 C 
ATOM      8  O   UNL     1       3.182  -5.233  27.359  0.00  0.00    -0.274 OA
ATOM      9  C   UNL     1       2.247  -6.755  25.242  0.00  0.00    +0.032 C 
ATOM     10  C   UNL     1       4.722  -6.890  24.927  0.00  0.00    +0.032 C 
ATOM     11  C   UNL     1       5.277  -3.387  22.571  0.00  0.00    +0.017 A 
ATOM     12  N   UNL     1       4.854  -4.134  26.227  0.00  0.00    -0.268 N 
ATOM     13  C   UNL     1       6.374  -2.527  22.591  0.00  0.00    +0.010 A 
ENDROOT
BRANCH   1  15
ATOM     14  C   UNL     1       7.698   0.433  23.786  0.00  0.00    +0.056 A 
ATOM     15  C   UNL     1       7.939  -0.954  23.832  0.00  0.00    +0.043 A 
ATOM     16  C   UNL     1       9.306  -1.267  23.941  0.00  0.00    +0.129 A 
ATOM     17  N   UNL     1      10.294  -0.358  24.011  0.00  0.00    -0.199 NA
ATOM     18  C   UNL     1       9.944   0.920  23.957  0.00  0.00    +0.214 A 
ATOM     19  N   UNL     1      10.938   1.873  24.007  0.00  0.00    -0.327 N 
ATOM     20  H   UNL     1      11.809   1.476  23.693  0.00  0.00    +0.145 HD
ATOM     21  H   UNL     1      10.616   2.718  23.553  0.00  0.00    +0.145 HD
ATOM     22  N   UNL     1       8.698   1.348  23.813  0.00  0.00    -0.219 NA
BRANCH  16  23
ATOM     23  N   UNL     1       9.783  -2.575  24.038  0.00  0.00    -0.343 N 
ATOM     24  H   UNL     1       9.504  -3.165  23.262  0.00  0.00    +0.144 HD
ATOM     25  H   UNL     1      10.795  -2.535  24.129  0.00  0.00    +0.144 HD
ENDBRANCH  16  23
BRANCH  14  27
ATOM     26  C   UNL     1       5.577   1.269  24.962  0.00  0.00    +0.010 C 
ATOM     27  C   UNL     1       6.326   1.061  23.646  0.00  0.00    +0.053 C 
ENDBRANCH  14  27
ENDBRANCH   1  15
BRANCH  12  28
ATOM     28  C   UNL     1       5.612  -3.991  27.486  0.00  0.00    +0.132 C 
BRANCH  28  29
ATOM     29  C   UNL     1       6.437  -5.265  27.799  0.00  0.00    +0.123 C 
BRANCH  29  30
ATOM     30  N   UNL     1       7.264  -5.722  26.698  0.00  0.00    -0.314 N 
ATOM     31  H   UNL     1       6.938  -6.508  26.149  0.00  0.00    +0.149 HD
ATOM     32  C   UNL     1       8.412  -5.061  26.328  0.00  0.00    +0.210 C 
ATOM     33  O   UNL     1       8.857  -4.091  26.935  0.00  0.00    -0.276 OA
ATOM     34  C   UNL     1       9.084  -5.616  25.100  0.00  0.00    +0.109 C 
ENDBRANCH  29  30
ENDBRANCH  28  29
ENDBRANCH  12  28
TORSDOF 6
ENDMDL
MODEL 9
REMARK VINA RESULT:      -6.7      2.479      4.763
REMARK  Name = 
REMARK  10 active torsions:
REMARK  status: ('A' for Active; 'I' for Inactive)
REMARK    1  A    between atoms: C_1  and  C_2
REMARK    2  A    between atoms: C_2  and  C_3
REMARK    3  A    between atoms: C_8  and  N_9
REMARK    4  A    between atoms: C_10  and  C_11
REMARK    5  A    between atoms: C_16  and  C_17
REMARK    6  A    between atoms: C_16  and  C_18
REMARK    7  A    between atoms: N_21  and  C_22
REMARK    8  A    between atoms: C_22  and  C_23
REMARK    9  A    between atoms: C_23  and  N_24
REMARK   10  A    between atoms: C_25  and  C_26
REMARK                            x       y       z     vdW  Elec       q    Type
REMARK                         _______ _______ _______ _____ _____    ______ ____
ROOT
ATOM      1  C   UNL     1       6.844  -2.318  26.493  0.00  0.00    -0.011 A 
ATOM      2  C   UNL     1       7.315  -2.095  25.174  0.00  0.00    +0.033 A 
ATOM      3  C   UNL     1       7.723  -0.837  24.683  0.00  0.00    +0.050 A 
ATOM      4  C   UNL     1       7.453   0.272  25.498  0.00  0.00    +0.030 A 
ATOM      5  S   UNL     1       7.664   1.957  24.984  0.00  0.00    -0.108 S 
ATOM      6  C   UNL     1       8.978   1.706  23.765  0.00  0.00    +0.092 C 
ATOM      7  C   UNL     1       8.622   0.557  22.813  0.00  0.00    +0.236 C 
ATOM      8  O   UNL     1       8.788   0.671  21.593  0.00  0.00    -0.274 OA
ATOM      9  C   UNL     1       9.135   3.030  23.004  0.00  0.00    +0.032 C 
ATOM     10  C   UNL     1      10.309   1.374  24.462  0.00  0.00    +0.032 C 
ATOM     11  C   UNL     1       6.993   0.091  26.805  0.00  0.00    +0.017 A 
ATOM     12  N   UNL     1       8.339  -0.693  23.388  0.00  0.00    -0.268 N 
ATOM     13  C   UNL     1       6.768  -1.187  27.312  0.00  0.00    +0.010 A 
ENDROOT
BRANCH   1  15
ATOM     14  C   UNL     1       7.332  -4.782  27.062  0.00  0.00    +0.056 A 
ATOM     15  C   UNL     1       6.451  -3.687  26.972  0.00  0.00    +0.043 A 
ATOM     16  C   UNL     1       5.148  -3.998  27.399  0.00  0.00    +0.129 A 
ATOM     17  N   UNL     1       4.763  -5.200  27.861  0.00  0.00    -0.199 NA
ATOM     18  C   UNL     1       5.681  -6.155  27.899  0.00  0.00    +0.214 A 
ATOM     19  N   UNL     1       5.310  -7.403  28.351  0.00  0.00    -0.327 N 
ATOM     20  H   UNL     1       4.318  -7.530  28.229  0.00  0.00    +0.145 HD
ATOM     21  H   UNL     1       5.925  -8.101  27.952  0.00  0.00    +0.145 HD
ATOM     22  N   UNL     1       6.933  -6.005  27.488  0.00  0.00    -0.219 NA
BRANCH  16  23
ATOM     23  N   UNL     1       4.113  -3.063  27.432  0.00  0.00    -0.343 N 
ATOM     24  H   UNL     1       3.507  -3.158  28.239  0.00  0.00    +0.144 HD
ATOM     25  H   UNL     1       4.525  -2.134  27.385  0.00  0.00    +0.144 HD
ENDBRANCH  16  23
BRANCH  14  27
ATOM     26  C   UNL     1       9.080  -5.324  25.266  0.00  0.00    +0.010 C 
ATOM     27  C   UNL     1       8.790  -4.747  26.650  0.00  0.00    +0.053 C 
ENDBRANCH  14  27
ENDBRANCH   1  15
BRANCH  12  28
ATOM     28  C   UNL     1       8.877  -1.849  22.643  0.00  0.00    +0.132 C 
BRANCH  28  29
ATOM     29  C   UNL     1       7.765  -2.576  21.844  0.00  0.00    +0.123 C 
BRANCH  29  30
ATOM     30  N   UNL     1       7.579  -3.966  22.217  0.00  0.00    -0.314 N 
ATOM     31  H   UNL     1       8.231  -4.375  22.874  0.00  0.00    +0.149 HD
ATOM     32  C   UNL     1       6.500  -4.697  21.779  0.00  0.00    +0.210 C 
ATOM     33  O   UNL     1       5.661  -4.260  20.996  0.00  0.00    -0.276 OA
ATOM     34  C   UNL     1       6.416  -6.089  22.349  0.00  0.00    +0.109 C 
ENDBRANCH  29  30
ENDBRANCH  28  29
ENDBRANCH  12  28
TORSDOF 6
ENDMDL
