MODEL 1
REMARK VINA RESULT:      -7.0      0.000      0.000
REMARK  Name = 
REMARK  20 active torsions:
REMARK  status: ('A' for Active; 'I' for Inactive)
REMARK    1  A    between atoms: C_1  and  C_2
REMARK    2  A    between atoms: C_2  and  O_3
REMARK    3  A    between atoms: O_3  and  C_4
REMARK    4  A    between atoms: C_4  and  C_6
REMARK    5  A    between atoms: C_7  and  C_8
REMARK    6  A    between atoms: C_8  and  C_10
REMARK    7  A    between atoms: C_8  and  N_18
REMARK    8  A    between atoms: C_10  and  C_11
REMARK    9  A    between atoms: C_19  and  C_21
REMARK   10  A    between atoms: C_21  and  C_23
REMARK   11  A    between atoms: C_21  and  C_40
REMARK   12  A    between atoms: C_23  and  C_24
REMARK   13  A    between atoms: C_24  and  C_26
REMARK   14  A    between atoms: C_26  and  C_28
REMARK   15  A    between atoms: C_26  and  N_31
REMARK   16  A    between atoms: C_28  and  C_29
REMARK   17  A    between atoms: C_28  and  C_30
REMARK   18  A    between atoms: C_32  and  C_34
REMARK   19  A    between atoms: C_37  and  C_38
REMARK   20  A    between atoms: C_40  and  C_41
REMARK                            x       y       z     vdW  Elec       q    Type
REMARK                         _______ _______ _______ _____ _____    ______ ____
ROOT
ATOM      1  C   UNL     1       8.833  -2.559  23.614  0.00  0.00    +0.086 C 
ENDROOT
BRANCH   1   4
ATOM      2  N   UNL     1       7.252  -0.969  24.618  0.00  0.00    -0.309 N 
ATOM      3  H   UNL     1       6.765  -1.064  23.745  0.00  0.00    +0.149 HD
ATOM      4  C   UNL     1       8.258  -1.874  24.871  0.00  0.00    +0.217 C 
ATOM      5  O   UNL     1       8.745  -2.047  25.985  0.00  0.00    -0.275 OA
BRANCH   2   6
ATOM      6  C   UNL     1       6.490  -0.266  25.637  0.00  0.00    +0.097 C 
BRANCH   6   8
ATOM      7  C   UNL     1       4.306  -0.829  26.774  0.00  0.00    +0.089 C 
ATOM      8  C   UNL     1       5.329  -1.177  25.974  0.00  0.00    +0.002 C 
BRANCH   7   9
ATOM      9  C   UNL     1       3.182  -1.756  27.014  0.00  0.00    +0.332 C 
ATOM     10  O   UNL     1       2.712  -2.029  28.104  0.00  0.00    -0.246 OA
BRANCH   9  11
ATOM     11  O   UNL     1       2.856  -2.302  25.817  0.00  0.00    -0.462 OA
BRANCH  11  13
ATOM     12  C   UNL     1       2.434  -4.604  25.367  0.00  0.00    +0.048 C 
ATOM     13  C   UNL     1       1.832  -3.302  25.866  0.00  0.00    +0.229 C 
ENDBRANCH  11  13
ENDBRANCH   9  11
ENDBRANCH   7   9
ENDBRANCH   6   8
BRANCH   6  14
ATOM     14  C   UNL     1       6.034   1.102  25.103  0.00  0.00    +0.039 C 
BRANCH  14  15
ATOM     15  C   UNL     1       7.147   1.966  24.501  0.00  0.00    +0.078 C 
ATOM     16  C   UNL     1       6.628   2.808  23.354  0.00  0.00    +0.216 C 
ATOM     17  O   UNL     1       6.424   2.428  22.215  0.00  0.00    -0.276 OA
ATOM     18  N   UNL     1       6.368   4.074  23.833  0.00  0.00    -0.315 N 
ATOM     19  H   UNL     1       5.909   4.763  23.252  0.00  0.00    +0.149 HD
ATOM     20  C   UNL     1       6.627   4.190  25.235  0.00  0.00    +0.105 C 
ATOM     21  C   UNL     1       7.593   3.049  25.496  0.00  0.00    +0.031 C 
ENDBRANCH  14  15
ENDBRANCH   6  14
ENDBRANCH   2   6
ENDBRANCH   1   4
BRANCH   1  22
ATOM     22  C   UNL     1      10.175  -1.955  23.151  0.00  0.00    +0.048 C 
BRANCH  22  23
ATOM     23  C   UNL     1      10.240  -0.456  23.129  0.00  0.00    -0.046 A 
ATOM     24  C   UNL     1       9.842   0.256  21.989  0.00  0.00    +0.006 A 
ATOM     25  C   UNL     1       9.911   1.646  21.979  0.00  0.00    +0.038 A 
ATOM     26  C   UNL     1      10.387   2.317  23.100  0.00  0.00    +0.123 A 
ATOM     27  F   UNL     1      10.447   3.654  23.090  0.00  0.00    -0.205 F 
ATOM     28  C   UNL     1      10.801   1.622  24.230  0.00  0.00    +0.038 A 
ATOM     29  C   UNL     1      10.727   0.233  24.246  0.00  0.00    +0.006 A 
ENDBRANCH  22  23
ENDBRANCH   1  22
BRANCH   1  30
ATOM     30  C   UNL     1       7.768  -2.604  22.498  0.00  0.00    +0.089 C 
BRANCH  30  31
ATOM     31  C   UNL     1       6.529  -3.399  22.885  0.00  0.00    +0.154 C 
ATOM     32  O   UNL     1       5.405  -2.877  22.838  0.00  0.00    -0.295 OA
BRANCH  31  33
ATOM     33  C   UNL     1       6.688  -4.823  23.443  0.00  0.00    +0.142 C 
BRANCH  33  34
ATOM     34  N   UNL     1       6.260  -4.918  24.834  0.00  0.00    -0.300 N 
ATOM     35  H   UNL     1       5.327  -4.649  25.133  0.00  0.00    +0.150 HD
ATOM     36  C   UNL     1       7.164  -5.263  25.828  0.00  0.00    +0.266 C 
ATOM     37  O   UNL     1       8.345  -5.508  25.587  0.00  0.00    -0.268 OA
BRANCH  36  38
ATOM     38  C   UNL     1       6.630  -5.288  27.186  0.00  0.00    +0.168 A 
ATOM     39  C   UNL     1       5.535  -4.531  27.672  0.00  0.00    +0.080 A 
ATOM     40  C   UNL     1       5.402  -4.912  28.981  0.00  0.00    +0.135 A 
ATOM     41  C   UNL     1       4.458  -4.548  30.054  0.00  0.00    +0.089 C 
ATOM     42  O   UNL     1       6.367  -5.823  29.281  0.00  0.00    -0.359 OA
ATOM     43  N   UNL     1       7.140  -6.070  28.155  0.00  0.00    -0.073 NA
ENDBRANCH  36  38
ENDBRANCH  33  34
BRANCH  33  44
ATOM     44  C   UNL     1       6.053  -5.914  22.545  0.00  0.00    +0.010 C 
ATOM     45  C   UNL     1       6.383  -5.681  21.066  0.00  0.00    +0.009 C 
ATOM     46  C   UNL     1       4.543  -6.093  22.709  0.00  0.00    +0.009 C 
ENDBRANCH  33  44
ENDBRANCH  31  33
ENDBRANCH  30  31
ENDBRANCH   1  30
TORSDOF 16
ENDMDL
MODEL 2
REMARK VINA RESULT:      -6.7      2.791      8.064
REMARK  Name = 
REMARK  20 active torsions:
REMARK  status: ('A' for Active; 'I' for Inactive)
REMARK    1  A    between atoms: C_1  and  C_2
REMARK    2  A    between atoms: C_2  and  O_3
REMARK    3  A    between atoms: O_3  and  C_4
REMARK    4  A    between atoms: C_4  and  C_6
REMARK    5  A    between atoms: C_7  and  C_8
REMARK    6  A    between atoms: C_8  and  C_10
REMARK    7  A    between atoms: C_8  and  N_18
REMARK    8  A    between atoms: C_10  and  C_11
REMARK    9  A    between atoms: C_19  and  C_21
REMARK   10  A    between atoms: C_21  and  C_23
REMARK   11  A    between atoms: C_21  and  C_40
REMARK   12  A    between atoms: C_23  and  C_24
REMARK   13  A    between atoms: C_24  and  C_26
REMARK   14  A    between atoms: C_26  and  C_28
REMARK   15  A    between atoms: C_26  and  N_31
REMARK   16  A    between atoms: C_28  and  C_29
REMARK   17  A    between atoms: C_28  and  C_30
REMARK   18  A    between atoms: C_32  and  C_34
REMARK   19  A    between atoms: C_37  and  C_38
REMARK   20  A    between atoms: C_40  and  C_41
REMARK                            x       y       z     vdW  Elec       q    Type
REMARK                         _______ _______ _______ _____ _____    ______ ____
ROOT
ATOM      1  C   UNL     1       6.225  -1.972  25.080  0.00  0.00    +0.086 C 
ENDROOT
BRANCH   1   4
ATOM      2  N   UNL     1       4.504  -3.576  25.787  0.00  0.00    -0.309 N 
ATOM      3  H   UNL     1       5.262  -4.234  25.776  0.00  0.00    +0.149 HD
ATOM      4  C   UNL     1       4.835  -2.244  25.692  0.00  0.00    +0.217 C 
ATOM      5  O   UNL     1       4.056  -1.334  25.961  0.00  0.00    -0.275 OA
BRANCH   2   6
ATOM      6  C   UNL     1       3.296  -4.090  26.411  0.00  0.00    +0.097 C 
BRANCH   6   8
ATOM      7  C   UNL     1       4.989  -5.341  27.808  0.00  0.00    +0.089 C 
ATOM      8  C   UNL     1       3.760  -4.815  27.656  0.00  0.00    +0.002 C 
BRANCH   7   9
ATOM      9  C   UNL     1       5.385  -5.989  29.074  0.00  0.00    +0.332 C 
ATOM     10  O   UNL     1       6.345  -5.677  29.757  0.00  0.00    -0.246 OA
BRANCH   9  11
ATOM     11  O   UNL     1       4.546  -7.036  29.263  0.00  0.00    -0.462 OA
BRANCH  11  13
ATOM     12  C   UNL     1       2.412  -7.628  30.145  0.00  0.00    +0.048 C 
ATOM     13  C   UNL     1       3.744  -6.964  30.448  0.00  0.00    +0.229 C 
ENDBRANCH  11  13
ENDBRANCH   9  11
ENDBRANCH   7   9
ENDBRANCH   6   8
BRANCH   6  14
ATOM     14  C   UNL     1       2.549  -5.012  25.432  0.00  0.00    +0.039 C 
BRANCH  14  15
ATOM     15  C   UNL     1       3.414  -5.608  24.317  0.00  0.00    +0.078 C 
ATOM     16  C   UNL     1       3.546  -7.110  24.470  0.00  0.00    +0.216 C 
ATOM     17  O   UNL     1       4.287  -7.693  25.240  0.00  0.00    -0.276 OA
ATOM     18  N   UNL     1       2.638  -7.710  23.624  0.00  0.00    -0.315 N 
ATOM     19  H   UNL     1       2.487  -8.709  23.652  0.00  0.00    +0.149 HD
ATOM     20  C   UNL     1       1.848  -6.756  22.908  0.00  0.00    +0.105 C 
ATOM     21  C   UNL     1       2.702  -5.502  22.959  0.00  0.00    +0.031 C 
ENDBRANCH  14  15
ENDBRANCH   6  14
ENDBRANCH   2   6
ENDBRANCH   1   4
BRANCH   1  22
ATOM     22  C   UNL     1       7.057  -3.254  24.862  0.00  0.00    +0.048 C 
BRANCH  22  23
ATOM     23  C   UNL     1       6.788  -3.992  23.584  0.00  0.00    -0.046 A 
ATOM     24  C   UNL     1       7.142  -5.342  23.454  0.00  0.00    +0.006 A 
ATOM     25  C   UNL     1       6.892  -6.015  22.262  0.00  0.00    +0.038 A 
ATOM     26  C   UNL     1       6.301  -5.336  21.202  0.00  0.00    +0.123 A 
ATOM     27  F   UNL     1       6.057  -5.986  20.058  0.00  0.00    -0.205 F 
ATOM     28  C   UNL     1       5.961  -3.992  21.311  0.00  0.00    +0.038 A 
ATOM     29  C   UNL     1       6.203  -3.319  22.504  0.00  0.00    +0.006 A 
ENDBRANCH  22  23
ENDBRANCH   1  22
BRANCH   1  30
ATOM     30  C   UNL     1       6.968  -0.897  25.902  0.00  0.00    +0.089 C 
BRANCH  30  31
ATOM     31  C   UNL     1       8.356  -0.586  25.361  0.00  0.00    +0.154 C 
ATOM     32  O   UNL     1       9.359  -0.733  26.075  0.00  0.00    -0.295 OA
BRANCH  31  33
ATOM     33  C   UNL     1       8.502   0.019  23.955  0.00  0.00    +0.142 C 
BRANCH  33  34
ATOM     34  N   UNL     1       9.379   1.184  23.947  0.00  0.00    -0.300 N 
ATOM     35  H   UNL     1      10.331   1.146  24.298  0.00  0.00    +0.150 HD
ATOM     36  C   UNL     1       8.894   2.428  23.572  0.00  0.00    +0.266 C 
ATOM     37  O   UNL     1       7.727   2.604  23.228  0.00  0.00    -0.268 OA
BRANCH  36  38
ATOM     38  C   UNL     1       9.854   3.526  23.641  0.00  0.00    +0.168 A 
ATOM     39  C   UNL     1      11.211   3.483  23.233  0.00  0.00    +0.080 A 
ATOM     40  C   UNL     1      11.685   4.747  23.468  0.00  0.00    +0.135 A 
ATOM     41  C   UNL     1      12.990   5.398  23.248  0.00  0.00    +0.089 C 
ATOM     42  O   UNL     1      10.691   5.504  24.005  0.00  0.00    -0.359 OA
ATOM     43  N   UNL     1       9.533   4.746  24.111  0.00  0.00    -0.073 NA
ENDBRANCH  36  38
ENDBRANCH  33  34
BRANCH  33  44
ATOM     44  C   UNL     1       8.877  -1.021  22.869  0.00  0.00    +0.010 C 
ATOM     45  C   UNL     1      10.000  -1.948  23.350  0.00  0.00    +0.009 C 
ATOM     46  C   UNL     1       9.249  -0.432  21.508  0.00  0.00    +0.009 C 
ENDBRANCH  33  44
ENDBRANCH  31  33
ENDBRANCH  30  31
ENDBRANCH   1  30
TORSDOF 16
ENDMDL
MODEL 3
REMARK VINA RESULT:      -6.5      2.196      5.348
REMARK  Name = 
REMARK  20 active torsions:
REMARK  status: ('A' for Active; 'I' for Inactive)
REMARK    1  A    between atoms: C_1  and  C_2
REMARK    2  A    between atoms: C_2  and  O_3
REMARK    3  A    between atoms: O_3  and  C_4
REMARK    4  A    between atoms: C_4  and  C_6
REMARK    5  A    between atoms: C_7  and  C_8
REMARK    6  A    between atoms: C_8  and  C_10
REMARK    7  A    between atoms: C_8  and  N_18
REMARK    8  A    between atoms: C_10  and  C_11
REMARK    9  A    between atoms: C_19  and  C_21
REMARK   10  A    between atoms: C_21  and  C_23
REMARK   11  A    between atoms: C_21  and  C_40
REMARK   12  A    between atoms: C_23  and  C_24
REMARK   13  A    between atoms: C_24  and  C_26
REMARK   14  A    between atoms: C_26  and  C_28
REMARK   15  A    between atoms: C_26  and  N_31
REMARK   16  A    between atoms: C_28  and  C_29
REMARK   17  A    between atoms: C_28  and  C_30
REMARK   18  A    between atoms: C_32  and  C_34
REMARK   19  A    between atoms: C_37  and  C_38
REMARK   20  A    between atoms: C_40  and  C_41
REMARK                            x       y       z     vdW  Elec       q    Type
REMARK                         _______ _______ _______ _____ _____    ______ ____
ROOT
ATOM      1  C   UNL     1       8.343  -2.315  23.126  0.00  0.00    +0.086 C 
ENDROOT
BRANCH   1   4
ATOM      2  N   UNL     1       7.189  -0.362  24.068  0.00  0.00    -0.309 N 
ATOM      3  H   UNL     1       8.115  -0.068  24.320  0.00  0.00    +0.149 HD
ATOM      4  C   UNL     1       7.089  -1.420  23.193  0.00  0.00    +0.217 C 
ATOM      5  O   UNL     1       6.055  -1.707  22.596  0.00  0.00    -0.275 OA
BRANCH   2   6
ATOM      6  C   UNL     1       6.183   0.673  24.240  0.00  0.00    +0.097 C 
BRANCH   6   8
ATOM      7  C   UNL     1       6.933   3.069  23.967  0.00  0.00    +0.089 C 
ATOM      8  C   UNL     1       6.680   1.858  23.441  0.00  0.00    +0.002 C 
BRANCH   7   9
ATOM      9  C   UNL     1       7.467   4.163  23.131  0.00  0.00    +0.332 C 
ATOM     10  O   UNL     1       7.151   4.389  21.977  0.00  0.00    -0.246 OA
BRANCH   9  11
ATOM     11  O   UNL     1       8.428   4.783  23.857  0.00  0.00    -0.462 OA
BRANCH  11  13
ATOM     12  C   UNL     1       8.119   7.108  24.283  0.00  0.00    +0.048 C 
ATOM     13  C   UNL     1       8.797   6.085  23.388  0.00  0.00    +0.229 C 
ENDBRANCH  11  13
ENDBRANCH   9  11
ENDBRANCH   7   9
ENDBRANCH   6   8
BRANCH   6  14
ATOM     14  C   UNL     1       6.009   0.995  25.733  0.00  0.00    +0.039 C 
BRANCH  14  15
ATOM     15  C   UNL     1       6.328  -0.161  26.687  0.00  0.00    +0.078 C 
ATOM     16  C   UNL     1       7.750  -0.070  27.202  0.00  0.00    +0.216 C 
ATOM     17  O   UNL     1       8.757  -0.400  26.602  0.00  0.00    -0.276 OA
ATOM     18  N   UNL     1       7.717   0.506  28.454  0.00  0.00    -0.315 N 
ATOM     19  H   UNL     1       8.573   0.759  28.929  0.00  0.00    +0.149 HD
ATOM     20  C   UNL     1       6.392   0.864  28.855  0.00  0.00    +0.105 C 
ATOM     21  C   UNL     1       5.524  -0.031  27.989  0.00  0.00    +0.031 C 
ENDBRANCH  14  15
ENDBRANCH   6  14
ENDBRANCH   2   6
ENDBRANCH   1   4
BRANCH   1  22
ATOM     22  C   UNL     1       9.469  -1.724  22.251  0.00  0.00    +0.048 C 
BRANCH  22  23
ATOM     23  C   UNL     1       9.917  -0.340  22.618  0.00  0.00    -0.046 A 
ATOM     24  C   UNL     1      10.501  -0.088  23.867  0.00  0.00    +0.006 A 
ATOM     25  C   UNL     1      10.908   1.200  24.199  0.00  0.00    +0.038 A 
ATOM     26  C   UNL     1      10.721   2.234  23.287  0.00  0.00    +0.123 A 
ATOM     27  F   UNL     1      11.118   3.472  23.605  0.00  0.00    -0.205 F 
ATOM     28  C   UNL     1      10.128   2.002  22.051  0.00  0.00    +0.038 A 
ATOM     29  C   UNL     1       9.726   0.714  21.715  0.00  0.00    +0.006 A 
ENDBRANCH  22  23
ENDBRANCH   1  22
BRANCH   1  30
ATOM     30  C   UNL     1       7.951  -3.753  22.723  0.00  0.00    +0.089 C 
BRANCH  30  31
ATOM     31  C   UNL     1       7.942  -4.721  23.897  0.00  0.00    +0.154 C 
ATOM     32  O   UNL     1       8.781  -5.631  23.971  0.00  0.00    -0.295 OA
BRANCH  31  33
ATOM     33  C   UNL     1       6.815  -4.634  24.940  0.00  0.00    +0.142 C 
BRANCH  33  34
ATOM     34  N   UNL     1       5.733  -5.572  24.658  0.00  0.00    -0.300 N 
ATOM     35  H   UNL     1       5.869  -6.578  24.687  0.00  0.00    +0.150 HD
ATOM     36  C   UNL     1       4.502  -5.114  24.213  0.00  0.00    +0.266 C 
ATOM     37  O   UNL     1       4.265  -3.919  24.046  0.00  0.00    -0.268 OA
BRANCH  36  38
ATOM     38  C   UNL     1       3.511  -6.147  23.927  0.00  0.00    +0.168 A 
ATOM     39  C   UNL     1       3.200  -7.262  24.745  0.00  0.00    +0.080 A 
ATOM     40  C   UNL     1       2.203  -7.919  24.073  0.00  0.00    +0.135 A 
ATOM     41  C   UNL     1       1.406  -9.126  24.365  0.00  0.00    +0.089 C 
ATOM     42  O   UNL     1       1.939  -7.262  22.911  0.00  0.00    -0.359 OA
ATOM     43  N   UNL     1       2.753  -6.142  22.815  0.00  0.00    -0.073 NA
ENDBRANCH  36  38
ENDBRANCH  33  34
BRANCH  33  44
ATOM     44  C   UNL     1       7.316  -4.720  26.402  0.00  0.00    +0.010 C 
ATOM     45  C   UNL     1       6.231  -4.277  27.391  0.00  0.00    +0.009 C 
ATOM     46  C   UNL     1       8.611  -3.958  26.691  0.00  0.00    +0.009 C 
ENDBRANCH  33  44
ENDBRANCH  31  33
ENDBRANCH  30  31
ENDBRANCH   1  30
TORSDOF 16
ENDMDL
MODEL 4
REMARK VINA RESULT:      -6.5      3.141      7.605
REMARK  Name = 
REMARK  20 active torsions:
REMARK  status: ('A' for Active; 'I' for Inactive)
REMARK    1  A    between atoms: C_1  and  C_2
REMARK    2  A    between atoms: C_2  and  O_3
REMARK    3  A    between atoms: O_3  and  C_4
REMARK    4  A    between atoms: C_4  and  C_6
REMARK    5  A    between atoms: C_7  and  C_8
REMARK    6  A    between atoms: C_8  and  C_10
REMARK    7  A    between atoms: C_8  and  N_18
REMARK    8  A    between atoms: C_10  and  C_11
REMARK    9  A    between atoms: C_19  and  C_21
REMARK   10  A    between atoms: C_21  and  C_23
REMARK   11  A    between atoms: C_21  and  C_40
REMARK   12  A    between atoms: C_23  and  C_24
REMARK   13  A    between atoms: C_24  and  C_26
REMARK   14  A    between atoms: C_26  and  C_28
REMARK   15  A    between atoms: C_26  and  N_31
REMARK   16  A    between atoms: C_28  and  C_29
REMARK   17  A    between atoms: C_28  and  C_30
REMARK   18  A    between atoms: C_32  and  C_34
REMARK   19  A    between atoms: C_37  and  C_38
REMARK   20  A    between atoms: C_40  and  C_41
REMARK                            x       y       z     vdW  Elec       q    Type
REMARK                         _______ _______ _______ _____ _____    ______ ____
ROOT
ATOM      1  C   UNL     1       7.810  -2.381  25.250  0.00  0.00    +0.086 C 
ENDROOT
BRANCH   1   4
ATOM      2  N   UNL     1       6.023  -3.628  26.384  0.00  0.00    -0.309 N 
ATOM      3  H   UNL     1       5.481  -3.380  25.576  0.00  0.00    +0.149 HD
ATOM      4  C   UNL     1       7.380  -3.414  26.312  0.00  0.00    +0.217 C 
ATOM      5  O   UNL     1       8.185  -3.911  27.096  0.00  0.00    -0.275 OA
BRANCH   2   6
ATOM      6  C   UNL     1       5.381  -4.616  27.235  0.00  0.00    +0.097 C 
BRANCH   6   8
ATOM      7  C   UNL     1       4.617  -5.395  24.957  0.00  0.00    +0.089 C 
ATOM      8  C   UNL     1       4.634  -5.536  26.294  0.00  0.00    +0.002 C 
BRANCH   7   9
ATOM      9  C   UNL     1       3.906  -6.366  24.100  0.00  0.00    +0.332 C 
ATOM     10  O   UNL     1       3.406  -6.119  23.017  0.00  0.00    -0.246 OA
BRANCH   9  11
ATOM     11  O   UNL     1       3.839  -7.529  24.792  0.00  0.00    -0.462 OA
BRANCH  11  13
ATOM     12  C   UNL     1       1.677  -7.678  25.785  0.00  0.00    +0.048 C 
ATOM     13  C   UNL     1       2.587  -8.219  24.696  0.00  0.00    +0.229 C 
ENDBRANCH  11  13
ENDBRANCH   9  11
ENDBRANCH   7   9
ENDBRANCH   6   8
BRANCH   6  14
ATOM     14  C   UNL     1       4.453  -3.919  28.244  0.00  0.00    +0.039 C 
BRANCH  14  15
ATOM     15  C   UNL     1       4.255  -2.418  28.012  0.00  0.00    +0.078 C 
ATOM     16  C   UNL     1       3.096  -2.156  27.073  0.00  0.00    +0.216 C 
ATOM     17  O   UNL     1       3.115  -2.255  25.859  0.00  0.00    -0.276 OA
ATOM     18  N   UNL     1       1.990  -1.839  27.832  0.00  0.00    -0.315 N 
ATOM     19  H   UNL     1       1.080  -1.736  27.404  0.00  0.00    +0.149 HD
ATOM     20  C   UNL     1       2.261  -1.890  29.236  0.00  0.00    +0.105 C 
ATOM     21  C   UNL     1       3.769  -1.727  29.295  0.00  0.00    +0.031 C 
ENDBRANCH  14  15
ENDBRANCH   6  14
ENDBRANCH   2   6
ENDBRANCH   1   4
BRANCH   1  22
ATOM     22  C   UNL     1       8.598  -3.003  24.077  0.00  0.00    +0.048 C 
BRANCH  22  23
ATOM     23  C   UNL     1       7.798  -3.854  23.136  0.00  0.00    -0.046 A 
ATOM     24  C   UNL     1       6.879  -3.268  22.254  0.00  0.00    +0.006 A 
ATOM     25  C   UNL     1       6.138  -4.068  21.389  0.00  0.00    +0.038 A 
ATOM     26  C   UNL     1       6.310  -5.447  21.415  0.00  0.00    +0.123 A 
ATOM     27  F   UNL     1       5.601  -6.215  20.578  0.00  0.00    -0.205 F 
ATOM     28  C   UNL     1       7.205  -6.043  22.296  0.00  0.00    +0.038 A 
ATOM     29  C   UNL     1       7.952  -5.246  23.157  0.00  0.00    +0.006 A 
ENDBRANCH  22  23
ENDBRANCH   1  22
BRANCH   1  30
ATOM     30  C   UNL     1       8.546  -1.202  25.921  0.00  0.00    +0.089 C 
BRANCH  30  31
ATOM     31  C   UNL     1       9.342  -0.358  24.936  0.00  0.00    +0.154 C 
ATOM     32  O   UNL     1      10.567  -0.516  24.815  0.00  0.00    -0.295 OA
BRANCH  31  33
ATOM     33  C   UNL     1       8.638   0.773  24.168  0.00  0.00    +0.142 C 
BRANCH  33  34
ATOM     34  N   UNL     1       9.551   1.861  23.836  0.00  0.00    -0.300 N 
ATOM     35  H   UNL     1      10.433   1.700  23.359  0.00  0.00    +0.150 HD
ATOM     36  C   UNL     1       9.299   3.152  24.276  0.00  0.00    +0.266 C 
ATOM     37  O   UNL     1       8.309   3.437  24.949  0.00  0.00    -0.268 OA
BRANCH  36  38
ATOM     38  C   UNL     1      10.302   4.149  23.914  0.00  0.00    +0.168 A 
ATOM     39  C   UNL     1      11.568   3.894  23.330  0.00  0.00    +0.080 A 
ATOM     40  C   UNL     1      12.128   5.133  23.159  0.00  0.00    +0.135 A 
ATOM     41  C   UNL     1      13.404   5.599  22.584  0.00  0.00    +0.089 C 
ATOM     42  O   UNL     1      11.271   6.079  23.628  0.00  0.00    -0.359 OA
ATOM     43  N   UNL     1      10.117   5.469  24.100  0.00  0.00    -0.073 NA
ENDBRANCH  36  38
ENDBRANCH  33  34
BRANCH  33  44
ATOM     44  C   UNL     1       7.825   0.279  22.946  0.00  0.00    +0.010 C 
ATOM     45  C   UNL     1       8.740  -0.031  21.755  0.00  0.00    +0.009 C 
ATOM     46  C   UNL     1       6.699   1.211  22.495  0.00  0.00    +0.009 C 
ENDBRANCH  33  44
ENDBRANCH  31  33
ENDBRANCH  30  31
ENDBRANCH   1  30
TORSDOF 16
ENDMDL
MODEL 5
REMARK VINA RESULT:      -6.5      2.708      7.898
REMARK  Name = 
REMARK  20 active torsions:
REMARK  status: ('A' for Active; 'I' for Inactive)
REMARK    1  A    between atoms: C_1  and  C_2
REMARK    2  A    between atoms: C_2  and  O_3
REMARK    3  A    between atoms: O_3  and  C_4
REMARK    4  A    between atoms: C_4  and  C_6
REMARK    5  A    between atoms: C_7  and  C_8
REMARK    6  A    between atoms: C_8  and  C_10
REMARK    7  A    between atoms: C_8  and  N_18
REMARK    8  A    between atoms: C_10  and  C_11
REMARK    9  A    between atoms: C_19  and  C_21
REMARK   10  A    between atoms: C_21  and  C_23
REMARK   11  A    between atoms: C_21  and  C_40
REMARK   12  A    between atoms: C_23  and  C_24
REMARK   13  A    between atoms: C_24  and  C_26
REMARK   14  A    between atoms: C_26  and  C_28
REMARK   15  A    between atoms: C_26  and  N_31
REMARK   16  A    between atoms: C_28  and  C_29
REMARK   17  A    between atoms: C_28  and  C_30
REMARK   18  A    between atoms: C_32  and  C_34
REMARK   19  A    between atoms: C_37  and  C_38
REMARK   20  A    between atoms: C_40  and  C_41
REMARK                            x       y       z     vdW  Elec       q    Type
REMARK                         _______ _______ _______ _____ _____    ______ ____
ROOT
ATOM      1  C   UNL     1       5.683  -2.170  25.212  0.00  0.00    +0.086 C 
ENDROOT
BRANCH   1   4
ATOM      2  N   UNL     1       3.952  -3.797  25.837  0.00  0.00    -0.309 N 
ATOM      3  H   UNL     1       4.689  -4.469  25.716  0.00  0.00    +0.149 HD
ATOM      4  C   UNL     1       4.319  -2.471  25.865  0.00  0.00    +0.217 C 
ATOM      5  O   UNL     1       3.581  -1.575  26.269  0.00  0.00    -0.275 OA
BRANCH   2   6
ATOM      6  C   UNL     1       2.762  -4.345  26.466  0.00  0.00    +0.097 C 
BRANCH   6   8
ATOM      7  C   UNL     1       3.209  -6.347  27.939  0.00  0.00    +0.089 C 
ATOM      8  C   UNL     1       3.247  -5.019  27.731  0.00  0.00    +0.002 C 
BRANCH   7   9
ATOM      9  C   UNL     1       3.751  -6.936  29.181  0.00  0.00    +0.332 C 
ATOM     10  O   UNL     1       3.182  -6.959  30.258  0.00  0.00    -0.246 OA
BRANCH   9  11
ATOM     11  O   UNL     1       5.015  -7.342  28.908  0.00  0.00    -0.462 OA
BRANCH  11  13
ATOM     12  C   UNL     1       6.729  -5.869  28.150  0.00  0.00    +0.048 C 
ATOM     13  C   UNL     1       6.046  -6.462  29.371  0.00  0.00    +0.229 C 
ENDBRANCH  11  13
ENDBRANCH   9  11
ENDBRANCH   7   9
ENDBRANCH   6   8
BRANCH   6  14
ATOM     14  C   UNL     1       2.060  -5.320  25.506  0.00  0.00    +0.039 C 
BRANCH  14  15
ATOM     15  C   UNL     1       2.848  -5.658  24.236  0.00  0.00    +0.078 C 
ATOM     16  C   UNL     1       3.303  -7.103  24.242  0.00  0.00    +0.216 C 
ATOM     17  O   UNL     1       4.255  -7.557  24.852  0.00  0.00    -0.276 OA
ATOM     18  N   UNL     1       2.418  -7.836  23.481  0.00  0.00    -0.315 N 
ATOM     19  H   UNL     1       2.478  -8.845  23.445  0.00  0.00    +0.149 HD
ATOM     20  C   UNL     1       1.352  -7.035  22.964  0.00  0.00    +0.105 C 
ATOM     21  C   UNL     1       1.932  -5.633  23.003  0.00  0.00    +0.031 C 
ENDBRANCH  14  15
ENDBRANCH   6  14
ENDBRANCH   2   6
ENDBRANCH   1   4
BRANCH   1  22
ATOM     22  C   UNL     1       6.543  -3.432  24.987  0.00  0.00    +0.048 C 
BRANCH  22  23
ATOM     23  C   UNL     1       6.416  -4.071  23.636  0.00  0.00    -0.046 A 
ATOM     24  C   UNL     1       6.073  -3.303  22.515  0.00  0.00    +0.006 A 
ATOM     25  C   UNL     1       5.953  -3.908  21.267  0.00  0.00    +0.038 A 
ATOM     26  C   UNL     1       6.165  -5.277  21.146  0.00  0.00    +0.123 A 
ATOM     27  F   UNL     1       6.054  -5.857  19.945  0.00  0.00    -0.205 F 
ATOM     28  C   UNL     1       6.488  -6.054  22.253  0.00  0.00    +0.038 A 
ATOM     29  C   UNL     1       6.616  -5.451  23.500  0.00  0.00    +0.006 A 
ENDBRANCH  22  23
ENDBRANCH   1  22
BRANCH   1  30
ATOM     30  C   UNL     1       6.419  -1.065  26.000  0.00  0.00    +0.089 C 
BRANCH  30  31
ATOM     31  C   UNL     1       7.916  -1.037  25.733  0.00  0.00    +0.154 C 
ATOM     32  O   UNL     1       8.726  -1.221  26.655  0.00  0.00    -0.295 OA
BRANCH  31  33
ATOM     33  C   UNL     1       8.427  -0.670  24.330  0.00  0.00    +0.142 C 
BRANCH  33  34
ATOM     34  N   UNL     1       8.472   0.773  24.123  0.00  0.00    -0.300 N 
ATOM     35  H   UNL     1       9.097   1.376  24.649  0.00  0.00    +0.150 HD
ATOM     36  C   UNL     1       7.562   1.392  23.279  0.00  0.00    +0.266 C 
ATOM     37  O   UNL     1       6.695   0.766  22.672  0.00  0.00    -0.268 OA
BRANCH  36  38
ATOM     38  C   UNL     1       7.678   2.844  23.181  0.00  0.00    +0.168 A 
ATOM     39  C   UNL     1       7.155   3.661  22.148  0.00  0.00    +0.080 A 
ATOM     40  C   UNL     1       7.496   4.938  22.507  0.00  0.00    +0.135 A 
ATOM     41  C   UNL     1       7.245   6.263  21.908  0.00  0.00    +0.089 C 
ATOM     42  O   UNL     1       8.202   4.902  23.670  0.00  0.00    -0.359 OA
ATOM     43  N   UNL     1       8.315   3.589  24.104  0.00  0.00    -0.073 NA
ENDBRANCH  36  38
ENDBRANCH  33  34
BRANCH  33  44
ATOM     44  C   UNL     1       9.756  -1.370  23.952  0.00  0.00    +0.010 C 
ATOM     45  C   UNL     1      10.202  -0.993  22.534  0.00  0.00    +0.009 C 
ATOM     46  C   UNL     1       9.752  -2.893  24.096  0.00  0.00    +0.009 C 
ENDBRANCH  33  44
ENDBRANCH  31  33
ENDBRANCH  30  31
ENDBRANCH   1  30
TORSDOF 16
ENDMDL
MODEL 6
REMARK VINA RESULT:      -6.4      2.309      3.768
REMARK  Name = 
REMARK  20 active torsions:
REMARK  status: ('A' for Active; 'I' for Inactive)
REMARK    1  A    between atoms: C_1  and  C_2
REMARK    2  A    between atoms: C_2  and  O_3
REMARK    3  A    between atoms: O_3  and  C_4
REMARK    4  A    between atoms: C_4  and  C_6
REMARK    5  A    between atoms: C_7  and  C_8
REMARK    6  A    between atoms: C_8  and  C_10
REMARK    7  A    between atoms: C_8  and  N_18
REMARK    8  A    between atoms: C_10  and  C_11
REMARK    9  A    between atoms: C_19  and  C_21
REMARK   10  A    between atoms: C_21  and  C_23
REMARK   11  A    between atoms: C_21  and  C_40
REMARK   12  A    between atoms: C_23  and  C_24
REMARK   13  A    between atoms: C_24  and  C_26
REMARK   14  A    between atoms: C_26  and  C_28
REMARK   15  A    between atoms: C_26  and  N_31
REMARK   16  A    between atoms: C_28  and  C_29
REMARK   17  A    between atoms: C_28  and  C_30
REMARK   18  A    between atoms: C_32  and  C_34
REMARK   19  A    between atoms: C_37  and  C_38
REMARK   20  A    between atoms: C_40  and  C_41
REMARK                            x       y       z     vdW  Elec       q    Type
REMARK                         _______ _______ _______ _____ _____    ______ ____
ROOT
ATOM      1  C   UNL     1       8.452   1.921  25.013  0.00  0.00    +0.086 C 
ENDROOT
BRANCH   1   4
ATOM      2  N   UNL     1       6.026   2.075  25.364  0.00  0.00    -0.309 N 
ATOM      3  H   UNL     1       6.008   1.187  24.895  0.00  0.00    +0.149 HD
ATOM      4  C   UNL     1       7.257   2.541  25.765  0.00  0.00    +0.217 C 
ATOM      5  O   UNL     1       7.402   3.457  26.570  0.00  0.00    -0.275 OA
BRANCH   2   6
ATOM      6  C   UNL     1       4.759   2.434  25.980  0.00  0.00    +0.097 C 
BRANCH   6   8
ATOM      7  C   UNL     1       4.901  -0.010  26.602  0.00  0.00    +0.089 C 
ATOM      8  C   UNL     1       4.229   1.155  26.591  0.00  0.00    +0.002 C 
BRANCH   7   9
ATOM      9  C   UNL     1       4.339  -1.203  27.266  0.00  0.00    +0.332 C 
ATOM     10  O   UNL     1       3.565  -1.190  28.206  0.00  0.00    -0.246 OA
BRANCH   9  11
ATOM     11  O   UNL     1       4.924  -2.285  26.696  0.00  0.00    -0.462 OA
BRANCH  11  13
ATOM     12  C   UNL     1       3.261  -3.401  25.403  0.00  0.00    +0.048 C 
ATOM     13  C   UNL     1       4.520  -2.553  25.348  0.00  0.00    +0.229 C 
ENDBRANCH  11  13
ENDBRANCH   9  11
ENDBRANCH   7   9
ENDBRANCH   6   8
BRANCH   6  14
ATOM     14  C   UNL     1       3.809   3.025  24.924  0.00  0.00    +0.039 C 
BRANCH  14  15
ATOM     15  C   UNL     1       4.436   4.081  24.009  0.00  0.00    +0.078 C 
ATOM     16  C   UNL     1       4.680   3.528  22.620  0.00  0.00    +0.216 C 
ATOM     17  O   UNL     1       5.604   2.810  22.282  0.00  0.00    -0.276 OA
ATOM     18  N   UNL     1       3.641   3.929  21.808  0.00  0.00    -0.315 N 
ATOM     19  H   UNL     1       3.554   3.574  20.865  0.00  0.00    +0.149 HD
ATOM     20  C   UNL     1       2.661   4.693  22.515  0.00  0.00    +0.105 C 
ATOM     21  C   UNL     1       3.435   5.210  23.714  0.00  0.00    +0.031 C 
ENDBRANCH  14  15
ENDBRANCH   6  14
ENDBRANCH   2   6
ENDBRANCH   1   4
BRANCH   1  22
ATOM     22  C   UNL     1       8.737   2.597  23.655  0.00  0.00    +0.048 C 
BRANCH  22  23
ATOM     23  C   UNL     1       9.795   3.661  23.669  0.00  0.00    -0.046 A 
ATOM     24  C   UNL     1      11.115   3.356  23.311  0.00  0.00    +0.006 A 
ATOM     25  C   UNL     1      12.090   4.349  23.332  0.00  0.00    +0.038 A 
ATOM     26  C   UNL     1      11.744   5.639  23.722  0.00  0.00    +0.123 A 
ATOM     27  F   UNL     1      12.681   6.595  23.737  0.00  0.00    -0.205 F 
ATOM     28  C   UNL     1      10.443   5.952  24.097  0.00  0.00    +0.038 A 
ATOM     29  C   UNL     1       9.466   4.962  24.070  0.00  0.00    +0.006 A 
ENDBRANCH  22  23
ENDBRANCH   1  22
BRANCH   1  30
ATOM     30  C   UNL     1       8.278   0.391  24.906  0.00  0.00    +0.089 C 
BRANCH  30  31
ATOM     31  C   UNL     1       9.598  -0.352  24.759  0.00  0.00    +0.154 C 
ATOM     32  O   UNL     1      10.671   0.207  25.033  0.00  0.00    -0.295 OA
BRANCH  31  33
ATOM     33  C   UNL     1       9.606  -1.769  24.163  0.00  0.00    +0.142 C 
BRANCH  33  34
ATOM     34  N   UNL     1       8.662  -2.653  24.838  0.00  0.00    -0.300 N 
ATOM     35  H   UNL     1       7.788  -2.315  25.229  0.00  0.00    +0.150 HD
ATOM     36  C   UNL     1       8.989  -3.979  25.082  0.00  0.00    +0.266 C 
ATOM     37  O   UNL     1      10.067  -4.465  24.741  0.00  0.00    -0.268 OA
BRANCH  36  38
ATOM     38  C   UNL     1       7.983  -4.756  25.799  0.00  0.00    +0.168 A 
ATOM     39  C   UNL     1       6.755  -5.229  25.272  0.00  0.00    +0.080 A 
ATOM     40  C   UNL     1       6.174  -5.917  26.305  0.00  0.00    +0.135 A 
ATOM     41  C   UNL     1       4.919  -6.679  26.438  0.00  0.00    +0.089 C 
ATOM     42  O   UNL     1       6.983  -5.848  27.396  0.00  0.00    -0.359 OA
ATOM     43  N   UNL     1       8.126  -5.126  27.084  0.00  0.00    -0.073 NA
ENDBRANCH  36  38
ENDBRANCH  33  34
BRANCH  33  44
ATOM     44  C   UNL     1       9.452  -1.794  22.622  0.00  0.00    +0.010 C 
ATOM     45  C   UNL     1      10.002  -0.511  21.986  0.00  0.00    +0.009 C 
ATOM     46  C   UNL     1       8.032  -2.046  22.115  0.00  0.00    +0.009 C 
ENDBRANCH  33  44
ENDBRANCH  31  33
ENDBRANCH  30  31
ENDBRANCH   1  30
TORSDOF 16
ENDMDL
MODEL 7
REMARK VINA RESULT:      -6.3      2.750      6.676
REMARK  Name = 
REMARK  20 active torsions:
REMARK  status: ('A' for Active; 'I' for Inactive)
REMARK    1  A    between atoms: C_1  and  C_2
REMARK    2  A    between atoms: C_2  and  O_3
REMARK    3  A    between atoms: O_3  and  C_4
REMARK    4  A    between atoms: C_4  and  C_6
REMARK    5  A    between atoms: C_7  and  C_8
REMARK    6  A    between atoms: C_8  and  C_10
REMARK    7  A    between atoms: C_8  and  N_18
REMARK    8  A    between atoms: C_10  and  C_11
REMARK    9  A    between atoms: C_19  and  C_21
REMARK   10  A    between atoms: C_21  and  C_23
REMARK   11  A    between atoms: C_21  and  C_40
REMARK   12  A    between atoms: C_23  and  C_24
REMARK   13  A    between atoms: C_24  and  C_26
REMARK   14  A    between atoms: C_26  and  C_28
REMARK   15  A    between atoms: C_26  and  N_31
REMARK   16  A    between atoms: C_28  and  C_29
REMARK   17  A    between atoms: C_28  and  C_30
REMARK   18  A    between atoms: C_32  and  C_34
REMARK   19  A    between atoms: C_37  and  C_38
REMARK   20  A    between atoms: C_40  and  C_41
REMARK                            x       y       z     vdW  Elec       q    Type
REMARK                         _______ _______ _______ _____ _____    ______ ____
ROOT
ATOM      1  C   UNL     1       8.004  -2.428  25.336  0.00  0.00    +0.086 C 
ENDROOT
BRANCH   1   4
ATOM      2  N   UNL     1       6.134  -3.480  26.533  0.00  0.00    -0.309 N 
ATOM      3  H   UNL     1       5.589  -3.148  25.758  0.00  0.00    +0.149 HD
ATOM      4  C   UNL     1       7.503  -3.428  26.398  0.00  0.00    +0.217 C 
ATOM      5  O   UNL     1       8.277  -4.036  27.132  0.00  0.00    -0.275 OA
BRANCH   2   6
ATOM      6  C   UNL     1       5.418  -4.404  27.396  0.00  0.00    +0.097 C 
BRANCH   6   8
ATOM      7  C   UNL     1       4.875  -5.391  25.134  0.00  0.00    +0.089 C 
ATOM      8  C   UNL     1       4.670  -5.332  26.462  0.00  0.00    +0.002 C 
BRANCH   7   9
ATOM      9  C   UNL     1       4.142  -6.361  24.296  0.00  0.00    +0.332 C 
ATOM     10  O   UNL     1       4.168  -7.572  24.429  0.00  0.00    -0.246 OA
BRANCH   9  11
ATOM     11  O   UNL     1       3.533  -5.654  23.313  0.00  0.00    -0.462 OA
BRANCH  11  13
ATOM     12  C   UNL     1       1.280  -5.034  23.782  0.00  0.00    +0.048 C 
ATOM     13  C   UNL     1       2.174  -6.024  23.054  0.00  0.00    +0.229 C 
ENDBRANCH  11  13
ENDBRANCH   9  11
ENDBRANCH   7   9
ENDBRANCH   6   8
BRANCH   6  14
ATOM     14  C   UNL     1       4.481  -3.629  28.337  0.00  0.00    +0.039 C 
BRANCH  14  15
ATOM     15  C   UNL     1       4.352  -2.133  28.033  0.00  0.00    +0.078 C 
ATOM     16  C   UNL     1       3.274  -1.874  27.000  0.00  0.00    +0.216 C 
ATOM     17  O   UNL     1       3.379  -2.023  25.796  0.00  0.00    -0.276 OA
ATOM     18  N   UNL     1       2.127  -1.494  27.662  0.00  0.00    -0.315 N 
ATOM     19  H   UNL     1       1.254  -1.381  27.162  0.00  0.00    +0.149 HD
ATOM     20  C   UNL     1       2.291  -1.495  29.082  0.00  0.00    +0.105 C 
ATOM     21  C   UNL     1       3.795  -1.376  29.249  0.00  0.00    +0.031 C 
ENDBRANCH  14  15
ENDBRANCH   6  14
ENDBRANCH   2   6
ENDBRANCH   1   4
BRANCH   1  22
ATOM     22  C   UNL     1       8.770  -3.101  24.177  0.00  0.00    +0.048 C 
BRANCH  22  23
ATOM     23  C   UNL     1       7.932  -3.900  23.223  0.00  0.00    -0.046 A 
ATOM     24  C   UNL     1       7.007  -3.264  22.384  0.00  0.00    +0.006 A 
ATOM     25  C   UNL     1       6.232  -4.016  21.506  0.00  0.00    +0.038 A 
ATOM     26  C   UNL     1       6.376  -5.399  21.477  0.00  0.00    +0.123 A 
ATOM     27  F   UNL     1       5.634  -6.120  20.629  0.00  0.00    -0.205 F 
ATOM     28  C   UNL     1       7.277  -6.044  22.316  0.00  0.00    +0.038 A 
ATOM     29  C   UNL     1       8.058  -5.295  23.189  0.00  0.00    +0.006 A 
ENDBRANCH  22  23
ENDBRANCH   1  22
BRANCH   1  30
ATOM     30  C   UNL     1       8.798  -1.288  26.009  0.00  0.00    +0.089 C 
BRANCH  30  31
ATOM     31  C   UNL     1       9.460  -0.351  25.011  0.00  0.00    +0.154 C 
ATOM     32  O   UNL     1      10.544   0.191  25.276  0.00  0.00    -0.295 OA
BRANCH  31  33
ATOM     33  C   UNL     1       8.724   0.011  23.710  0.00  0.00    +0.142 C 
BRANCH  33  34
ATOM     34  N   UNL     1       7.802   1.127  23.894  0.00  0.00    -0.300 N 
ATOM     35  H   UNL     1       8.125   2.084  23.997  0.00  0.00    +0.150 HD
ATOM     36  C   UNL     1       6.445   0.899  24.062  0.00  0.00    +0.266 C 
ATOM     37  O   UNL     1       5.961  -0.232  24.057  0.00  0.00    -0.268 OA
BRANCH  36  38
ATOM     38  C   UNL     1       5.626   2.089  24.276  0.00  0.00    +0.168 A 
ATOM     39  C   UNL     1       6.031   3.433  24.080  0.00  0.00    +0.080 A 
ATOM     40  C   UNL     1       4.922   4.178  24.384  0.00  0.00    +0.135 A 
ATOM     41  C   UNL     1       4.635   5.625  24.366  0.00  0.00    +0.089 C 
ATOM     42  O   UNL     1       3.915   3.346  24.763  0.00  0.00    -0.359 OA
ATOM     43  N   UNL     1       4.348   2.029  24.691  0.00  0.00    -0.073 NA
ENDBRANCH  36  38
ENDBRANCH  33  34
BRANCH  33  44
ATOM     44  C   UNL     1       9.668   0.208  22.498  0.00  0.00    +0.010 C 
ATOM     45  C   UNL     1       9.675   1.667  22.027  0.00  0.00    +0.009 C 
ATOM     46  C   UNL     1       9.395  -0.712  21.306  0.00  0.00    +0.009 C 
ENDBRANCH  33  44
ENDBRANCH  31  33
ENDBRANCH  30  31
ENDBRANCH   1  30
TORSDOF 16
ENDMDL
MODEL 8
REMARK VINA RESULT:      -6.3      3.306      6.621
REMARK  Name = 
REMARK  20 active torsions:
REMARK  status: ('A' for Active; 'I' for Inactive)
REMARK    1  A    between atoms: C_1  and  C_2
REMARK    2  A    between atoms: C_2  and  O_3
REMARK    3  A    between atoms: O_3  and  C_4
REMARK    4  A    between atoms: C_4  and  C_6
REMARK    5  A    between atoms: C_7  and  C_8
REMARK    6  A    between atoms: C_8  and  C_10
REMARK    7  A    between atoms: C_8  and  N_18
REMARK    8  A    between atoms: C_10  and  C_11
REMARK    9  A    between atoms: C_19  and  C_21
REMARK   10  A    between atoms: C_21  and  C_23
REMARK   11  A    between atoms: C_21  and  C_40
REMARK   12  A    between atoms: C_23  and  C_24
REMARK   13  A    between atoms: C_24  and  C_26
REMARK   14  A    between atoms: C_26  and  C_28
REMARK   15  A    between atoms: C_26  and  N_31
REMARK   16  A    between atoms: C_28  and  C_29
REMARK   17  A    between atoms: C_28  and  C_30
REMARK   18  A    between atoms: C_32  and  C_34
REMARK   19  A    between atoms: C_37  and  C_38
REMARK   20  A    between atoms: C_40  and  C_41
REMARK                            x       y       z     vdW  Elec       q    Type
REMARK                         _______ _______ _______ _____ _____    ______ ____
ROOT
ATOM      1  C   UNL     1       5.881   0.581  25.369  0.00  0.00    +0.086 C 
ENDROOT
BRANCH   1   4
ATOM      2  N   UNL     1       5.085   2.606  24.228  0.00  0.00    -0.309 N 
ATOM      3  H   UNL     1       5.811   2.392  23.568  0.00  0.00    +0.149 HD
ATOM      4  C   UNL     1       4.771   1.628  25.145  0.00  0.00    +0.217 C 
ATOM      5  O   UNL     1       3.745   1.641  25.821  0.00  0.00    -0.275 OA
BRANCH   2   6
ATOM      6  C   UNL     1       4.175   3.646  23.777  0.00  0.00    +0.097 C 
BRANCH   6   8
ATOM      7  C   UNL     1       2.295   3.334  22.120  0.00  0.00    +0.089 C 
ATOM      8  C   UNL     1       3.570   3.125  22.492  0.00  0.00    +0.002 C 
BRANCH   7   9
ATOM      9  C   UNL     1       1.791   2.838  20.823  0.00  0.00    +0.332 C 
ATOM     10  O   UNL     1       1.196   1.789  20.651  0.00  0.00    -0.246 OA
BRANCH   9  11
ATOM     11  O   UNL     1       2.206   3.714  19.876  0.00  0.00    -0.462 OA
BRANCH  11  13
ATOM     12  C   UNL     1       1.847   5.549  18.398  0.00  0.00    +0.048 C 
ATOM     13  C   UNL     1       1.189   4.591  19.376  0.00  0.00    +0.229 C 
ENDBRANCH  11  13
ENDBRANCH   9  11
ENDBRANCH   7   9
ENDBRANCH   6   8
BRANCH   6  14
ATOM     14  C   UNL     1       4.941   4.965  23.580  0.00  0.00    +0.039 C 
BRANCH  14  15
ATOM     15  C   UNL     1       6.467   4.843  23.633  0.00  0.00    +0.078 C 
ATOM     16  C   UNL     1       7.035   4.479  22.277  0.00  0.00    +0.216 C 
ATOM     17  O   UNL     1       7.048   3.370  21.774  0.00  0.00    -0.276 OA
ATOM     18  N   UNL     1       7.487   5.635  21.677  0.00  0.00    -0.315 N 
ATOM     19  H   UNL     1       7.805   5.629  20.716  0.00  0.00    +0.149 HD
ATOM     20  C   UNL     1       7.255   6.794  22.482  0.00  0.00    +0.105 C 
ATOM     21  C   UNL     1       7.116   6.214  23.878  0.00  0.00    +0.031 C 
ENDBRANCH  14  15
ENDBRANCH   6  14
ENDBRANCH   2   6
ENDBRANCH   1   4
BRANCH   1  22
ATOM     22  C   UNL     1       5.551  -0.427  26.491  0.00  0.00    +0.048 C 
BRANCH  22  23
ATOM     23  C   UNL     1       5.551  -1.872  26.087  0.00  0.00    -0.046 A 
ATOM     24  C   UNL     1       4.523  -2.386  25.285  0.00  0.00    +0.006 A 
ATOM     25  C   UNL     1       4.530  -3.728  24.920  0.00  0.00    +0.038 A 
ATOM     26  C   UNL     1       5.556  -4.554  25.366  0.00  0.00    +0.123 A 
ATOM     27  F   UNL     1       5.565  -5.844  25.009  0.00  0.00    -0.205 F 
ATOM     28  C   UNL     1       6.573  -4.062  26.175  0.00  0.00    +0.038 A 
ATOM     29  C   UNL     1       6.572  -2.718  26.536  0.00  0.00    +0.006 A 
ENDBRANCH  22  23
ENDBRANCH   1  22
BRANCH   1  30
ATOM     30  C   UNL     1       7.243   1.280  25.560  0.00  0.00    +0.089 C 
BRANCH  30  31
ATOM     31  C   UNL     1       8.426   0.333  25.417  0.00  0.00    +0.154 C 
ATOM     32  O   UNL     1       9.015  -0.098  26.420  0.00  0.00    -0.295 OA
BRANCH  31  33
ATOM     33  C   UNL     1       8.961  -0.001  24.014  0.00  0.00    +0.142 C 
BRANCH  33  34
ATOM     34  N   UNL     1       8.100  -0.946  23.310  0.00  0.00    -0.300 N 
ATOM     35  H   UNL     1       7.212  -0.668  22.903  0.00  0.00    +0.150 HD
ATOM     36  C   UNL     1       8.410  -2.297  23.282  0.00  0.00    +0.266 C 
ATOM     37  O   UNL     1       9.411  -2.754  23.833  0.00  0.00    -0.268 OA
BRANCH  36  38
ATOM     38  C   UNL     1       7.456  -3.150  22.581  0.00  0.00    +0.168 A 
ATOM     39  C   UNL     1       7.560  -4.551  22.396  0.00  0.00    +0.080 A 
ATOM     40  C   UNL     1       6.425  -4.897  21.709  0.00  0.00    +0.135 A 
ATOM     41  C   UNL     1       5.885  -6.180  21.223  0.00  0.00    +0.089 C 
ATOM     42  O   UNL     1       5.690  -3.777  21.471  0.00  0.00    -0.359 OA
ATOM     43  N   UNL     1       6.328  -2.675  22.021  0.00  0.00    -0.073 NA
ENDBRANCH  36  38
ENDBRANCH  33  34
BRANCH  33  44
ATOM     44  C   UNL     1       9.298   1.249  23.165  0.00  0.00    +0.010 C 
ATOM     45  C   UNL     1       9.608   0.870  21.712  0.00  0.00    +0.009 C 
ATOM     46  C   UNL     1      10.426   2.123  23.716  0.00  0.00    +0.009 C 
ENDBRANCH  33  44
ENDBRANCH  31  33
ENDBRANCH  30  31
ENDBRANCH   1  30
TORSDOF 16
ENDMDL
MODEL 9
REMARK VINA RESULT:      -6.3      3.018      8.271
REMARK  Name = 
REMARK  20 active torsions:
REMARK  status: ('A' for Active; 'I' for Inactive)
REMARK    1  A    between atoms: C_1  and  C_2
REMARK    2  A    between atoms: C_2  and  O_3
REMARK    3  A    between atoms: O_3  and  C_4
REMARK    4  A    between atoms: C_4  and  C_6
REMARK    5  A    between atoms: C_7  and  C_8
REMARK    6  A    between atoms: C_8  and  C_10
REMARK    7  A    between atoms: C_8  and  N_18
REMARK    8  A    between atoms: C_10  and  C_11
REMARK    9  A    between atoms: C_19  and  C_21
REMARK   10  A    between atoms: C_21  and  C_23
REMARK   11  A    between atoms: C_21  and  C_40
REMARK   12  A    between atoms: C_23  and  C_24
REMARK   13  A    between atoms: C_24  and  C_26
REMARK   14  A    between atoms: C_26  and  C_28
REMARK   15  A    between atoms: C_26  and  N_31
REMARK   16  A    between atoms: C_28  and  C_29
REMARK   17  A    between atoms: C_28  and  C_30
REMARK   18  A    between atoms: C_32  and  C_34
REMARK   19  A    between atoms: C_37  and  C_38
REMARK   20  A    between atoms: C_40  and  C_41
REMARK                            x       y       z     vdW  Elec       q    Type
REMARK                         _______ _______ _______ _____ _____    ______ ____
ROOT
ATOM      1  C   UNL     1       4.498  -2.479  25.307  0.00  0.00    +0.086 C 
ENDROOT
BRANCH   1   4
ATOM      2  N   UNL     1       3.090  -4.413  25.863  0.00  0.00    -0.309 N 
ATOM      3  H   UNL     1       3.967  -4.896  25.941  0.00  0.00    +0.149 HD
ATOM      4  C   UNL     1       3.142  -3.041  25.778  0.00  0.00    +0.217 C 
ATOM      5  O   UNL     1       2.164  -2.317  25.949  0.00  0.00    -0.275 OA
BRANCH   2   6
ATOM      6  C   UNL     1       1.960  -5.174  26.368  0.00  0.00    +0.097 C 
BRANCH   6   8
ATOM      7  C   UNL     1       3.781  -6.391  27.626  0.00  0.00    +0.089 C 
ATOM      8  C   UNL     1       2.503  -5.986  27.524  0.00  0.00    +0.002 C 
BRANCH   7   9
ATOM      9  C   UNL     1       4.248  -7.137  28.812  0.00  0.00    +0.332 C 
ATOM     10  O   UNL     1       3.540  -7.542  29.716  0.00  0.00    -0.246 OA
BRANCH   9  11
ATOM     11  O   UNL     1       5.601  -7.187  28.740  0.00  0.00    -0.462 OA
BRANCH  11  13
ATOM     12  C   UNL     1       7.125  -5.745  27.611  0.00  0.00    +0.048 C 
ATOM     13  C   UNL     1       6.261  -5.921  28.847  0.00  0.00    +0.229 C 
ENDBRANCH  11  13
ENDBRANCH   9  11
ENDBRANCH   7   9
ENDBRANCH   6   8
BRANCH   6  14
ATOM     14  C   UNL     1       1.373  -6.052  25.250  0.00  0.00    +0.039 C 
BRANCH  14  15
ATOM     15  C   UNL     1       2.394  -6.573  24.234  0.00  0.00    +0.078 C 
ATOM     16  C   UNL     1       2.250  -8.067  24.029  0.00  0.00    +0.216 C 
ATOM     17  O   UNL     1       2.668  -8.940  24.768  0.00  0.00    -0.276 OA
ATOM     18  N   UNL     1       1.511  -8.275  22.884  0.00  0.00    -0.315 N 
ATOM     19  H   UNL     1       1.205  -9.204  22.627  0.00  0.00    +0.149 HD
ATOM     20  C   UNL     1       1.089  -7.050  22.279  0.00  0.00    +0.105 C 
ATOM     21  C   UNL     1       2.082  -6.042  22.826  0.00  0.00    +0.031 C 
ENDBRANCH  14  15
ENDBRANCH   6  14
ENDBRANCH   2   6
ENDBRANCH   1   4
BRANCH   1  22
ATOM     22  C   UNL     1       5.594  -3.558  25.179  0.00  0.00    +0.048 C 
BRANCH  22  23
ATOM     23  C   UNL     1       5.750  -4.166  23.816  0.00  0.00    -0.046 A 
ATOM     24  C   UNL     1       5.878  -5.553  23.666  0.00  0.00    +0.006 A 
ATOM     25  C   UNL     1       6.028  -6.106  22.398  0.00  0.00    +0.038 A 
ATOM     26  C   UNL     1       6.059  -5.270  21.286  0.00  0.00    +0.123 A 
ATOM     27  F   UNL     1       6.197  -5.803  20.066  0.00  0.00    -0.205 F 
ATOM     28  C   UNL     1       5.951  -3.891  21.421  0.00  0.00    +0.038 A 
ATOM     29  C   UNL     1       5.795  -3.337  22.688  0.00  0.00    +0.006 A 
ENDBRANCH  22  23
ENDBRANCH   1  22
BRANCH   1  30
ATOM     30  C   UNL     1       4.919  -1.287  26.194  0.00  0.00    +0.089 C 
BRANCH  30  31
ATOM     31  C   UNL     1       5.634  -0.190  25.420  0.00  0.00    +0.154 C 
ATOM     32  O   UNL     1       4.992   0.725  24.883  0.00  0.00    -0.295 OA
BRANCH  31  33
ATOM     33  C   UNL     1       7.155  -0.280  25.213  0.00  0.00    +0.142 C 
BRANCH  33  34
ATOM     34  N   UNL     1       7.779   1.037  25.154  0.00  0.00    -0.300 N 
ATOM     35  H   UNL     1       7.528   1.784  25.794  0.00  0.00    +0.150 HD
ATOM     36  C   UNL     1       8.657   1.356  24.129  0.00  0.00    +0.266 C 
ATOM     37  O   UNL     1       8.951   0.557  23.241  0.00  0.00    -0.268 OA
BRANCH  36  38
ATOM     38  C   UNL     1       9.189   2.715  24.152  0.00  0.00    +0.168 A 
ATOM     39  C   UNL     1      10.384   3.161  23.534  0.00  0.00    +0.080 A 
ATOM     40  C   UNL     1      10.442   4.501  23.813  0.00  0.00    +0.135 A 
ATOM     41  C   UNL     1      11.391   5.572  23.455  0.00  0.00    +0.089 C 
ATOM     42  O   UNL     1       9.366   4.846  24.571  0.00  0.00    -0.359 OA
ATOM     43  N   UNL     1       8.570   3.730  24.783  0.00  0.00    -0.073 NA
ENDBRANCH  36  38
ENDBRANCH  33  34
BRANCH  33  44
ATOM     44  C   UNL     1       7.861  -1.233  26.209  0.00  0.00    +0.010 C 
ATOM     45  C   UNL     1       8.688  -0.453  27.237  0.00  0.00    +0.009 C 
ATOM     46  C   UNL     1       8.733  -2.313  25.567  0.00  0.00    +0.009 C 
ENDBRANCH  33  44
ENDBRANCH  31  33
ENDBRANCH  30  31
ENDBRANCH   1  30
TORSDOF 16
ENDMDL
