MODEL 1
REMARK VINA RESULT:      -7.0      0.000      0.000
REMARK  Name = 
REMARK  7 active torsions:
REMARK  status: ('A' for Active; 'I' for Inactive)
REMARK    1  A    between atoms: C_2  and  C_3
REMARK    2  A    between atoms: C_2  and  O_4
REMARK    3  A    between atoms: C_2  and  C_5
REMARK    4  A    between atoms: C_5  and  C_6
REMARK    5  A    between atoms: C_6  and  C_8
REMARK    6  A    between atoms: C_6  and  C_14
REMARK    7  A    between atoms: C_15  and  O_16
REMARK                            x       y       z     vdW  Elec       q    Type
REMARK                         _______ _______ _______ _____ _____    ______ ____
ROOT
ATOM      1  C   UNL     1       8.669  -2.101  24.394  0.00  0.00    +0.086 A 
ATOM      2  C   UNL     1       8.592  -1.289  25.641  0.00  0.00    +0.345 A 
ATOM      3  O   UNL     1       8.620  -1.797  26.757  0.00  0.00    -0.245 OA
ATOM      4  O   UNL     1       8.445   0.089  25.501  0.00  0.00    -0.422 OA
ATOM      5  C   UNL     1       9.001   0.716  24.384  0.00  0.00    +0.143 A 
ATOM      6  C   UNL     1       9.517  -0.036  23.336  0.00  0.00    +0.059 A 
ATOM      7  C   UNL     1      10.103   0.634  22.256  0.00  0.00    +0.015 A 
ATOM      8  C   UNL     1      10.159   2.030  22.231  0.00  0.00    +0.001 A 
ATOM      9  C   UNL     1       9.631   2.769  23.289  0.00  0.00    +0.004 A 
ATOM     10  C   UNL     1       9.045   2.112  24.374  0.00  0.00    +0.047 A 
ATOM     11  C   UNL     1       9.320  -1.490  23.382  0.00  0.00    +0.138 A 
ENDROOT
BRANCH  11  12
ATOM     12  O   UNL     1       9.751  -2.164  22.263  0.00  0.00    -0.506 OA
ATOM     13  H   UNL     1       9.111  -1.941  21.563  0.00  0.00    +0.292 HD
ENDBRANCH  11  12
BRANCH   1  14
ATOM     14  C   UNL     1       8.149  -3.559  24.365  0.00  0.00    +0.062 C 
BRANCH  14  15
ATOM     15  C   UNL     1       7.412  -4.111  23.119  0.00  0.00    -0.040 A 
ATOM     16  C   UNL     1       7.650  -5.453  22.739  0.00  0.00    +0.004 A 
ATOM     17  C   UNL     1       6.988  -6.046  21.659  0.00  0.00    +0.000 A 
ATOM     18  C   UNL     1       6.037  -5.325  20.952  0.00  0.00    +0.000 A 
ATOM     19  C   UNL     1       5.813  -3.990  21.277  0.00  0.00    +0.000 A 
ATOM     20  C   UNL     1       6.530  -3.378  22.315  0.00  0.00    +0.004 A 
ENDBRANCH  14  15
BRANCH  14  21
ATOM     21  C   UNL     1       9.211  -4.638  24.773  0.00  0.00    +0.044 C 
BRANCH  21  22
ATOM     22  C   UNL     1       8.975  -5.308  26.138  0.00  0.00    +0.112 C 
ATOM     23  C   UNL     1       7.501  -5.283  26.519  0.00  0.00    +0.037 C 
BRANCH  22  24
ATOM     24  O   UNL     1       9.684  -4.644  27.180  0.00  0.00    -0.392 OA
ATOM     25  H   UNL     1       9.047  -4.064  27.633  0.00  0.00    +0.210 HD
ENDBRANCH  22  24
ENDBRANCH  21  22
ENDBRANCH  14  21
ENDBRANCH   1  14
TORSDOF 6
ENDMDL
MODEL 2
REMARK VINA RESULT:      -6.9      1.520      2.128
REMARK  Name = 
REMARK  7 active torsions:
REMARK  status: ('A' for Active; 'I' for Inactive)
REMARK    1  A    between atoms: C_2  and  C_3
REMARK    2  A    between atoms: C_2  and  O_4
REMARK    3  A    between atoms: C_2  and  C_5
REMARK    4  A    between atoms: C_5  and  C_6
REMARK    5  A    between atoms: C_6  and  C_8
REMARK    6  A    between atoms: C_6  and  C_14
REMARK    7  A    between atoms: C_15  and  O_16
REMARK                            x       y       z     vdW  Elec       q    Type
REMARK                         _______ _______ _______ _____ _____    ______ ____
ROOT
ATOM      1  C   UNL     1       8.077  -2.006  24.345  0.00  0.00    +0.086 A 
ATOM      2  C   UNL     1       9.558  -2.010  24.183  0.00  0.00    +0.345 A 
ATOM      3  O   UNL     1      10.183  -3.025  23.892  0.00  0.00    -0.245 OA
ATOM      4  O   UNL     1      10.233  -0.814  24.416  0.00  0.00    -0.422 OA
ATOM      5  C   UNL     1       9.582   0.391  24.144  0.00  0.00    +0.143 A 
ATOM      6  C   UNL     1       8.227   0.407  23.837  0.00  0.00    +0.059 A 
ATOM      7  C   UNL     1       7.625   1.633  23.529  0.00  0.00    +0.015 A 
ATOM      8  C   UNL     1       8.372   2.815  23.539  0.00  0.00    +0.001 A 
ATOM      9  C   UNL     1       9.729   2.780  23.855  0.00  0.00    +0.004 A 
ATOM     10  C   UNL     1      10.342   1.563  24.163  0.00  0.00    +0.047 A 
ATOM     11  C   UNL     1       7.488  -0.856  23.956  0.00  0.00    +0.138 A 
ENDROOT
BRANCH  11  12
ATOM     12  O   UNL     1       6.131  -0.749  23.751  0.00  0.00    -0.506 OA
ATOM     13  H   UNL     1       5.997   0.132  23.357  0.00  0.00    +0.292 HD
ENDBRANCH  11  12
BRANCH   1  14
ATOM     14  C   UNL     1       7.325  -3.282  24.796  0.00  0.00    +0.062 C 
BRANCH  14  15
ATOM     15  C   UNL     1       6.845  -4.325  23.757  0.00  0.00    -0.040 A 
ATOM     16  C   UNL     1       5.453  -4.460  23.536  0.00  0.00    +0.004 A 
ATOM     17  C   UNL     1       4.936  -5.340  22.580  0.00  0.00    +0.000 A 
ATOM     18  C   UNL     1       5.800  -6.082  21.787  0.00  0.00    +0.000 A 
ATOM     19  C   UNL     1       7.170  -6.002  22.012  0.00  0.00    +0.000 A 
ATOM     20  C   UNL     1       7.682  -5.171  23.019  0.00  0.00    +0.004 A 
ENDBRANCH  14  15
BRANCH  14  21
ATOM     21  C   UNL     1       8.031  -4.082  25.945  0.00  0.00    +0.044 C 
BRANCH  21  22
ATOM     22  C   UNL     1       7.135  -5.084  26.693  0.00  0.00    +0.112 C 
ATOM     23  C   UNL     1       6.084  -4.367  27.530  0.00  0.00    +0.037 C 
BRANCH  22  24
ATOM     24  O   UNL     1       7.889  -5.900  27.585  0.00  0.00    -0.392 OA
ATOM     25  H   UNL     1       8.168  -5.333  28.325  0.00  0.00    +0.210 HD
ENDBRANCH  22  24
ENDBRANCH  21  22
ENDBRANCH  14  21
ENDBRANCH   1  14
TORSDOF 6
ENDMDL
MODEL 3
REMARK VINA RESULT:      -6.6      2.079      2.869
REMARK  Name = 
REMARK  7 active torsions:
REMARK  status: ('A' for Active; 'I' for Inactive)
REMARK    1  A    between atoms: C_2  and  C_3
REMARK    2  A    between atoms: C_2  and  O_4
REMARK    3  A    between atoms: C_2  and  C_5
REMARK    4  A    between atoms: C_5  and  C_6
REMARK    5  A    between atoms: C_6  and  C_8
REMARK    6  A    between atoms: C_6  and  C_14
REMARK    7  A    between atoms: C_15  and  O_16
REMARK                            x       y       z     vdW  Elec       q    Type
REMARK                         _______ _______ _______ _____ _____    ______ ____
ROOT
ATOM      1  C   UNL     1       7.716  -2.428  23.893  0.00  0.00    +0.086 A 
ATOM      2  C   UNL     1       7.683  -2.315  22.408  0.00  0.00    +0.345 A 
ATOM      3  O   UNL     1       6.901  -2.962  21.719  0.00  0.00    -0.245 OA
ATOM      4  O   UNL     1       8.610  -1.467  21.807  0.00  0.00    -0.422 OA
ATOM      5  C   UNL     1       9.042  -0.338  22.507  0.00  0.00    +0.143 A 
ATOM      6  C   UNL     1       8.710  -0.167  23.845  0.00  0.00    +0.059 A 
ATOM      7  C   UNL     1       9.128   1.000  24.495  0.00  0.00    +0.015 A 
ATOM      8  C   UNL     1       9.871   1.967  23.812  0.00  0.00    +0.001 A 
ATOM      9  C   UNL     1      10.200   1.776  22.470  0.00  0.00    +0.004 A 
ATOM     10  C   UNL     1       9.787   0.616  21.810  0.00  0.00    +0.047 A 
ATOM     11  C   UNL     1       8.026  -1.275  24.523  0.00  0.00    +0.138 A 
ENDROOT
BRANCH  11  12
ATOM     12  O   UNL     1       7.828  -1.090  25.872  0.00  0.00    -0.506 OA
ATOM     13  H   UNL     1       8.228  -1.867  26.302  0.00  0.00    +0.292 HD
ENDBRANCH  11  12
BRANCH   1  14
ATOM     14  C   UNL     1       7.293  -3.740  24.599  0.00  0.00    +0.062 C 
BRANCH  14  15
ATOM     15  C   UNL     1       5.829  -4.239  24.527  0.00  0.00    -0.040 A 
ATOM     16  C   UNL     1       5.600  -5.603  24.230  0.00  0.00    +0.004 A 
ATOM     17  C   UNL     1       4.312  -6.149  24.197  0.00  0.00    +0.000 A 
ATOM     18  C   UNL     1       3.218  -5.352  24.501  0.00  0.00    +0.000 A 
ATOM     19  C   UNL     1       3.410  -3.998  24.754  0.00  0.00    +0.000 A 
ATOM     20  C   UNL     1       4.695  -3.439  24.718  0.00  0.00    +0.004 A 
ENDBRANCH  14  15
BRANCH  14  21
ATOM     21  C   UNL     1       8.206  -4.975  24.279  0.00  0.00    +0.044 C 
BRANCH  21  22
ATOM     22  C   UNL     1       9.155  -5.400  25.412  0.00  0.00    +0.112 C 
ATOM     23  C   UNL     1       8.984  -4.514  26.640  0.00  0.00    +0.037 C 
BRANCH  22  24
ATOM     24  O   UNL     1      10.520  -5.305  25.020  0.00  0.00    -0.392 OA
ATOM     25  H   UNL     1      10.623  -4.460  24.548  0.00  0.00    +0.210 HD
ENDBRANCH  22  24
ENDBRANCH  21  22
ENDBRANCH  14  21
ENDBRANCH   1  14
TORSDOF 6
ENDMDL
MODEL 4
REMARK VINA RESULT:      -6.5      1.954      2.677
REMARK  Name = 
REMARK  7 active torsions:
REMARK  status: ('A' for Active; 'I' for Inactive)
REMARK    1  A    between atoms: C_2  and  C_3
REMARK    2  A    between atoms: C_2  and  O_4
REMARK    3  A    between atoms: C_2  and  C_5
REMARK    4  A    between atoms: C_5  and  C_6
REMARK    5  A    between atoms: C_6  and  C_8
REMARK    6  A    between atoms: C_6  and  C_14
REMARK    7  A    between atoms: C_15  and  O_16
REMARK                            x       y       z     vdW  Elec       q    Type
REMARK                         _______ _______ _______ _____ _____    ______ ____
ROOT
ATOM      1  C   UNL     1       7.869  -1.440  23.322  0.00  0.00    +0.086 A 
ATOM      2  C   UNL     1       8.964  -1.081  22.378  0.00  0.00    +0.345 A 
ATOM      3  O   UNL     1       9.570  -1.926  21.726  0.00  0.00    -0.245 OA
ATOM      4  O   UNL     1       9.316   0.262  22.282  0.00  0.00    -0.422 OA
ATOM      5  C   UNL     1       8.333   1.233  22.490  0.00  0.00    +0.143 A 
ATOM      6  C   UNL     1       7.081   0.876  22.974  0.00  0.00    +0.059 A 
ATOM      7  C   UNL     1       6.113   1.875  23.127  0.00  0.00    +0.015 A 
ATOM      8  C   UNL     1       6.404   3.203  22.806  0.00  0.00    +0.001 A 
ATOM      9  C   UNL     1       7.669   3.544  22.326  0.00  0.00    +0.004 A 
ATOM     10  C   UNL     1       8.643   2.556  22.168  0.00  0.00    +0.047 A 
ATOM     11  C   UNL     1       6.886  -0.517  23.395  0.00  0.00    +0.138 A 
ENDROOT
BRANCH  11  12
ATOM     12  O   UNL     1       5.664  -0.778  23.971  0.00  0.00    -0.506 OA
ATOM     13  H   UNL     1       5.550  -0.098  24.658  0.00  0.00    +0.292 HD
ENDBRANCH  11  12
BRANCH   1  14
ATOM     14  C   UNL     1       7.847  -2.819  24.025  0.00  0.00    +0.062 C 
BRANCH  14  15
ATOM     15  C   UNL     1       6.992  -3.980  23.462  0.00  0.00    -0.040 A 
ATOM     16  C   UNL     1       7.342  -4.520  22.201  0.00  0.00    +0.004 A 
ATOM     17  C   UNL     1       6.656  -5.604  21.642  0.00  0.00    +0.000 A 
ATOM     18  C   UNL     1       5.623  -6.204  22.348  0.00  0.00    +0.000 A 
ATOM     19  C   UNL     1       5.229  -5.667  23.569  0.00  0.00    +0.000 A 
ATOM     20  C   UNL     1       5.874  -4.538  24.095  0.00  0.00    +0.004 A 
ENDBRANCH  14  15
BRANCH  14  21
ATOM     21  C   UNL     1       9.264  -3.414  24.336  0.00  0.00    +0.044 C 
BRANCH  21  22
ATOM     22  C   UNL     1       9.264  -4.727  25.136  0.00  0.00    +0.112 C 
ATOM     23  C   UNL     1       8.918  -4.485  26.599  0.00  0.00    +0.037 C 
BRANCH  22  24
ATOM     24  O   UNL     1      10.540  -5.359  25.112  0.00  0.00    -0.392 OA
ATOM     25  H   UNL     1      10.765  -5.584  26.031  0.00  0.00    +0.210 HD
ENDBRANCH  22  24
ENDBRANCH  21  22
ENDBRANCH  14  21
ENDBRANCH   1  14
TORSDOF 6
ENDMDL
MODEL 5
REMARK VINA RESULT:      -6.4      2.217      4.133
REMARK  Name = 
REMARK  7 active torsions:
REMARK  status: ('A' for Active; 'I' for Inactive)
REMARK    1  A    between atoms: C_2  and  C_3
REMARK    2  A    between atoms: C_2  and  O_4
REMARK    3  A    between atoms: C_2  and  C_5
REMARK    4  A    between atoms: C_5  and  C_6
REMARK    5  A    between atoms: C_6  and  C_8
REMARK    6  A    between atoms: C_6  and  C_14
REMARK    7  A    between atoms: C_15  and  O_16
REMARK                            x       y       z     vdW  Elec       q    Type
REMARK                         _______ _______ _______ _____ _____    ______ ____
ROOT
ATOM      1  C   UNL     1       7.034  -3.401  24.069  0.00  0.00    +0.086 A 
ATOM      2  C   UNL     1       6.082  -2.261  24.184  0.00  0.00    +0.345 A 
ATOM      3  O   UNL     1       5.044  -2.337  24.833  0.00  0.00    -0.245 OA
ATOM      4  O   UNL     1       6.389  -1.095  23.487  0.00  0.00    -0.422 OA
ATOM      5  C   UNL     1       7.731  -0.766  23.283  0.00  0.00    +0.143 A 
ATOM      6  C   UNL     1       8.735  -1.675  23.592  0.00  0.00    +0.059 A 
ATOM      7  C   UNL     1      10.067  -1.287  23.412  0.00  0.00    +0.015 A 
ATOM      8  C   UNL     1      10.378  -0.014  22.923  0.00  0.00    +0.001 A 
ATOM      9  C   UNL     1       9.356   0.883  22.613  0.00  0.00    +0.004 A 
ATOM     10  C   UNL     1       8.022   0.508  22.790  0.00  0.00    +0.047 A 
ATOM     11  C   UNL     1       8.328  -3.027  23.993  0.00  0.00    +0.138 A 
ENDROOT
BRANCH  11  12
ATOM     12  O   UNL     1       9.368  -3.910  24.173  0.00  0.00    -0.506 OA
ATOM     13  H   UNL     1       9.206  -4.330  25.036  0.00  0.00    +0.292 HD
ENDBRANCH  11  12
BRANCH   1  14
ATOM     14  C   UNL     1       6.536  -4.864  24.170  0.00  0.00    +0.062 C 
BRANCH  14  15
ATOM     15  C   UNL     1       6.149  -5.474  25.540  0.00  0.00    -0.040 A 
ATOM     16  C   UNL     1       6.911  -5.110  26.675  0.00  0.00    +0.004 A 
ATOM     17  C   UNL     1       6.599  -5.574  27.958  0.00  0.00    +0.000 A 
ATOM     18  C   UNL     1       5.490  -6.384  28.147  0.00  0.00    +0.000 A 
ATOM     19  C   UNL     1       4.748  -6.793  27.043  0.00  0.00    +0.000 A 
ATOM     20  C   UNL     1       5.104  -6.383  25.750  0.00  0.00    +0.004 A 
ENDBRANCH  14  15
BRANCH  14  21
ATOM     21  C   UNL     1       5.383  -5.230  23.172  0.00  0.00    +0.044 C 
BRANCH  21  22
ATOM     22  C   UNL     1       5.840  -5.658  21.768  0.00  0.00    +0.112 C 
ATOM     23  C   UNL     1       7.293  -6.116  21.775  0.00  0.00    +0.037 C 
BRANCH  22  24
ATOM     24  O   UNL     1       5.749  -4.586  20.834  0.00  0.00    -0.392 OA
ATOM     25  H   UNL     1       5.795  -4.978  19.945  0.00  0.00    +0.210 HD
ENDBRANCH  22  24
ENDBRANCH  21  22
ENDBRANCH  14  21
ENDBRANCH   1  14
TORSDOF 6
ENDMDL
MODEL 6
REMARK VINA RESULT:      -6.4      1.767      2.043
REMARK  Name = 
REMARK  7 active torsions:
REMARK  status: ('A' for Active; 'I' for Inactive)
REMARK    1  A    between atoms: C_2  and  C_3
REMARK    2  A    between atoms: C_2  and  O_4
REMARK    3  A    between atoms: C_2  and  C_5
REMARK    4  A    between atoms: C_5  and  C_6
REMARK    5  A    between atoms: C_6  and  C_8
REMARK    6  A    between atoms: C_6  and  C_14
REMARK    7  A    between atoms: C_15  and  O_16
REMARK                            x       y       z     vdW  Elec       q    Type
REMARK                         _______ _______ _______ _____ _____    ______ ____
ROOT
ATOM      1  C   UNL     1       7.120  -1.851  24.379  0.00  0.00    +0.086 A 
ATOM      2  C   UNL     1       6.141  -0.736  24.507  0.00  0.00    +0.345 A 
ATOM      3  O   UNL     1       5.252  -0.738  25.352  0.00  0.00    -0.245 OA
ATOM      4  O   UNL     1       6.239   0.313  23.596  0.00  0.00    -0.422 OA
ATOM      5  C   UNL     1       7.496   0.645  23.084  0.00  0.00    +0.143 A 
ATOM      6  C   UNL     1       8.593  -0.173  23.321  0.00  0.00    +0.059 A 
ATOM      7  C   UNL     1       9.841   0.220  22.825  0.00  0.00    +0.015 A 
ATOM      8  C   UNL     1       9.976   1.407  22.100  0.00  0.00    +0.001 A 
ATOM      9  C   UNL     1       8.863   2.213  21.866  0.00  0.00    +0.004 A 
ATOM     10  C   UNL     1       7.611   1.833  22.358  0.00  0.00    +0.047 A 
ATOM     11  C   UNL     1       8.352  -1.456  23.993  0.00  0.00    +0.138 A 
ENDROOT
BRANCH  11  12
ATOM     12  O   UNL     1       9.458  -2.268  24.094  0.00  0.00    -0.506 OA
ATOM     13  H   UNL     1      10.083  -1.942  23.422  0.00  0.00    +0.292 HD
ENDBRANCH  11  12
BRANCH   1  14
ATOM     14  C   UNL     1       6.739  -3.293  24.794  0.00  0.00    +0.062 C 
BRANCH  14  15
ATOM     15  C   UNL     1       6.502  -4.387  23.724  0.00  0.00    -0.040 A 
ATOM     16  C   UNL     1       5.175  -4.821  23.492  0.00  0.00    +0.004 A 
ATOM     17  C   UNL     1       4.865  -5.767  22.509  0.00  0.00    +0.000 A 
ATOM     18  C   UNL     1       5.871  -6.276  21.701  0.00  0.00    +0.000 A 
ATOM     19  C   UNL     1       7.190  -5.901  21.936  0.00  0.00    +0.000 A 
ATOM     20  C   UNL     1       7.505  -5.005  22.968  0.00  0.00    +0.004 A 
ENDBRANCH  14  15
BRANCH  14  21
ATOM     21  C   UNL     1       7.671  -3.925  25.885  0.00  0.00    +0.044 C 
BRANCH  21  22
ATOM     22  C   UNL     1       7.084  -5.135  26.631  0.00  0.00    +0.112 C 
ATOM     23  C   UNL     1       5.920  -4.723  27.523  0.00  0.00    +0.037 C 
BRANCH  22  24
ATOM     24  O   UNL     1       8.051  -5.756  27.471  0.00  0.00    -0.392 OA
ATOM     25  H   UNL     1       7.642  -6.563  27.830  0.00  0.00    +0.210 HD
ENDBRANCH  22  24
ENDBRANCH  21  22
ENDBRANCH  14  21
ENDBRANCH   1  14
TORSDOF 6
ENDMDL
MODEL 7
REMARK VINA RESULT:      -6.4      3.418      8.220
REMARK  Name = 
REMARK  7 active torsions:
REMARK  status: ('A' for Active; 'I' for Inactive)
REMARK    1  A    between atoms: C_2  and  C_3
REMARK    2  A    between atoms: C_2  and  O_4
REMARK    3  A    between atoms: C_2  and  C_5
REMARK    4  A    between atoms: C_5  and  C_6
REMARK    5  A    between atoms: C_6  and  C_8
REMARK    6  A    between atoms: C_6  and  C_14
REMARK    7  A    between atoms: C_15  and  O_16
REMARK                            x       y       z     vdW  Elec       q    Type
REMARK                         _______ _______ _______ _____ _____    ______ ____
ROOT
ATOM      1  C   UNL     1       8.615   2.865  23.877  0.00  0.00    +0.086 A 
ATOM      2  C   UNL     1       8.077   2.093  25.033  0.00  0.00    +0.345 A 
ATOM      3  O   UNL     1       7.180   2.525  25.749  0.00  0.00    -0.245 OA
ATOM      4  O   UNL     1       8.661   0.859  25.308  0.00  0.00    -0.422 OA
ATOM      5  C   UNL     1       9.185   0.111  24.251  0.00  0.00    +0.143 A 
ATOM      6  C   UNL     1       9.302   0.667  22.984  0.00  0.00    +0.059 A 
ATOM      7  C   UNL     1       9.793  -0.132  21.945  0.00  0.00    +0.015 A 
ATOM      8  C   UNL     1      10.165  -1.459  22.182  0.00  0.00    +0.001 A 
ATOM      9  C   UNL     1      10.046  -1.998  23.463  0.00  0.00    +0.004 A 
ATOM     10  C   UNL     1       9.555  -1.211  24.508  0.00  0.00    +0.047 A 
ATOM     11  C   UNL     1       8.999   2.096  22.837  0.00  0.00    +0.138 A 
ENDROOT
BRANCH  11  12
ATOM     12  O   UNL     1       9.244   2.610  21.585  0.00  0.00    -0.506 OA
ATOM     13  H   UNL     1      10.206   2.764  21.551  0.00  0.00    +0.292 HD
ENDBRANCH  11  12
BRANCH   1  14
ATOM     14  C   UNL     1       8.585   4.413  23.875  0.00  0.00    +0.062 C 
BRANCH  14  15
ATOM     15  C   UNL     1       9.871   5.228  24.159  0.00  0.00    -0.040 A 
ATOM     16  C   UNL     1       9.808   6.266  25.120  0.00  0.00    +0.004 A 
ATOM     17  C   UNL     1      10.934   7.016  25.475  0.00  0.00    +0.000 A 
ATOM     18  C   UNL     1      12.165   6.724  24.908  0.00  0.00    +0.000 A 
ATOM     19  C   UNL     1      12.248   5.738  23.929  0.00  0.00    +0.000 A 
ATOM     20  C   UNL     1      11.104   5.035  23.525  0.00  0.00    +0.004 A 
ENDBRANCH  14  15
BRANCH  14  21
ATOM     21  C   UNL     1       7.919   5.050  22.607  0.00  0.00    +0.044 C 
BRANCH  21  22
ATOM     22  C   UNL     1       6.391   5.208  22.676  0.00  0.00    +0.112 C 
ATOM     23  C   UNL     1       5.919   5.394  24.113  0.00  0.00    +0.037 C 
BRANCH  22  24
ATOM     24  O   UNL     1       5.719   4.061  22.165  0.00  0.00    -0.392 OA
ATOM     25  H   UNL     1       4.927   4.378  21.697  0.00  0.00    +0.210 HD
ENDBRANCH  22  24
ENDBRANCH  21  22
ENDBRANCH  14  21
ENDBRANCH   1  14
TORSDOF 6
ENDMDL
MODEL 8
REMARK VINA RESULT:      -6.4      1.679      5.883
REMARK  Name = 
REMARK  7 active torsions:
REMARK  status: ('A' for Active; 'I' for Inactive)
REMARK    1  A    between atoms: C_2  and  C_3
REMARK    2  A    between atoms: C_2  and  O_4
REMARK    3  A    between atoms: C_2  and  C_5
REMARK    4  A    between atoms: C_5  and  C_6
REMARK    5  A    between atoms: C_6  and  C_8
REMARK    6  A    between atoms: C_6  and  C_14
REMARK    7  A    between atoms: C_15  and  O_16
REMARK                            x       y       z     vdW  Elec       q    Type
REMARK                         _______ _______ _______ _____ _____    ______ ____
ROOT
ATOM      1  C   UNL     1       7.873  -1.870  24.596  0.00  0.00    +0.086 A 
ATOM      2  C   UNL     1       8.348  -3.088  25.309  0.00  0.00    +0.345 A 
ATOM      3  O   UNL     1       8.617  -3.084  26.506  0.00  0.00    -0.245 OA
ATOM      4  O   UNL     1       8.521  -4.247  24.556  0.00  0.00    -0.422 OA
ATOM      5  C   UNL     1       7.700  -4.457  23.445  0.00  0.00    +0.143 A 
ATOM      6  C   UNL     1       6.865  -3.447  22.984  0.00  0.00    +0.059 A 
ATOM      7  C   UNL     1       6.029  -3.716  21.895  0.00  0.00    +0.015 A 
ATOM      8  C   UNL     1       6.040  -4.972  21.281  0.00  0.00    +0.001 A 
ATOM      9  C   UNL     1       6.889  -5.972  21.755  0.00  0.00    +0.004 A 
ATOM     10  C   UNL     1       7.728  -5.717  22.843  0.00  0.00    +0.047 A 
ATOM     11  C   UNL     1       6.991  -2.124  23.607  0.00  0.00    +0.138 A 
ENDROOT
BRANCH  11  12
ATOM     12  O   UNL     1       6.220  -1.141  23.028  0.00  0.00    -0.506 OA
ATOM     13  H   UNL     1       5.335  -1.534  22.921  0.00  0.00    +0.292 HD
ENDBRANCH  11  12
BRANCH   1  14
ATOM     14  C   UNL     1       8.285  -0.457  25.078  0.00  0.00    +0.062 C 
BRANCH  14  15
ATOM     15  C   UNL     1       9.004   0.526  24.121  0.00  0.00    -0.040 A 
ATOM     16  C   UNL     1       9.368   0.063  22.834  0.00  0.00    +0.004 A 
ATOM     17  C   UNL     1       9.973   0.899  21.889  0.00  0.00    +0.000 A 
ATOM     18  C   UNL     1      10.194   2.234  22.191  0.00  0.00    +0.000 A 
ATOM     19  C   UNL     1       9.885   2.706  23.463  0.00  0.00    +0.000 A 
ATOM     20  C   UNL     1       9.343   1.849  24.431  0.00  0.00    +0.004 A 
ENDBRANCH  14  15
BRANCH  14  21
ATOM     21  C   UNL     1       7.139   0.353  25.778  0.00  0.00    +0.044 C 
BRANCH  21  22
ATOM     22  C   UNL     1       7.171   0.340  27.315  0.00  0.00    +0.112 C 
ATOM     23  C   UNL     1       6.954   1.736  27.885  0.00  0.00    +0.037 C 
BRANCH  22  24
ATOM     24  O   UNL     1       8.424  -0.119  27.813  0.00  0.00    -0.392 OA
ATOM     25  H   UNL     1       8.786  -0.735  27.152  0.00  0.00    +0.210 HD
ENDBRANCH  22  24
ENDBRANCH  21  22
ENDBRANCH  14  21
ENDBRANCH   1  14
TORSDOF 6
ENDMDL
MODEL 9
REMARK VINA RESULT:      -6.2      2.382      6.426
REMARK  Name = 
REMARK  7 active torsions:
REMARK  status: ('A' for Active; 'I' for Inactive)
REMARK    1  A    between atoms: C_2  and  C_3
REMARK    2  A    between atoms: C_2  and  O_4
REMARK    3  A    between atoms: C_2  and  C_5
REMARK    4  A    between atoms: C_5  and  C_6
REMARK    5  A    between atoms: C_6  and  C_8
REMARK    6  A    between atoms: C_6  and  C_14
REMARK    7  A    between atoms: C_15  and  O_16
REMARK                            x       y       z     vdW  Elec       q    Type
REMARK                         _______ _______ _______ _____ _____    ______ ____
ROOT
ATOM      1  C   UNL     1       7.044  -4.152  25.473  0.00  0.00    +0.086 A 
ATOM      2  C   UNL     1       7.973  -5.174  26.032  0.00  0.00    +0.345 A 
ATOM      3  O   UNL     1       9.129  -5.294  25.639  0.00  0.00    -0.245 OA
ATOM      4  O   UNL     1       7.471  -6.036  27.004  0.00  0.00    -0.422 OA
ATOM      5  C   UNL     1       6.468  -5.574  27.860  0.00  0.00    +0.143 A 
ATOM      6  C   UNL     1       5.845  -4.355  27.623  0.00  0.00    +0.059 A 
ATOM      7  C   UNL     1       4.875  -3.912  28.530  0.00  0.00    +0.015 A 
ATOM      8  C   UNL     1       4.537  -4.686  29.644  0.00  0.00    +0.001 A 
ATOM      9  C   UNL     1       5.170  -5.909  29.862  0.00  0.00    +0.004 A 
ATOM     10  C   UNL     1       6.140  -6.362  28.966  0.00  0.00    +0.047 A 
ATOM     11  C   UNL     1       6.172  -3.655  26.375  0.00  0.00    +0.138 A 
ENDROOT
BRANCH  11  12
ATOM     12  O   UNL     1       5.438  -2.514  26.147  0.00  0.00    -0.506 OA
ATOM     13  H   UNL     1       4.533  -2.821  25.955  0.00  0.00    +0.292 HD
ENDBRANCH  11  12
BRANCH   1  14
ATOM     14  C   UNL     1       7.202  -3.648  24.018  0.00  0.00    +0.062 C 
BRANCH  14  15
ATOM     15  C   UNL     1       8.284  -2.601  23.657  0.00  0.00    -0.040 A 
ATOM     16  C   UNL     1       8.485  -2.288  22.291  0.00  0.00    +0.004 A 
ATOM     17  C   UNL     1       9.404  -1.317  21.880  0.00  0.00    +0.000 A 
ATOM     18  C   UNL     1      10.121  -0.601  22.828  0.00  0.00    +0.000 A 
ATOM     19  C   UNL     1       9.975  -0.917  24.175  0.00  0.00    +0.000 A 
ATOM     20  C   UNL     1       9.104  -1.940  24.579  0.00  0.00    +0.004 A 
ENDBRANCH  14  15
BRANCH  14  21
ATOM     21  C   UNL     1       7.299  -4.785  22.942  0.00  0.00    +0.044 C 
BRANCH  21  22
ATOM     22  C   UNL     1       5.972  -5.156  22.258  0.00  0.00    +0.112 C 
ATOM     23  C   UNL     1       6.211  -5.781  20.889  0.00  0.00    +0.037 C 
BRANCH  22  24
ATOM     24  O   UNL     1       5.146  -4.014  22.054  0.00  0.00    -0.392 OA
ATOM     25  H   UNL     1       4.964  -3.960  21.100  0.00  0.00    +0.210 HD
ENDBRANCH  22  24
ENDBRANCH  21  22
ENDBRANCH  14  21
ENDBRANCH   1  14
TORSDOF 6
ENDMDL
