MODEL 1
REMARK VINA RESULT:      -6.0      0.000      0.000
REMARK  Name = 
REMARK  8 active torsions:
REMARK  status: ('A' for Active; 'I' for Inactive)
REMARK    1  A    between atoms: O_1  and  P_2
REMARK    2  A    between atoms: P_2  and  O_3
REMARK    3  A    between atoms: P_2  and  O_5
REMARK    4  A    between atoms: O_5  and  C_6
REMARK    5  A    between atoms: C_6  and  C_7
REMARK    6  A    between atoms: C_7  and  C_8
REMARK    7  A    between atoms: C_8  and  C_9
REMARK    8  A    between atoms: C_9  and  C_10
REMARK                            x       y       z     vdW  Elec       q    Type
REMARK                         _______ _______ _______ _____ _____    ______ ____
ROOT
ATOM      1  C   UNL     1       8.121  -0.833  22.873  0.00  0.00    +0.044 C 
ENDROOT
BRANCH   1   2
ATOM      2  C   UNL     1       8.997   0.374  23.039  0.00  0.00    +0.052 A 
ATOM      3  C   UNL     1       9.213   1.231  21.842  0.00  0.00    +0.259 A 
ATOM      4  O   UNL     1       8.727   0.952  20.750  0.00  0.00    -0.267 OA
ATOM      5  N   UNL     1       9.993   2.335  22.018  0.00  0.00    -0.275 N 
ATOM      6  H   UNL     1      10.160   2.918  21.214  0.00  0.00    +0.173 HD
ATOM      7  C   UNL     1      10.641   2.671  23.169  0.00  0.00    +0.328 A 
ATOM      8  O   UNL     1      11.374   3.650  23.245  0.00  0.00    -0.247 OA
ATOM      9  N   UNL     1      10.419   1.845  24.225  0.00  0.00    -0.298 N 
ATOM     10  H   UNL     1      10.889   2.064  25.094  0.00  0.00    +0.171 HD
ATOM     11  C   UNL     1       9.622   0.748  24.161  0.00  0.00    +0.119 A 
ATOM     12 CL   UNL     1       9.556  -0.098  25.649  0.00  0.00    -0.063 Cl
ENDBRANCH   1   2
BRANCH   1  13
ATOM     13  C   UNL     1       8.976  -2.086  22.693  0.00  0.00    +0.007 C 
BRANCH  13  14
ATOM     14  C   UNL     1       8.673  -3.127  23.767  0.00  0.00    +0.029 C 
BRANCH  14  15
ATOM     15  C   UNL     1       7.781  -4.230  23.220  0.00  0.00    +0.172 C 
BRANCH  15  16
ATOM     16  O   UNL     1       7.742  -5.315  24.137  0.00  0.00    -0.287 OA
BRANCH  16  17
ATOM     17  P   UNL     1       8.653  -5.008  25.575  0.00  0.00    +0.472 P 
ATOM     18  O   UNL     1       7.692  -5.820  26.435  0.00  0.00    -0.228 OA
BRANCH  17  19
ATOM     19  O   UNL     1       9.566  -4.701  27.012  0.00  0.00    -0.303 OA
ATOM     20  H   UNL     1       9.493  -3.725  27.087  0.00  0.00    +0.222 HD
ENDBRANCH  17  19
BRANCH  17  21
ATOM     21  O   UNL     1       9.853  -6.016  25.130  0.00  0.00    -0.303 OA
ATOM     22  H   UNL     1      10.207  -6.529  25.876  0.00  0.00    +0.222 HD
ENDBRANCH  17  21
ENDBRANCH  16  17
ENDBRANCH  15  16
ENDBRANCH  14  15
ENDBRANCH  13  14
ENDBRANCH   1  13
TORSDOF 8
ENDMDL
MODEL 2
REMARK VINA RESULT:      -5.9      3.850      7.115
REMARK  Name = 
REMARK  8 active torsions:
REMARK  status: ('A' for Active; 'I' for Inactive)
REMARK    1  A    between atoms: O_1  and  P_2
REMARK    2  A    between atoms: P_2  and  O_3
REMARK    3  A    between atoms: P_2  and  O_5
REMARK    4  A    between atoms: O_5  and  C_6
REMARK    5  A    between atoms: C_6  and  C_7
REMARK    6  A    between atoms: C_7  and  C_8
REMARK    7  A    between atoms: C_8  and  C_9
REMARK    8  A    between atoms: C_9  and  C_10
REMARK                            x       y       z     vdW  Elec       q    Type
REMARK                         _______ _______ _______ _____ _____    ______ ____
ROOT
ATOM      1  C   UNL     1       8.641  -3.092  23.470  0.00  0.00    +0.044 C 
ENDROOT
BRANCH   1   2
ATOM      2  C   UNL     1       8.220  -3.823  24.711  0.00  0.00    +0.052 A 
ATOM      3  C   UNL     1       9.210  -4.747  25.329  0.00  0.00    +0.259 A 
ATOM      4  O   UNL     1      10.316  -4.936  24.833  0.00  0.00    -0.267 OA
ATOM      5  N   UNL     1       8.816  -5.385  26.469  0.00  0.00    -0.275 N 
ATOM      6  H   UNL     1       9.470  -6.024  26.892  0.00  0.00    +0.173 HD
ATOM      7  C   UNL     1       7.580  -5.301  27.036  0.00  0.00    +0.328 A 
ATOM      8  O   UNL     1       7.271  -5.945  28.031  0.00  0.00    -0.247 OA
ATOM      9  N   UNL     1       6.713  -4.454  26.421  0.00  0.00    -0.298 N 
ATOM     10  H   UNL     1       5.784  -4.371  26.815  0.00  0.00    +0.171 HD
ATOM     11  C   UNL     1       7.027  -3.741  25.309  0.00  0.00    +0.119 A 
ATOM     12 CL   UNL     1       5.720  -2.777  24.762  0.00  0.00    -0.063 Cl
ENDBRANCH   1   2
BRANCH   1  13
ATOM     13  C   UNL     1       9.456  -1.854  23.835  0.00  0.00    +0.007 C 
BRANCH  13  14
ATOM     14  C   UNL     1      10.297  -1.371  22.657  0.00  0.00    +0.029 C 
BRANCH  14  15
ATOM     15  C   UNL     1       9.678  -0.142  22.013  0.00  0.00    +0.172 C 
BRANCH  15  16
ATOM     16  O   UNL     1       9.043   0.653  23.007  0.00  0.00    -0.287 OA
BRANCH  16  17
ATOM     17  P   UNL     1       9.670   2.264  23.074  0.00  0.00    +0.472 P 
ATOM     18  O   UNL     1      10.813   1.850  23.993  0.00  0.00    -0.228 OA
BRANCH  17  19
ATOM     19  O   UNL     1      10.296   3.875  23.140  0.00  0.00    -0.303 OA
ATOM     20  H   UNL     1      10.422   4.077  22.188  0.00  0.00    +0.222 HD
ENDBRANCH  17  19
BRANCH  17  21
ATOM     21  O   UNL     1      10.242   2.195  21.551  0.00  0.00    -0.303 OA
ATOM     22  H   UNL     1       9.554   2.370  20.885  0.00  0.00    +0.222 HD
ENDBRANCH  17  21
ENDBRANCH  16  17
ENDBRANCH  15  16
ENDBRANCH  14  15
ENDBRANCH  13  14
ENDBRANCH   1  13
TORSDOF 8
ENDMDL
MODEL 3
REMARK VINA RESULT:      -5.7      2.329      2.885
REMARK  Name = 
REMARK  8 active torsions:
REMARK  status: ('A' for Active; 'I' for Inactive)
REMARK    1  A    between atoms: O_1  and  P_2
REMARK    2  A    between atoms: P_2  and  O_3
REMARK    3  A    between atoms: P_2  and  O_5
REMARK    4  A    between atoms: O_5  and  C_6
REMARK    5  A    between atoms: C_6  and  C_7
REMARK    6  A    between atoms: C_7  and  C_8
REMARK    7  A    between atoms: C_8  and  C_9
REMARK    8  A    between atoms: C_9  and  C_10
REMARK                            x       y       z     vdW  Elec       q    Type
REMARK                         _______ _______ _______ _____ _____    ______ ____
ROOT
ATOM      1  C   UNL     1       8.186   0.466  24.314  0.00  0.00    +0.044 C 
ENDROOT
BRANCH   1   2
ATOM      2  C   UNL     1       8.641   1.888  24.167  0.00  0.00    +0.052 A 
ATOM      3  C   UNL     1       8.219   2.852  25.219  0.00  0.00    +0.259 A 
ATOM      4  O   UNL     1       7.501   2.516  26.155  0.00  0.00    -0.267 OA
ATOM      5  N   UNL     1       8.661   4.135  25.080  0.00  0.00    -0.275 N 
ATOM      6  H   UNL     1       8.374   4.803  25.777  0.00  0.00    +0.173 HD
ATOM      7  C   UNL     1       9.386   4.613  24.029  0.00  0.00    +0.328 A 
ATOM      8  O   UNL     1       9.704   5.792  23.936  0.00  0.00    -0.247 OA
ATOM      9  N   UNL     1       9.729   3.691  23.091  0.00  0.00    -0.298 N 
ATOM     10  H   UNL     1      10.264   4.014  22.295  0.00  0.00    +0.171 HD
ATOM     11  C   UNL     1       9.376   2.382  23.165  0.00  0.00    +0.119 A 
ATOM     12 CL   UNL     1       9.943   1.477  21.825  0.00  0.00    -0.063 Cl
ENDBRANCH   1   2
BRANCH   1  13
ATOM     13  C   UNL     1       9.240  -0.354  25.053  0.00  0.00    +0.007 C 
BRANCH  13  14
ATOM     14  C   UNL     1      10.038  -1.233  24.093  0.00  0.00    +0.029 C 
BRANCH  14  15
ATOM     15  C   UNL     1       9.310  -2.538  23.818  0.00  0.00    +0.172 C 
BRANCH  15  16
ATOM     16  O   UNL     1      10.096  -3.632  24.274  0.00  0.00    -0.287 OA
BRANCH  16  17
ATOM     17  P   UNL     1       9.200  -4.728  25.269  0.00  0.00    +0.472 P 
ATOM     18  O   UNL     1       8.617  -5.450  24.059  0.00  0.00    -0.228 OA
BRANCH  17  19
ATOM     19  O   UNL     1       8.306  -5.825  26.264  0.00  0.00    -0.303 OA
ATOM     20  H   UNL     1       9.014  -6.426  26.579  0.00  0.00    +0.222 HD
ENDBRANCH  17  19
BRANCH  17  21
ATOM     21  O   UNL     1      10.536  -5.550  25.709  0.00  0.00    -0.303 OA
ATOM     22  H   UNL     1      10.409  -6.057  26.530  0.00  0.00    +0.222 HD
ENDBRANCH  17  21
ENDBRANCH  16  17
ENDBRANCH  15  16
ENDBRANCH  14  15
ENDBRANCH  13  14
ENDBRANCH   1  13
TORSDOF 8
ENDMDL
MODEL 4
REMARK VINA RESULT:      -5.6      3.904      7.840
REMARK  Name = 
REMARK  8 active torsions:
REMARK  status: ('A' for Active; 'I' for Inactive)
REMARK    1  A    between atoms: O_1  and  P_2
REMARK    2  A    between atoms: P_2  and  O_3
REMARK    3  A    between atoms: P_2  and  O_5
REMARK    4  A    between atoms: O_5  and  C_6
REMARK    5  A    between atoms: C_6  and  C_7
REMARK    6  A    between atoms: C_7  and  C_8
REMARK    7  A    between atoms: C_8  and  C_9
REMARK    8  A    between atoms: C_9  and  C_10
REMARK                            x       y       z     vdW  Elec       q    Type
REMARK                         _______ _______ _______ _____ _____    ______ ____
ROOT
ATOM      1  C   UNL     1       9.992   1.408  24.473  0.00  0.00    +0.044 C 
ENDROOT
BRANCH   1   2
ATOM      2  C   UNL     1       9.363   0.111  24.055  0.00  0.00    +0.052 A 
ATOM      3  C   UNL     1       8.997  -0.849  25.131  0.00  0.00    +0.259 A 
ATOM      4  O   UNL     1       9.226  -0.615  26.314  0.00  0.00    -0.267 OA
ATOM      5  N   UNL     1       8.407  -2.013  24.733  0.00  0.00    -0.275 N 
ATOM      6  H   UNL     1       8.165  -2.679  25.448  0.00  0.00    +0.173 HD
ATOM      7  C   UNL     1       8.196  -2.391  23.440  0.00  0.00    +0.328 A 
ATOM      8  O   UNL     1       7.711  -3.477  23.147  0.00  0.00    -0.247 OA
ATOM      9  N   UNL     1       8.563  -1.481  22.499  0.00  0.00    -0.298 N 
ATOM     10  H   UNL     1       8.424  -1.733  21.529  0.00  0.00    +0.171 HD
ATOM     11  C   UNL     1       9.116  -0.278  22.800  0.00  0.00    +0.119 A 
ATOM     12 CL   UNL     1       9.484   0.638  21.399  0.00  0.00    -0.063 Cl
ENDBRANCH   1   2
BRANCH   1  13
ATOM     13  C   UNL     1       8.948   2.522  24.487  0.00  0.00    +0.007 C 
BRANCH  13  14
ATOM     14  C   UNL     1       9.331   3.657  23.541  0.00  0.00    +0.029 C 
BRANCH  14  15
ATOM     15  C   UNL     1      10.245   4.656  24.230  0.00  0.00    +0.172 C 
BRANCH  15  16
ATOM     16  O   UNL     1      10.930   5.432  23.256  0.00  0.00    -0.287 OA
BRANCH  16  17
ATOM     17  P   UNL     1      12.639   5.162  23.268  0.00  0.00    +0.472 P 
ATOM     18  O   UNL     1      12.817   5.816  21.902  0.00  0.00    -0.228 OA
BRANCH  17  19
ATOM     19  O   UNL     1      14.348   4.893  23.281  0.00  0.00    -0.303 OA
ATOM     20  H   UNL     1      14.689   5.781  23.040  0.00  0.00    +0.222 HD
ENDBRANCH  17  19
BRANCH  17  21
ATOM     21  O   UNL     1      12.898   6.322  24.382  0.00  0.00    -0.303 OA
ATOM     22  H   UNL     1      12.218   6.330  25.077  0.00  0.00    +0.222 HD
ENDBRANCH  17  21
ENDBRANCH  16  17
ENDBRANCH  15  16
ENDBRANCH  14  15
ENDBRANCH  13  14
ENDBRANCH   1  13
TORSDOF 8
ENDMDL
MODEL 5
REMARK VINA RESULT:      -5.6      4.265      7.284
REMARK  Name = 
REMARK  8 active torsions:
REMARK  status: ('A' for Active; 'I' for Inactive)
REMARK    1  A    between atoms: O_1  and  P_2
REMARK    2  A    between atoms: P_2  and  O_3
REMARK    3  A    between atoms: P_2  and  O_5
REMARK    4  A    between atoms: O_5  and  C_6
REMARK    5  A    between atoms: C_6  and  C_7
REMARK    6  A    between atoms: C_7  and  C_8
REMARK    7  A    between atoms: C_8  and  C_9
REMARK    8  A    between atoms: C_9  and  C_10
REMARK                            x       y       z     vdW  Elec       q    Type
REMARK                         _______ _______ _______ _____ _____    ______ ____
ROOT
ATOM      1  C   UNL     1       7.918  -3.415  23.916  0.00  0.00    +0.044 C 
ENDROOT
BRANCH   1   2
ATOM      2  C   UNL     1       7.665  -4.207  25.166  0.00  0.00    +0.052 A 
ATOM      3  C   UNL     1       6.303  -4.132  25.758  0.00  0.00    +0.259 A 
ATOM      4  O   UNL     1       5.423  -3.429  25.271  0.00  0.00    -0.267 OA
ATOM      5  N   UNL     1       6.086  -4.876  26.881  0.00  0.00    -0.275 N 
ATOM      6  H   UNL     1       5.172  -4.826  27.301  0.00  0.00    +0.173 HD
ATOM      7  C   UNL     1       7.027  -5.613  27.535  0.00  0.00    +0.328 A 
ATOM      8  O   UNL     1       6.782  -6.216  28.573  0.00  0.00    -0.247 OA
ATOM      9  N   UNL     1       8.258  -5.633  26.957  0.00  0.00    -0.298 N 
ATOM     10  H   UNL     1       8.981  -6.168  27.420  0.00  0.00    +0.171 HD
ATOM     11  C   UNL     1       8.557  -4.962  25.815  0.00  0.00    +0.119 A 
ATOM     12 CL   UNL     1      10.193  -5.170  25.348  0.00  0.00    -0.063 Cl
ENDBRANCH   1   2
BRANCH   1  13
ATOM     13  C   UNL     1       8.624  -2.104  24.254  0.00  0.00    +0.007 C 
BRANCH  13  14
ATOM     14  C   UNL     1       9.924  -1.952  23.470  0.00  0.00    +0.029 C 
BRANCH  14  15
ATOM     15  C   UNL     1      10.250  -0.487  23.234  0.00  0.00    +0.172 C 
BRANCH  15  16
ATOM     16  O   UNL     1       9.814  -0.101  21.937  0.00  0.00    -0.287 OA
BRANCH  16  17
ATOM     17  P   UNL     1       9.021   1.437  21.929  0.00  0.00    +0.472 P 
ATOM     18  O   UNL     1       8.872   1.440  23.446  0.00  0.00    -0.228 OA
BRANCH  17  19
ATOM     19  O   UNL     1       8.230   2.976  21.920  0.00  0.00    -0.303 OA
ATOM     20  H   UNL     1       8.991   3.589  22.006  0.00  0.00    +0.222 HD
ENDBRANCH  17  19
BRANCH  17  21
ATOM     21  O   UNL     1      10.398   2.239  21.590  0.00  0.00    -0.303 OA
ATOM     22  H   UNL     1      10.980   1.744  20.988  0.00  0.00    +0.222 HD
ENDBRANCH  17  21
ENDBRANCH  16  17
ENDBRANCH  15  16
ENDBRANCH  14  15
ENDBRANCH  13  14
ENDBRANCH   1  13
TORSDOF 8
ENDMDL
MODEL 6
REMARK VINA RESULT:      -5.5      1.960      2.413
REMARK  Name = 
REMARK  8 active torsions:
REMARK  status: ('A' for Active; 'I' for Inactive)
REMARK    1  A    between atoms: O_1  and  P_2
REMARK    2  A    between atoms: P_2  and  O_3
REMARK    3  A    between atoms: P_2  and  O_5
REMARK    4  A    between atoms: O_5  and  C_6
REMARK    5  A    between atoms: C_6  and  C_7
REMARK    6  A    between atoms: C_7  and  C_8
REMARK    7  A    between atoms: C_8  and  C_9
REMARK    8  A    between atoms: C_9  and  C_10
REMARK                            x       y       z     vdW  Elec       q    Type
REMARK                         _______ _______ _______ _____ _____    ______ ____
ROOT
ATOM      1  C   UNL     1      10.127   0.689  24.666  0.00  0.00    +0.044 C 
ENDROOT
BRANCH   1   2
ATOM      2  C   UNL     1       9.197   1.649  23.984  0.00  0.00    +0.052 A 
ATOM      3  C   UNL     1       9.488   1.990  22.565  0.00  0.00    +0.259 A 
ATOM      4  O   UNL     1      10.465   1.536  21.978  0.00  0.00    -0.267 OA
ATOM      5  N   UNL     1       8.619   2.848  21.956  0.00  0.00    -0.275 N 
ATOM      6  H   UNL     1       8.810   3.098  20.999  0.00  0.00    +0.173 HD
ATOM      7  C   UNL     1       7.564   3.465  22.558  0.00  0.00    +0.328 A 
ATOM      8  O   UNL     1       6.853   4.270  21.968  0.00  0.00    -0.247 OA
ATOM      9  N   UNL     1       7.355   3.127  23.858  0.00  0.00    -0.298 N 
ATOM     10  H   UNL     1       6.581   3.571  24.336  0.00  0.00    +0.171 HD
ATOM     11  C   UNL     1       8.137   2.249  24.537  0.00  0.00    +0.119 A 
ATOM     12 CL   UNL     1       7.630   2.044  26.160  0.00  0.00    -0.063 Cl
ENDBRANCH   1   2
BRANCH   1  13
ATOM     13  C   UNL     1       9.454  -0.672  24.832  0.00  0.00    +0.007 C 
BRANCH  13  14
ATOM     14  C   UNL     1       9.595  -1.521  23.572  0.00  0.00    +0.029 C 
BRANCH  14  15
ATOM     15  C   UNL     1       8.927  -2.874  23.750  0.00  0.00    +0.172 C 
BRANCH  15  16
ATOM     16  O   UNL     1       9.817  -3.768  24.406  0.00  0.00    -0.287 OA
BRANCH  16  17
ATOM     17  P   UNL     1       9.030  -4.736  25.604  0.00  0.00    +0.472 P 
ATOM     18  O   UNL     1       7.737  -4.796  24.798  0.00  0.00    -0.228 OA
BRANCH  17  19
ATOM     19  O   UNL     1       8.244  -5.706  26.802  0.00  0.00    -0.303 OA
ATOM     20  H   UNL     1       8.860  -5.617  27.561  0.00  0.00    +0.222 HD
ENDBRANCH  17  19
BRANCH  17  21
ATOM     21  O   UNL     1       9.889  -6.065  25.214  0.00  0.00    -0.303 OA
ATOM     22  H   UNL     1      10.123  -6.095  24.271  0.00  0.00    +0.222 HD
ENDBRANCH  17  21
ENDBRANCH  16  17
ENDBRANCH  15  16
ENDBRANCH  14  15
ENDBRANCH  13  14
ENDBRANCH   1  13
TORSDOF 8
ENDMDL
MODEL 7
REMARK VINA RESULT:      -5.5      4.255      6.690
REMARK  Name = 
REMARK  8 active torsions:
REMARK  status: ('A' for Active; 'I' for Inactive)
REMARK    1  A    between atoms: O_1  and  P_2
REMARK    2  A    between atoms: P_2  and  O_3
REMARK    3  A    between atoms: P_2  and  O_5
REMARK    4  A    between atoms: O_5  and  C_6
REMARK    5  A    between atoms: C_6  and  C_7
REMARK    6  A    between atoms: C_7  and  C_8
REMARK    7  A    between atoms: C_8  and  C_9
REMARK    8  A    between atoms: C_9  and  C_10
REMARK                            x       y       z     vdW  Elec       q    Type
REMARK                         _______ _______ _______ _____ _____    ______ ____
ROOT
ATOM      1  C   UNL     1       8.618  -2.120  24.564  0.00  0.00    +0.044 C 
ENDROOT
BRANCH   1   2
ATOM      2  C   UNL     1       7.862  -3.056  23.667  0.00  0.00    +0.052 A 
ATOM      3  C   UNL     1       6.930  -2.450  22.678  0.00  0.00    +0.259 A 
ATOM      4  O   UNL     1       6.754  -1.237  22.613  0.00  0.00    -0.267 OA
ATOM      5  N   UNL     1       6.269  -3.315  21.857  0.00  0.00    -0.275 N 
ATOM      6  H   UNL     1       5.624  -2.921  21.191  0.00  0.00    +0.173 HD
ATOM      7  C   UNL     1       6.338  -4.675  21.920  0.00  0.00    +0.328 A 
ATOM      8  O   UNL     1       5.673  -5.398  21.188  0.00  0.00    -0.247 OA
ATOM      9  N   UNL     1       7.193  -5.173  22.851  0.00  0.00    -0.298 N 
ATOM     10  H   UNL     1       7.265  -6.179  22.927  0.00  0.00    +0.171 HD
ATOM     11  C   UNL     1       7.929  -4.391  23.683  0.00  0.00    +0.119 A 
ATOM     12 CL   UNL     1       8.898  -5.312  24.755  0.00  0.00    -0.063 Cl
ENDBRANCH   1   2
BRANCH   1  13
ATOM     13  C   UNL     1      10.058  -1.969  24.080  0.00  0.00    +0.007 C 
BRANCH  13  14
ATOM     14  C   UNL     1      10.300  -0.592  23.469  0.00  0.00    +0.029 C 
BRANCH  14  15
ATOM     15  C   UNL     1      10.295   0.486  24.540  0.00  0.00    +0.172 C 
BRANCH  15  16
ATOM     16  O   UNL     1      10.001   1.747  23.951  0.00  0.00    -0.287 OA
BRANCH  16  17
ATOM     17  P   UNL     1       9.281   1.600  22.385  0.00  0.00    +0.472 P 
ATOM     18  O   UNL     1       8.156   2.565  22.741  0.00  0.00    -0.228 OA
BRANCH  17  19
ATOM     19  O   UNL     1       8.562   1.454  20.818  0.00  0.00    -0.303 OA
ATOM     20  H   UNL     1       9.041   2.149  20.316  0.00  0.00    +0.222 HD
ENDBRANCH  17  19
BRANCH  17  21
ATOM     21  O   UNL     1      10.451   2.483  21.673  0.00  0.00    -0.303 OA
ATOM     22  H   UNL     1      11.338   2.113  21.817  0.00  0.00    +0.222 HD
ENDBRANCH  17  21
ENDBRANCH  16  17
ENDBRANCH  15  16
ENDBRANCH  14  15
ENDBRANCH  13  14
ENDBRANCH   1  13
TORSDOF 8
ENDMDL
MODEL 8
REMARK VINA RESULT:      -5.4      2.543      2.899
REMARK  Name = 
REMARK  8 active torsions:
REMARK  status: ('A' for Active; 'I' for Inactive)
REMARK    1  A    between atoms: O_1  and  P_2
REMARK    2  A    between atoms: P_2  and  O_3
REMARK    3  A    between atoms: P_2  and  O_5
REMARK    4  A    between atoms: O_5  and  C_6
REMARK    5  A    between atoms: C_6  and  C_7
REMARK    6  A    between atoms: C_7  and  C_8
REMARK    7  A    between atoms: C_8  and  C_9
REMARK    8  A    between atoms: C_9  and  C_10
REMARK                            x       y       z     vdW  Elec       q    Type
REMARK                         _______ _______ _______ _____ _____    ______ ____
ROOT
ATOM      1  C   UNL     1       8.128  -0.111  23.733  0.00  0.00    +0.044 C 
ENDROOT
BRANCH   1   2
ATOM      2  C   UNL     1       7.866   1.300  23.295  0.00  0.00    +0.052 A 
ATOM      3  C   UNL     1       6.569   1.909  23.694  0.00  0.00    +0.259 A 
ATOM      4  O   UNL     1       5.727   1.282  24.327  0.00  0.00    -0.267 OA
ATOM      5  N   UNL     1       6.359   3.200  23.305  0.00  0.00    -0.275 N 
ATOM      6  H   UNL     1       5.480   3.623  23.557  0.00  0.00    +0.173 HD
ATOM      7  C   UNL     1       7.200   3.940  22.529  0.00  0.00    +0.328 A 
ATOM      8  O   UNL     1       6.926   5.078  22.167  0.00  0.00    -0.247 OA
ATOM      9  N   UNL     1       8.363   3.327  22.181  0.00  0.00    -0.298 N 
ATOM     10  H   UNL     1       9.008   3.847  21.601  0.00  0.00    +0.171 HD
ATOM     11  C   UNL     1       8.682   2.062  22.558  0.00  0.00    +0.119 A 
ATOM     12 CL   UNL     1      10.205   1.566  21.951  0.00  0.00    -0.063 Cl
ENDBRANCH   1   2
BRANCH   1  13
ATOM     13  C   UNL     1       7.904  -1.077  22.571  0.00  0.00    +0.007 C 
BRANCH  13  14
ATOM     14  C   UNL     1       8.746  -2.340  22.723  0.00  0.00    +0.029 C 
BRANCH  14  15
ATOM     15  C   UNL     1       9.349  -2.427  24.116  0.00  0.00    +0.172 C 
BRANCH  15  16
ATOM     16  O   UNL     1      10.045  -3.658  24.262  0.00  0.00    -0.287 OA
BRANCH  16  17
ATOM     17  P   UNL     1       9.207  -4.784  25.274  0.00  0.00    +0.472 P 
ATOM     18  O   UNL     1       8.631  -5.531  24.076  0.00  0.00    -0.228 OA
BRANCH  17  19
ATOM     19  O   UNL     1       8.370  -5.909  26.287  0.00  0.00    -0.303 OA
ATOM     20  H   UNL     1       8.571  -5.556  27.180  0.00  0.00    +0.222 HD
ENDBRANCH  17  19
BRANCH  17  21
ATOM     21  O   UNL     1      10.579  -5.554  25.695  0.00  0.00    -0.303 OA
ATOM     22  H   UNL     1      10.409  -6.396  26.151  0.00  0.00    +0.222 HD
ENDBRANCH  17  21
ENDBRANCH  16  17
ENDBRANCH  15  16
ENDBRANCH  14  15
ENDBRANCH  13  14
ENDBRANCH   1  13
TORSDOF 8
ENDMDL
MODEL 9
REMARK VINA RESULT:      -5.3      1.854      2.148
REMARK  Name = 
REMARK  8 active torsions:
REMARK  status: ('A' for Active; 'I' for Inactive)
REMARK    1  A    between atoms: O_1  and  P_2
REMARK    2  A    between atoms: P_2  and  O_3
REMARK    3  A    between atoms: P_2  and  O_5
REMARK    4  A    between atoms: O_5  and  C_6
REMARK    5  A    between atoms: C_6  and  C_7
REMARK    6  A    between atoms: C_7  and  C_8
REMARK    7  A    between atoms: C_8  and  C_9
REMARK    8  A    between atoms: C_9  and  C_10
REMARK                            x       y       z     vdW  Elec       q    Type
REMARK                         _______ _______ _______ _____ _____    ______ ____
ROOT
ATOM      1  C   UNL     1       7.927  -0.391  23.289  0.00  0.00    +0.044 C 
ENDROOT
BRANCH   1   2
ATOM      2  C   UNL     1       8.883   0.765  23.259  0.00  0.00    +0.052 A 
ATOM      3  C   UNL     1      10.055   0.707  24.173  0.00  0.00    +0.259 A 
ATOM      4  O   UNL     1      10.225  -0.229  24.948  0.00  0.00    -0.267 OA
ATOM      5  N   UNL     1      10.924   1.756  24.114  0.00  0.00    -0.275 N 
ATOM      6  H   UNL     1      11.716   1.738  24.737  0.00  0.00    +0.173 HD
ATOM      7  C   UNL     1      10.766   2.873  23.350  0.00  0.00    +0.328 A 
ATOM      8  O   UNL     1      11.557   3.808  23.385  0.00  0.00    -0.247 OA
ATOM      9  N   UNL     1       9.670   2.879  22.546  0.00  0.00    -0.298 N 
ATOM     10  H   UNL     1       9.521   3.696  21.968  0.00  0.00    +0.171 HD
ATOM     11  C   UNL     1       8.772   1.861  22.500  0.00  0.00    +0.119 A 
ATOM     12 CL   UNL     1       7.493   2.170  21.403  0.00  0.00    -0.063 Cl
ENDBRANCH   1   2
BRANCH   1  13
ATOM     13  C   UNL     1       8.365  -1.467  22.298  0.00  0.00    +0.007 C 
BRANCH  13  14
ATOM     14  C   UNL     1       7.936  -2.857  22.759  0.00  0.00    +0.029 C 
BRANCH  14  15
ATOM     15  C   UNL     1       7.519  -2.843  24.220  0.00  0.00    +0.172 C 
BRANCH  15  16
ATOM     16  O   UNL     1       7.346  -4.175  24.683  0.00  0.00    -0.287 OA
BRANCH  16  17
ATOM     17  P   UNL     1       8.816  -4.875  25.271  0.00  0.00    +0.472 P 
ATOM     18  O   UNL     1       8.077  -5.715  26.306  0.00  0.00    -0.228 OA
BRANCH  17  19
ATOM     19  O   UNL     1      10.286  -5.574  25.857  0.00  0.00    -0.303 OA
ATOM     20  H   UNL     1      10.938  -5.236  25.205  0.00  0.00    +0.222 HD
ENDBRANCH  17  19
BRANCH  17  21
ATOM     21  O   UNL     1       8.998  -5.809  23.948  0.00  0.00    -0.303 OA
ATOM     22  H   UNL     1       9.393  -6.673  24.153  0.00  0.00    +0.222 HD
ENDBRANCH  17  21
ENDBRANCH  16  17
ENDBRANCH  15  16
ENDBRANCH  14  15
ENDBRANCH  13  14
ENDBRANCH   1  13
TORSDOF 8
ENDMDL
