MODEL 1
REMARK VINA RESULT:      -7.1      0.000      0.000
REMARK  Name = 
REMARK  10 active torsions:
REMARK  status: ('A' for Active; 'I' for Inactive)
REMARK    1  A    between atoms: C_1  and  O_2
REMARK    2  A    between atoms: O_2  and  C_3
REMARK    3  A    between atoms: C_5  and  N_6
REMARK    4  A    between atoms: N_12  and  C_13
REMARK    5  A    between atoms: C_17  and  O_18
REMARK    6  A    between atoms: O_18  and  C_19
REMARK    7  A    between atoms: C_24  and  O_25
REMARK    8  A    between atoms: O_25  and  C_26
REMARK    9  A    between atoms: C_27  and  O_28
REMARK   10  A    between atoms: O_28  and  C_29
REMARK                            x       y       z     vdW  Elec       q    Type
REMARK                         _______ _______ _______ _____ _____    ______ ____
ROOT
ATOM      1  N   UNL     1       9.156  -3.667  24.135  0.00  0.00    -0.283 N 
ATOM      2  H   UNL     1       9.997  -4.212  24.001  0.00  0.00    +0.155 HD
ATOM      3  C   UNL     1       9.304  -2.416  23.523  0.00  0.00    +0.224 A 
ATOM      4  N   UNL     1       8.339  -1.497  23.600  0.00  0.00    -0.181 NA
ATOM      5  C   UNL     1       8.537  -0.353  22.958  0.00  0.00    +0.224 A 
ATOM      6  N   UNL     1       7.491   0.575  23.014  0.00  0.00    -0.283 N 
ATOM      7  H   UNL     1       6.752   0.213  23.605  0.00  0.00    +0.155 HD
ATOM      8  N   UNL     1       9.624  -0.096  22.242  0.00  0.00    -0.203 NA
ATOM      9  C   UNL     1      10.529  -1.063  22.232  0.00  0.00    +0.228 A 
ATOM     10  N   UNL     1      10.441  -2.228  22.863  0.00  0.00    -0.203 NA
ENDROOT
BRANCH   6  11
ATOM     11  C   UNL     1       7.558   1.978  22.955  0.00  0.00    +0.035 A 
ATOM     12  C   UNL     1       6.521   2.689  22.335  0.00  0.00    +0.027 A 
ATOM     13  C   UNL     1       6.557   4.087  22.247  0.00  0.00    +0.049 A 
ATOM     14  C   UNL     1       7.622   4.805  22.799  0.00  0.00    +0.138 A 
ATOM     15  C   UNL     1       8.670   4.096  23.399  0.00  0.00    +0.084 A 
ATOM     16 CL   UNL     1      10.027   4.908  24.098  0.00  0.00    -0.080 Cl
ATOM     17  C   UNL     1       8.634   2.700  23.475  0.00  0.00    +0.047 A 
BRANCH  14  18
ATOM     18  O   UNL     1       7.732   6.168  22.755  0.00  0.00    -0.494 OA
ATOM     19  C   UNL     1       6.861   6.839  21.855  0.00  0.00    +0.277 C 
ENDBRANCH  14  18
ENDBRANCH   6  11
BRANCH   1  24
ATOM     20  C   UNL     1       6.586  -5.622  26.040  0.00  0.00    +0.167 A 
ATOM     21  C   UNL     1       5.680  -5.973  25.024  0.00  0.00    +0.204 A 
ATOM     22  C   UNL     1       5.971  -5.558  23.703  0.00  0.00    +0.167 A 
ATOM     23  C   UNL     1       7.138  -4.817  23.423  0.00  0.00    +0.073 A 
ATOM     24  C   UNL     1       7.995  -4.398  24.438  0.00  0.00    +0.041 A 
ATOM     25  C   UNL     1       7.687  -4.810  25.732  0.00  0.00    +0.073 A 
BRANCH  20  27
ATOM     26  C   UNL     1       5.895  -5.065  28.243  0.00  0.00    +0.277 C 
ATOM     27  O   UNL     1       6.390  -6.048  27.334  0.00  0.00    -0.491 OA
ENDBRANCH  20  27
BRANCH  21  28
ATOM     28  O   UNL     1       4.540  -6.713  25.185  0.00  0.00    -0.488 OA
ATOM     29  C   UNL     1       3.324  -6.095  25.568  0.00  0.00    +0.277 C 
ENDBRANCH  21  28
BRANCH  22  30
ATOM     30  O   UNL     1       5.254  -5.849  22.565  0.00  0.00    -0.491 OA
ATOM     31  C   UNL     1       5.963  -5.880  21.332  0.00  0.00    +0.277 C 
ENDBRANCH  22  30
ENDBRANCH   1  24
TORSDOF 6
ENDMDL
MODEL 2
REMARK VINA RESULT:      -7.0      0.830      2.553
REMARK  Name = 
REMARK  10 active torsions:
REMARK  status: ('A' for Active; 'I' for Inactive)
REMARK    1  A    between atoms: C_1  and  O_2
REMARK    2  A    between atoms: O_2  and  C_3
REMARK    3  A    between atoms: C_5  and  N_6
REMARK    4  A    between atoms: N_12  and  C_13
REMARK    5  A    between atoms: C_17  and  O_18
REMARK    6  A    between atoms: O_18  and  C_19
REMARK    7  A    between atoms: C_24  and  O_25
REMARK    8  A    between atoms: O_25  and  C_26
REMARK    9  A    between atoms: C_27  and  O_28
REMARK   10  A    between atoms: O_28  and  C_29
REMARK                            x       y       z     vdW  Elec       q    Type
REMARK                         _______ _______ _______ _____ _____    ______ ____
ROOT
ATOM      1  N   UNL     1       8.894  -4.008  24.446  0.00  0.00    -0.283 N 
ATOM      2  H   UNL     1       9.762  -4.525  24.487  0.00  0.00    +0.155 HD
ATOM      3  C   UNL     1       9.135  -2.723  23.943  0.00  0.00    +0.224 A 
ATOM      4  N   UNL     1       8.147  -1.833  23.833  0.00  0.00    -0.181 NA
ATOM      5  C   UNL     1       8.447  -0.653  23.308  0.00  0.00    +0.224 A 
ATOM      6  N   UNL     1       7.384   0.245  23.160  0.00  0.00    -0.283 N 
ATOM      7  H   UNL     1       6.541  -0.165  23.545  0.00  0.00    +0.155 HD
ATOM      8  N   UNL     1       9.661  -0.332  22.879  0.00  0.00    -0.203 NA
ATOM      9  C   UNL     1      10.577  -1.275  23.037  0.00  0.00    +0.228 A 
ATOM     10  N   UNL     1      10.387  -2.474  23.576  0.00  0.00    -0.203 NA
ENDROOT
BRANCH   6  11
ATOM     11  C   UNL     1       7.412   1.650  23.182  0.00  0.00    +0.035 A 
ATOM     12  C   UNL     1       7.098   2.361  22.016  0.00  0.00    +0.027 A 
ATOM     13  C   UNL     1       7.126   3.763  21.996  0.00  0.00    +0.049 A 
ATOM     14  C   UNL     1       7.447   4.482  23.151  0.00  0.00    +0.138 A 
ATOM     15  C   UNL     1       7.782   3.774  24.311  0.00  0.00    +0.084 A 
ATOM     16 CL   UNL     1       8.199   4.588  25.778  0.00  0.00    -0.080 Cl
ATOM     17  C   UNL     1       7.763   2.375  24.323  0.00  0.00    +0.047 A 
BRANCH  14  18
ATOM     18  O   UNL     1       7.497   5.848  23.214  0.00  0.00    -0.494 OA
ATOM     19  C   UNL     1       7.262   6.541  21.995  0.00  0.00    +0.277 C 
ENDBRANCH  14  18
ENDBRANCH   6  11
BRANCH   1  24
ATOM     20  C   UNL     1       5.780  -5.722  23.253  0.00  0.00    +0.167 A 
ATOM     21  C   UNL     1       5.281  -6.274  24.446  0.00  0.00    +0.204 A 
ATOM     22  C   UNL     1       5.999  -6.034  25.640  0.00  0.00    +0.167 A 
ATOM     23  C   UNL     1       7.180  -5.261  25.627  0.00  0.00    +0.073 A 
ATOM     24  C   UNL     1       7.722  -4.782  24.435  0.00  0.00    +0.041 A 
ATOM     25  C   UNL     1       7.003  -5.036  23.270  0.00  0.00    +0.073 A 
BRANCH  20  27
ATOM     26  C   UNL     1       5.890  -5.850  20.884  0.00  0.00    +0.277 C 
ATOM     27  O   UNL     1       5.095  -5.870  22.070  0.00  0.00    -0.491 OA
ENDBRANCH  20  27
BRANCH  21  28
ATOM     28  O   UNL     1       4.133  -7.009  24.572  0.00  0.00    -0.488 OA
ATOM     29  C   UNL     1       2.882  -6.369  24.760  0.00  0.00    +0.277 C 
ENDBRANCH  21  28
BRANCH  22  30
ATOM     30  O   UNL     1       5.650  -6.426  26.913  0.00  0.00    -0.491 OA
ATOM     31  C   UNL     1       6.006  -5.564  27.987  0.00  0.00    +0.277 C 
ENDBRANCH  22  30
ENDBRANCH   1  24
TORSDOF 6
ENDMDL
MODEL 3
REMARK VINA RESULT:      -6.7      2.847      9.320
REMARK  Name = 
REMARK  10 active torsions:
REMARK  status: ('A' for Active; 'I' for Inactive)
REMARK    1  A    between atoms: C_1  and  O_2
REMARK    2  A    between atoms: O_2  and  C_3
REMARK    3  A    between atoms: C_5  and  N_6
REMARK    4  A    between atoms: N_12  and  C_13
REMARK    5  A    between atoms: C_17  and  O_18
REMARK    6  A    between atoms: O_18  and  C_19
REMARK    7  A    between atoms: C_24  and  O_25
REMARK    8  A    between atoms: O_25  and  C_26
REMARK    9  A    between atoms: C_27  and  O_28
REMARK   10  A    between atoms: O_28  and  C_29
REMARK                            x       y       z     vdW  Elec       q    Type
REMARK                         _______ _______ _______ _____ _____    ______ ____
ROOT
ATOM      1  N   UNL     1       9.683   0.661  22.544  0.00  0.00    -0.283 N 
ATOM      2  H   UNL     1      10.664   0.726  22.312  0.00  0.00    +0.155 HD
ATOM      3  C   UNL     1       9.397  -0.622  23.028  0.00  0.00    +0.224 A 
ATOM      4  N   UNL     1       8.152  -0.967  23.363  0.00  0.00    -0.181 NA
ATOM      5  C   UNL     1       7.970  -2.186  23.853  0.00  0.00    +0.224 A 
ATOM      6  N   UNL     1       6.664  -2.506  24.241  0.00  0.00    -0.283 N 
ATOM      7  H   UNL     1       6.049  -1.732  24.023  0.00  0.00    +0.155 HD
ATOM      8  N   UNL     1       8.957  -3.053  24.038  0.00  0.00    -0.203 NA
ATOM      9  C   UNL     1      10.155  -2.625  23.668  0.00  0.00    +0.228 A 
ATOM     10  N   UNL     1      10.437  -1.439  23.141  0.00  0.00    -0.203 NA
ENDROOT
BRANCH   6  11
ATOM     11  C   UNL     1       6.037  -3.764  24.257  0.00  0.00    +0.035 A 
ATOM     12  C   UNL     1       5.528  -4.292  23.063  0.00  0.00    +0.027 A 
ATOM     13  C   UNL     1       4.886  -5.538  23.040  0.00  0.00    +0.049 A 
ATOM     14  C   UNL     1       4.762  -6.292  24.211  0.00  0.00    +0.138 A 
ATOM     15  C   UNL     1       5.250  -5.758  25.409  0.00  0.00    +0.084 A 
ATOM     16 CL   UNL     1       5.126  -6.622  26.901  0.00  0.00    -0.080 Cl
ATOM     17  C   UNL     1       5.879  -4.509  25.428  0.00  0.00    +0.047 A 
BRANCH  14  18
ATOM     18  O   UNL     1       4.150  -7.515  24.273  0.00  0.00    -0.494 OA
ATOM     19  C   UNL     1       2.729  -7.508  24.244  0.00  0.00    +0.277 C 
ENDBRANCH  14  18
ENDBRANCH   6  11
BRANCH   1  24
ATOM     20  C   UNL     1       7.124   3.398  22.394  0.00  0.00    +0.167 A 
ATOM     21  C   UNL     1       7.743   4.412  23.146  0.00  0.00    +0.204 A 
ATOM     22  C   UNL     1       9.031   4.156  23.671  0.00  0.00    +0.167 A 
ATOM     23  C   UNL     1       9.669   2.919  23.442  0.00  0.00    +0.073 A 
ATOM     24  C   UNL     1       9.026   1.883  22.768  0.00  0.00    +0.041 A 
ATOM     25  C   UNL     1       7.755   2.153  22.266  0.00  0.00    +0.073 A 
BRANCH  20  27
ATOM     26  C   UNL     1       4.761   3.285  22.606  0.00  0.00    +0.277 C 
ATOM     27  O   UNL     1       5.898   3.608  21.805  0.00  0.00    -0.491 OA
ENDBRANCH  20  27
BRANCH  21  28
ATOM     28  O   UNL     1       7.226   5.654  23.398  0.00  0.00    -0.488 OA
ATOM     29  C   UNL     1       7.288   6.676  22.418  0.00  0.00    +0.277 C 
ENDBRANCH  21  28
BRANCH  22  30
ATOM     30  O   UNL     1       9.830   5.030  24.374  0.00  0.00    -0.491 OA
ATOM     31  C   UNL     1      10.725   5.846  23.629  0.00  0.00    +0.277 C 
ENDBRANCH  22  30
ENDBRANCH   1  24
TORSDOF 6
ENDMDL
MODEL 4
REMARK VINA RESULT:      -6.7      2.841      9.122
REMARK  Name = 
REMARK  10 active torsions:
REMARK  status: ('A' for Active; 'I' for Inactive)
REMARK    1  A    between atoms: C_1  and  O_2
REMARK    2  A    between atoms: O_2  and  C_3
REMARK    3  A    between atoms: C_5  and  N_6
REMARK    4  A    between atoms: N_12  and  C_13
REMARK    5  A    between atoms: C_17  and  O_18
REMARK    6  A    between atoms: O_18  and  C_19
REMARK    7  A    between atoms: C_24  and  O_25
REMARK    8  A    between atoms: O_25  and  C_26
REMARK    9  A    between atoms: C_27  and  O_28
REMARK   10  A    between atoms: O_28  and  C_29
REMARK                            x       y       z     vdW  Elec       q    Type
REMARK                         _______ _______ _______ _____ _____    ______ ____
ROOT
ATOM      1  N   UNL     1       9.782   0.665  22.387  0.00  0.00    -0.283 N 
ATOM      2  H   UNL     1      10.764   0.704  22.152  0.00  0.00    +0.155 HD
ATOM      3  C   UNL     1       9.468  -0.607  22.884  0.00  0.00    +0.224 A 
ATOM      4  N   UNL     1       8.216  -0.919  23.224  0.00  0.00    -0.181 NA
ATOM      5  C   UNL     1       8.007  -2.129  23.727  0.00  0.00    +0.224 A 
ATOM      6  N   UNL     1       6.694  -2.415  24.121  0.00  0.00    -0.283 N 
ATOM      7  H   UNL     1       6.097  -1.629  23.895  0.00  0.00    +0.155 HD
ATOM      8  N   UNL     1       8.973  -3.017  23.918  0.00  0.00    -0.203 NA
ATOM      9  C   UNL     1      10.179  -2.621  23.542  0.00  0.00    +0.228 A 
ATOM     10  N   UNL     1      10.489  -1.447  23.003  0.00  0.00    -0.203 NA
ENDROOT
BRANCH   6  11
ATOM     11  C   UNL     1       6.038  -3.658  24.150  0.00  0.00    +0.035 A 
ATOM     12  C   UNL     1       5.440  -4.146  22.980  0.00  0.00    +0.027 A 
ATOM     13  C   UNL     1       4.767  -5.375  22.972  0.00  0.00    +0.049 A 
ATOM     14  C   UNL     1       4.699  -6.153  24.132  0.00  0.00    +0.138 A 
ATOM     15  C   UNL     1       5.276  -5.658  25.307  0.00  0.00    +0.084 A 
ATOM     16 CL   UNL     1       5.228  -6.554  26.785  0.00  0.00    -0.080 Cl
ATOM     17  C   UNL     1       5.937  -4.425  25.312  0.00  0.00    +0.047 A 
BRANCH  14  18
ATOM     18  O   UNL     1       4.062  -7.362  24.208  0.00  0.00    -0.494 OA
ATOM     19  C   UNL     1       2.645  -7.333  24.095  0.00  0.00    +0.277 C 
ENDBRANCH  14  18
ENDBRANCH   6  11
BRANCH   1  24
ATOM     20  C   UNL     1       9.103   4.135  23.631  0.00  0.00    +0.167 A 
ATOM     21  C   UNL     1       7.821   4.383  23.111  0.00  0.00    +0.204 A 
ATOM     22  C   UNL     1       7.199   3.355  22.364  0.00  0.00    +0.167 A 
ATOM     23  C   UNL     1       7.851   2.121  22.155  0.00  0.00    +0.073 A 
ATOM     24  C   UNL     1       9.154   1.903  22.600  0.00  0.00    +0.041 A 
ATOM     25  C   UNL     1       9.751   2.931  23.325  0.00  0.00    +0.073 A 
BRANCH  20  27
ATOM     26  C   UNL     1      10.665   5.922  23.743  0.00  0.00    +0.277 C 
ATOM     27  O   UNL     1       9.735   5.073  24.416  0.00  0.00    -0.491 OA
ENDBRANCH  20  27
BRANCH  21  28
ATOM     28  O   UNL     1       7.091   5.528  23.282  0.00  0.00    -0.488 OA
ATOM     29  C   UNL     1       7.209   6.604  22.367  0.00  0.00    +0.277 C 
ENDBRANCH  21  28
BRANCH  22  30
ATOM     30  O   UNL     1       5.931   3.369  21.827  0.00  0.00    -0.491 OA
ATOM     31  C   UNL     1       4.850   3.031  22.686  0.00  0.00    +0.277 C 
ENDBRANCH  22  30
ENDBRANCH   1  24
TORSDOF 6
ENDMDL
MODEL 5
REMARK VINA RESULT:      -6.6      1.412      2.901
REMARK  Name = 
REMARK  10 active torsions:
REMARK  status: ('A' for Active; 'I' for Inactive)
REMARK    1  A    between atoms: C_1  and  O_2
REMARK    2  A    between atoms: O_2  and  C_3
REMARK    3  A    between atoms: C_5  and  N_6
REMARK    4  A    between atoms: N_12  and  C_13
REMARK    5  A    between atoms: C_17  and  O_18
REMARK    6  A    between atoms: O_18  and  C_19
REMARK    7  A    between atoms: C_24  and  O_25
REMARK    8  A    between atoms: O_25  and  C_26
REMARK    9  A    between atoms: C_27  and  O_28
REMARK   10  A    between atoms: O_28  and  C_29
REMARK                            x       y       z     vdW  Elec       q    Type
REMARK                         _______ _______ _______ _____ _____    ______ ____
ROOT
ATOM      1  N   UNL     1       8.932  -3.338  24.033  0.00  0.00    -0.283 N 
ATOM      2  H   UNL     1       9.741  -3.912  23.839  0.00  0.00    +0.155 HD
ATOM      3  C   UNL     1       9.200  -2.011  23.670  0.00  0.00    +0.224 A 
ATOM      4  N   UNL     1       8.295  -1.051  23.870  0.00  0.00    -0.181 NA
ATOM      5  C   UNL     1       8.607   0.172  23.460  0.00  0.00    +0.224 A 
ATOM      6  N   UNL     1       7.623   1.152  23.638  0.00  0.00    -0.283 N 
ATOM      7  H   UNL     1       6.828   0.746  24.116  0.00  0.00    +0.155 HD
ATOM      8  N   UNL     1       9.750   0.471  22.856  0.00  0.00    -0.203 NA
ATOM      9  C   UNL     1      10.588  -0.545  22.711  0.00  0.00    +0.228 A 
ATOM     10  N   UNL     1      10.384  -1.795  23.111  0.00  0.00    -0.203 NA
ENDROOT
BRANCH   6  11
ATOM     11  C   UNL     1       7.787   2.533  23.843  0.00  0.00    +0.035 A 
ATOM     12  C   UNL     1       8.218   2.994  25.094  0.00  0.00    +0.027 A 
ATOM     13  C   UNL     1       8.382   4.364  25.341  0.00  0.00    +0.049 A 
ATOM     14  C   UNL     1       8.140   5.300  24.331  0.00  0.00    +0.138 A 
ATOM     15  C   UNL     1       7.688   4.843  23.087  0.00  0.00    +0.084 A 
ATOM     16 CL   UNL     1       7.358   5.936  21.789  0.00  0.00    -0.080 Cl
ATOM     17  C   UNL     1       7.516   3.476  22.849  0.00  0.00    +0.047 A 
BRANCH  14  18
ATOM     18  O   UNL     1       8.276   6.652  24.491  0.00  0.00    -0.494 OA
ATOM     19  C   UNL     1       9.551   7.108  24.921  0.00  0.00    +0.277 C 
ENDBRANCH  14  18
ENDBRANCH   6  11
BRANCH   1  24
ATOM     20  C   UNL     1       5.804  -5.186  23.110  0.00  0.00    +0.167 A 
ATOM     21  C   UNL     1       5.169  -5.319  24.358  0.00  0.00    +0.204 A 
ATOM     22  C   UNL     1       5.805  -4.756  25.489  0.00  0.00    +0.167 A 
ATOM     23  C   UNL     1       7.038  -4.082  25.360  0.00  0.00    +0.073 A 
ATOM     24  C   UNL     1       7.709  -4.020  24.140  0.00  0.00    +0.041 A 
ATOM     25  C   UNL     1       7.069  -4.588  23.041  0.00  0.00    +0.073 A 
BRANCH  20  27
ATOM     26  C   UNL     1       6.076  -5.876  20.854  0.00  0.00    +0.277 C 
ATOM     27  O   UNL     1       5.206  -5.659  21.964  0.00  0.00    -0.491 OA
ENDBRANCH  20  27
BRANCH  21  28
ATOM     28  O   UNL     1       3.962  -5.924  24.585  0.00  0.00    -0.488 OA
ATOM     29  C   UNL     1       3.887  -7.316  24.840  0.00  0.00    +0.277 C 
ENDBRANCH  21  28
BRANCH  22  30
ATOM     30  O   UNL     1       5.326  -4.720  26.779  0.00  0.00    -0.491 OA
ATOM     31  C   UNL     1       5.791  -5.716  27.681  0.00  0.00    +0.277 C 
ENDBRANCH  22  30
ENDBRANCH   1  24
TORSDOF 6
ENDMDL
MODEL 6
REMARK VINA RESULT:      -6.6      2.836      9.203
REMARK  Name = 
REMARK  10 active torsions:
REMARK  status: ('A' for Active; 'I' for Inactive)
REMARK    1  A    between atoms: C_1  and  O_2
REMARK    2  A    between atoms: O_2  and  C_3
REMARK    3  A    between atoms: C_5  and  N_6
REMARK    4  A    between atoms: N_12  and  C_13
REMARK    5  A    between atoms: C_17  and  O_18
REMARK    6  A    between atoms: O_18  and  C_19
REMARK    7  A    between atoms: C_24  and  O_25
REMARK    8  A    between atoms: O_25  and  C_26
REMARK    9  A    between atoms: C_27  and  O_28
REMARK   10  A    between atoms: O_28  and  C_29
REMARK                            x       y       z     vdW  Elec       q    Type
REMARK                         _______ _______ _______ _____ _____    ______ ____
ROOT
ATOM      1  N   UNL     1       8.671   1.428  21.669  0.00  0.00    -0.283 N 
ATOM      2  H   UNL     1       9.286   1.493  20.870  0.00  0.00    +0.155 HD
ATOM      3  C   UNL     1       8.797   0.163  22.258  0.00  0.00    +0.224 A 
ATOM      4  N   UNL     1       8.052  -0.182  23.310  0.00  0.00    -0.181 NA
ATOM      5  C   UNL     1       8.261  -1.381  23.836  0.00  0.00    +0.224 A 
ATOM      6  N   UNL     1       7.501  -1.699  24.968  0.00  0.00    -0.283 N 
ATOM      7  H   UNL     1       6.858  -0.941  25.165  0.00  0.00    +0.155 HD
ATOM      8  N   UNL     1       9.174  -2.229  23.381  0.00  0.00    -0.203 NA
ATOM      9  C   UNL     1       9.858  -1.804  22.330  0.00  0.00    +0.228 A 
ATOM     10  N   UNL     1       9.706  -0.638  21.712  0.00  0.00    -0.203 NA
ENDROOT
BRANCH   6  11
ATOM     11  C   UNL     1       7.067  -2.962  25.407  0.00  0.00    +0.035 A 
ATOM     12  C   UNL     1       7.711  -3.569  26.494  0.00  0.00    +0.027 A 
ATOM     13  C   UNL     1       7.315  -4.832  26.954  0.00  0.00    +0.049 A 
ATOM     14  C   UNL     1       6.250  -5.504  26.349  0.00  0.00    +0.138 A 
ATOM     15  C   UNL     1       5.619  -4.911  25.249  0.00  0.00    +0.084 A 
ATOM     16 CL   UNL     1       4.300  -5.681  24.439  0.00  0.00    -0.080 Cl
ATOM     17  C   UNL     1       6.025  -3.655  24.787  0.00  0.00    +0.047 A 
BRANCH  14  18
ATOM     18  O   UNL     1       5.803  -6.738  26.737  0.00  0.00    -0.494 OA
ATOM     19  C   UNL     1       4.985  -6.772  27.900  0.00  0.00    +0.277 C 
ENDBRANCH  14  18
ENDBRANCH   6  11
BRANCH   1  24
ATOM     20  C   UNL     1       8.684   4.621  23.633  0.00  0.00    +0.167 A 
ATOM     21  C   UNL     1       7.373   5.087  23.434  0.00  0.00    +0.204 A 
ATOM     22  C   UNL     1       6.498   4.294  22.655  0.00  0.00    +0.167 A 
ATOM     23  C   UNL     1       6.936   3.074  22.099  0.00  0.00    +0.073 A 
ATOM     24  C   UNL     1       8.258   2.650  22.225  0.00  0.00    +0.041 A 
ATOM     25  C   UNL     1       9.104   3.449  22.989  0.00  0.00    +0.073 A 
BRANCH  20  27
ATOM     26  C   UNL     1      10.771   5.743  23.800  0.00  0.00    +0.277 C 
ATOM     27  O   UNL     1       9.563   5.317  24.431  0.00  0.00    -0.491 OA
ENDBRANCH  20  27
BRANCH  21  28
ATOM     28  O   UNL     1       6.841   6.236  23.954  0.00  0.00    -0.488 OA
ATOM     29  C   UNL     1       6.255   6.243  25.245  0.00  0.00    +0.277 C 
ENDBRANCH  21  28
BRANCH  22  30
ATOM     30  O   UNL     1       5.168   4.535  22.395  0.00  0.00    -0.491 OA
ATOM     31  C   UNL     1       4.262   3.449  22.546  0.00  0.00    +0.277 C 
ENDBRANCH  22  30
ENDBRANCH   1  24
TORSDOF 6
ENDMDL
MODEL 7
REMARK VINA RESULT:      -6.6      1.651      2.932
REMARK  Name = 
REMARK  10 active torsions:
REMARK  status: ('A' for Active; 'I' for Inactive)
REMARK    1  A    between atoms: C_1  and  O_2
REMARK    2  A    between atoms: O_2  and  C_3
REMARK    3  A    between atoms: C_5  and  N_6
REMARK    4  A    between atoms: N_12  and  C_13
REMARK    5  A    between atoms: C_17  and  O_18
REMARK    6  A    between atoms: O_18  and  C_19
REMARK    7  A    between atoms: C_24  and  O_25
REMARK    8  A    between atoms: O_25  and  C_26
REMARK    9  A    between atoms: C_27  and  O_28
REMARK   10  A    between atoms: O_28  and  C_29
REMARK                            x       y       z     vdW  Elec       q    Type
REMARK                         _______ _______ _______ _____ _____    ______ ____
ROOT
ATOM      1  N   UNL     1       8.128  -3.954  25.123  0.00  0.00    -0.283 N 
ATOM      2  H   UNL     1       8.987  -4.374  25.451  0.00  0.00    +0.155 HD
ATOM      3  C   UNL     1       8.394  -2.679  24.609  0.00  0.00    +0.224 A 
ATOM      4  N   UNL     1       7.408  -1.904  24.151  0.00  0.00    -0.181 NA
ATOM      5  C   UNL     1       7.747  -0.727  23.641  0.00  0.00    +0.224 A 
ATOM      6  N   UNL     1       6.700   0.045  23.124  0.00  0.00    -0.283 N 
ATOM      7  H   UNL     1       5.820  -0.432  23.284  0.00  0.00    +0.155 HD
ATOM      8  N   UNL     1       9.001  -0.304  23.552  0.00  0.00    -0.203 NA
ATOM      9  C   UNL     1       9.908  -1.135  24.040  0.00  0.00    +0.228 A 
ATOM     10  N   UNL     1       9.672  -2.318  24.596  0.00  0.00    -0.203 NA
ENDROOT
BRANCH   6  11
ATOM     11  C   UNL     1       6.600   1.444  23.042  0.00  0.00    +0.035 A 
ATOM     12  C   UNL     1       7.206   2.113  21.970  0.00  0.00    +0.027 A 
ATOM     13  C   UNL     1       7.138   3.509  21.859  0.00  0.00    +0.049 A 
ATOM     14  C   UNL     1       6.441   4.262  22.808  0.00  0.00    +0.138 A 
ATOM     15  C   UNL     1       5.853   3.599  23.892  0.00  0.00    +0.084 A 
ATOM     16 CL   UNL     1       4.981   4.458  25.113  0.00  0.00    -0.080 Cl
ATOM     17  C   UNL     1       5.933   2.207  24.004  0.00  0.00    +0.047 A 
BRANCH  14  18
ATOM     18  O   UNL     1       6.328   5.625  22.772  0.00  0.00    -0.494 OA
ATOM     19  C   UNL     1       7.427   6.332  22.213  0.00  0.00    +0.277 C 
ENDBRANCH  14  18
ENDBRANCH   6  11
BRANCH   1  24
ATOM     20  C   UNL     1       5.536  -5.908  23.247  0.00  0.00    +0.167 A 
ATOM     21  C   UNL     1       4.879  -6.588  24.287  0.00  0.00    +0.204 A 
ATOM     22  C   UNL     1       5.314  -6.352  25.613  0.00  0.00    +0.167 A 
ATOM     23  C   UNL     1       6.374  -5.459  25.874  0.00  0.00    +0.073 A 
ATOM     24  C   UNL     1       7.080  -4.846  24.840  0.00  0.00    +0.041 A 
ATOM     25  C   UNL     1       6.642  -5.099  23.543  0.00  0.00    +0.073 A 
BRANCH  20  27
ATOM     26  C   UNL     1       6.087  -5.726  20.944  0.00  0.00    +0.277 C 
ATOM     27  O   UNL     1       5.120  -6.050  21.943  0.00  0.00    -0.491 OA
ENDBRANCH  20  27
BRANCH  21  28
ATOM     28  O   UNL     1       3.824  -7.448  24.145  0.00  0.00    -0.488 OA
ATOM     29  C   UNL     1       2.495  -6.958  24.090  0.00  0.00    +0.277 C 
ENDBRANCH  21  28
BRANCH  22  30
ATOM     30  O   UNL     1       4.769  -6.863  26.769  0.00  0.00    -0.491 OA
ATOM     31  C   UNL     1       4.060  -5.965  27.614  0.00  0.00    +0.277 C 
ENDBRANCH  22  30
ENDBRANCH   1  24
TORSDOF 6
ENDMDL
MODEL 8
REMARK VINA RESULT:      -6.6      2.800      9.408
REMARK  Name = 
REMARK  10 active torsions:
REMARK  status: ('A' for Active; 'I' for Inactive)
REMARK    1  A    between atoms: C_1  and  O_2
REMARK    2  A    between atoms: O_2  and  C_3
REMARK    3  A    between atoms: C_5  and  N_6
REMARK    4  A    between atoms: N_12  and  C_13
REMARK    5  A    between atoms: C_17  and  O_18
REMARK    6  A    between atoms: O_18  and  C_19
REMARK    7  A    between atoms: C_24  and  O_25
REMARK    8  A    between atoms: O_25  and  C_26
REMARK    9  A    between atoms: C_27  and  O_28
REMARK   10  A    between atoms: O_28  and  C_29
REMARK                            x       y       z     vdW  Elec       q    Type
REMARK                         _______ _______ _______ _____ _____    ______ ____
ROOT
ATOM      1  N   UNL     1       9.305   1.374  22.004  0.00  0.00    -0.283 N 
ATOM      2  H   UNL     1      10.018   1.432  21.290  0.00  0.00    +0.155 HD
ATOM      3  C   UNL     1       9.330   0.102  22.592  0.00  0.00    +0.224 A 
ATOM      4  N   UNL     1       8.450  -0.233  23.537  0.00  0.00    -0.181 NA
ATOM      5  C   UNL     1       8.566  -1.441  24.074  0.00  0.00    +0.224 A 
ATOM      6  N   UNL     1       7.661  -1.750  25.096  0.00  0.00    -0.283 N 
ATOM      7  H   UNL     1       7.014  -0.980  25.217  0.00  0.00    +0.155 HD
ATOM      8  N   UNL     1       9.512  -2.305  23.731  0.00  0.00    -0.203 NA
ATOM      9  C   UNL     1      10.333  -1.886  22.779  0.00  0.00    +0.228 A 
ATOM     10  N   UNL     1      10.284  -0.713  22.159  0.00  0.00    -0.203 NA
ENDROOT
BRANCH   6  11
ATOM     11  C   UNL     1       7.150  -3.007  25.464  0.00  0.00    +0.035 A 
ATOM     12  C   UNL     1       7.412  -3.505  26.748  0.00  0.00    +0.027 A 
ATOM     13  C   UNL     1       6.929  -4.759  27.148  0.00  0.00    +0.049 A 
ATOM     14  C   UNL     1       6.153  -5.529  26.278  0.00  0.00    +0.138 A 
ATOM     15  C   UNL     1       5.907  -5.044  24.988  0.00  0.00    +0.084 A 
ATOM     16 CL   UNL     1       4.964  -5.940  23.849  0.00  0.00    -0.080 Cl
ATOM     17  C   UNL     1       6.401  -3.798  24.590  0.00  0.00    +0.047 A 
BRANCH  14  18
ATOM     18  O   UNL     1       5.644  -6.761  26.592  0.00  0.00    -0.494 OA
ATOM     19  C   UNL     1       4.955  -6.858  27.831  0.00  0.00    +0.277 C 
ENDBRANCH  14  18
ENDBRANCH   6  11
BRANCH   1  24
ATOM     20  C   UNL     1       7.119   4.340  22.699  0.00  0.00    +0.167 A 
ATOM     21  C   UNL     1       7.969   5.148  23.475  0.00  0.00    +0.204 A 
ATOM     22  C   UNL     1       9.280   4.681  23.728  0.00  0.00    +0.167 A 
ATOM     23  C   UNL     1       9.714   3.441  23.213  0.00  0.00    +0.073 A 
ATOM     24  C   UNL     1       8.849   2.601  22.514  0.00  0.00    +0.041 A 
ATOM     25  C   UNL     1       7.561   3.076  22.283  0.00  0.00    +0.073 A 
BRANCH  20  27
ATOM     26  C   UNL     1       4.790   4.228  23.154  0.00  0.00    +0.277 C 
ATOM     27  O   UNL     1       5.854   4.766  22.367  0.00  0.00    -0.491 OA
ENDBRANCH  20  27
BRANCH  21  28
ATOM     28  O   UNL     1       7.657   6.376  23.992  0.00  0.00    -0.488 OA
ATOM     29  C   UNL     1       7.028   6.490  25.257  0.00  0.00    +0.277 C 
ENDBRANCH  21  28
BRANCH  22  30
ATOM     30  O   UNL     1      10.280   5.342  24.404  0.00  0.00    -0.491 OA
ATOM     31  C   UNL     1      11.469   5.647  23.684  0.00  0.00    +0.277 C 
ENDBRANCH  22  30
ENDBRANCH   1  24
TORSDOF 6
ENDMDL
MODEL 9
REMARK VINA RESULT:      -6.5      1.524      1.928
REMARK  Name = 
REMARK  10 active torsions:
REMARK  status: ('A' for Active; 'I' for Inactive)
REMARK    1  A    between atoms: C_1  and  O_2
REMARK    2  A    between atoms: O_2  and  C_3
REMARK    3  A    between atoms: C_5  and  N_6
REMARK    4  A    between atoms: N_12  and  C_13
REMARK    5  A    between atoms: C_17  and  O_18
REMARK    6  A    between atoms: O_18  and  C_19
REMARK    7  A    between atoms: C_24  and  O_25
REMARK    8  A    between atoms: O_25  and  C_26
REMARK    9  A    between atoms: C_27  and  O_28
REMARK   10  A    between atoms: O_28  and  C_29
REMARK                            x       y       z     vdW  Elec       q    Type
REMARK                         _______ _______ _______ _____ _____    ______ ____
ROOT
ATOM      1  N   UNL     1       8.828  -3.860  25.113  0.00  0.00    -0.283 N 
ATOM      2  H   UNL     1       9.516  -4.567  24.893  0.00  0.00    +0.155 HD
ATOM      3  C   UNL     1       9.116  -2.686  24.405  0.00  0.00    +0.224 A 
ATOM      4  N   UNL     1       8.371  -1.591  24.561  0.00  0.00    -0.181 NA
ATOM      5  C   UNL     1       8.682  -0.533  23.823  0.00  0.00    +0.224 A 
ATOM      6  N   UNL     1       7.856   0.586  23.970  0.00  0.00    -0.283 N 
ATOM      7  H   UNL     1       7.163   0.401  24.686  0.00  0.00    +0.155 HD
ATOM      8  N   UNL     1       9.672  -0.525  22.940  0.00  0.00    -0.203 NA
ATOM      9  C   UNL     1      10.361  -1.654  22.862  0.00  0.00    +0.228 A 
ATOM     10  N   UNL     1      10.150  -2.755  23.574  0.00  0.00    -0.203 NA
ENDROOT
BRANCH   6  11
ATOM     11  C   UNL     1       8.181   1.944  23.810  0.00  0.00    +0.035 A 
ATOM     12  C   UNL     1       9.409   2.417  24.294  0.00  0.00    +0.027 A 
ATOM     13  C   UNL     1       9.765   3.767  24.164  0.00  0.00    +0.049 A 
ATOM     14  C   UNL     1       8.908   4.667  23.524  0.00  0.00    +0.138 A 
ATOM     15  C   UNL     1       7.672   4.202  23.058  0.00  0.00    +0.084 A 
ATOM     16 CL   UNL     1       6.552   5.252  22.264  0.00  0.00    -0.080 Cl
ATOM     17  C   UNL     1       7.317   2.856  23.201  0.00  0.00    +0.047 A 
BRANCH  14  18
ATOM     18  O   UNL     1       9.180   5.997  23.356  0.00  0.00    -0.494 OA
ATOM     19  C   UNL     1       9.163   6.795  24.532  0.00  0.00    +0.277 C 
ENDBRANCH  14  18
ENDBRANCH   6  11
BRANCH   1  24
ATOM     20  C   UNL     1       6.216  -5.044  27.527  0.00  0.00    +0.167 A 
ATOM     21  C   UNL     1       5.162  -5.391  26.664  0.00  0.00    +0.204 A 
ATOM     22  C   UNL     1       5.367  -5.239  25.272  0.00  0.00    +0.167 A 
ATOM     23  C   UNL     1       6.594  -4.754  24.775  0.00  0.00    +0.073 A 
ATOM     24  C   UNL     1       7.610  -4.332  25.630  0.00  0.00    +0.041 A 
ATOM     25  C   UNL     1       7.386  -4.483  26.996  0.00  0.00    +0.073 A 
BRANCH  20  27
ATOM     26  C   UNL     1       6.305  -6.560  29.354  0.00  0.00    +0.277 C 
ATOM     27  O   UNL     1       6.099  -5.227  28.886  0.00  0.00    -0.491 OA
ENDBRANCH  20  27
BRANCH  21  28
ATOM     28  O   UNL     1       3.948  -5.898  27.041  0.00  0.00    -0.488 OA
ATOM     29  C   UNL     1       2.882  -5.034  27.398  0.00  0.00    +0.277 C 
ENDBRANCH  21  28
BRANCH  22  30
ATOM     30  O   UNL     1       4.494  -5.578  24.262  0.00  0.00    -0.491 OA
ATOM     31  C   UNL     1       5.054  -6.035  23.037  0.00  0.00    +0.277 C 
ENDBRANCH  22  30
ENDBRANCH   1  24
TORSDOF 6
ENDMDL
