MODEL 1
REMARK VINA RESULT:      -6.2      0.000      0.000
REMARK  Name = 
REMARK  9 active torsions:
REMARK  status: ('A' for Active; 'I' for Inactive)
REMARK    1  A    between atoms: C_1  and  C_2
REMARK    2  A    between atoms: C_2  and  C_3
REMARK    3  A    between atoms: C_3  and  C_5
REMARK    4  A    between atoms: C_5  and  C_6
REMARK    5  A    between atoms: C_5  and  C_15
REMARK    6  A    between atoms: C_5  and  C_21
REMARK    7  A    between atoms: C_6  and  C_7
REMARK    8  A    between atoms: C_7  and  C_8
REMARK    9  A    between atoms: C_7  and  N_9
REMARK                            x       y       z     vdW  Elec       q    Type
REMARK                         _______ _______ _______ _____ _____    ______ ____
ROOT
ATOM      1  C   UNL     1       7.753  -1.466  24.862  0.00  0.00    +0.080 C 
ENDROOT
BRANCH   1   2
ATOM      2  C   UNL     1       8.369  -2.839  25.287  0.00  0.00    -0.030 A 
ATOM      3  C   UNL     1       9.498  -3.379  24.639  0.00  0.00    +0.005 A 
ATOM      4  C   UNL     1       9.945  -4.680  24.893  0.00  0.00    +0.000 A 
ATOM      5  C   UNL     1       9.337  -5.444  25.879  0.00  0.00    +0.000 A 
ATOM      6  C   UNL     1       8.336  -4.873  26.655  0.00  0.00    +0.000 A 
ATOM      7  C   UNL     1       7.887  -3.573  26.386  0.00  0.00    +0.005 A 
ENDBRANCH   1   2
BRANCH   1   8
ATOM      8  C   UNL     1       8.621  -0.569  23.893  0.00  0.00    -0.030 A 
ATOM      9  C   UNL     1       8.379  -0.607  22.500  0.00  0.00    +0.005 A 
ATOM     10  C   UNL     1       9.070   0.219  21.605  0.00  0.00    +0.000 A 
ATOM     11  C   UNL     1      10.003   1.131  22.077  0.00  0.00    +0.000 A 
ATOM     12  C   UNL     1      10.293   1.165  23.435  0.00  0.00    +0.000 A 
ATOM     13  C   UNL     1       9.649   0.291  24.321  0.00  0.00    +0.005 A 
ENDBRANCH   1   8
BRANCH   1  14
ATOM     14  C   UNL     1       7.637  -0.646  26.231  0.00  0.00    +0.148 C 
ATOM     15  O   UNL     1       8.520  -0.702  27.088  0.00  0.00    -0.296 OA
BRANCH  14  17
ATOM     16  C   UNL     1       6.712   1.720  26.180  0.00  0.00    +0.012 C 
ATOM     17  C   UNL     1       6.419   0.252  26.452  0.00  0.00    +0.072 C 
ENDBRANCH  14  17
ENDBRANCH   1  14
BRANCH   1  18
ATOM     18  C   UNL     1       6.322  -1.598  24.180  0.00  0.00    +0.042 C 
BRANCH  18  19
ATOM     19  C   UNL     1       5.480  -2.904  24.350  0.00  0.00    +0.055 C 
ATOM     20  C   UNL     1       4.325  -2.689  25.345  0.00  0.00    +0.024 C 
BRANCH  19  21
ATOM     21  N   UNL     1       4.952  -3.369  23.017  0.00  0.00    -0.300 NA
ATOM     22  C   UNL     1       4.393  -4.741  23.038  0.00  0.00    +0.084 C 
ATOM     23  C   UNL     1       5.436  -5.793  23.424  0.00  0.00    +0.015 C 
ATOM     24  C   UNL     1       6.677  -5.730  22.532  0.00  0.00    +0.002 C 
ATOM     25  C   UNL     1       7.138  -4.307  22.219  0.00  0.00    +0.015 C 
ATOM     26  C   UNL     1       5.966  -3.367  21.938  0.00  0.00    +0.084 C 
ENDBRANCH  19  21
ENDBRANCH  18  19
ENDBRANCH   1  18
TORSDOF 7
ENDMDL
MODEL 2
REMARK VINA RESULT:      -5.7      2.021      4.016
REMARK  Name = 
REMARK  9 active torsions:
REMARK  status: ('A' for Active; 'I' for Inactive)
REMARK    1  A    between atoms: C_1  and  C_2
REMARK    2  A    between atoms: C_2  and  C_3
REMARK    3  A    between atoms: C_3  and  C_5
REMARK    4  A    between atoms: C_5  and  C_6
REMARK    5  A    between atoms: C_5  and  C_15
REMARK    6  A    between atoms: C_5  and  C_21
REMARK    7  A    between atoms: C_6  and  C_7
REMARK    8  A    between atoms: C_7  and  C_8
REMARK    9  A    between atoms: C_7  and  N_9
REMARK                            x       y       z     vdW  Elec       q    Type
REMARK                         _______ _______ _______ _____ _____    ______ ____
ROOT
ATOM      1  C   UNL     1       7.737  -1.827  24.076  0.00  0.00    +0.080 C 
ENDROOT
BRANCH   1   2
ATOM      2  C   UNL     1       7.237  -2.989  23.158  0.00  0.00    -0.030 A 
ATOM      3  C   UNL     1       6.178  -2.811  22.244  0.00  0.00    +0.005 A 
ATOM      4  C   UNL     1       5.610  -3.885  21.551  0.00  0.00    +0.000 A 
ATOM      5  C   UNL     1       6.152  -5.156  21.675  0.00  0.00    +0.000 A 
ATOM      6  C   UNL     1       7.305  -5.330  22.430  0.00  0.00    +0.000 A 
ATOM      7  C   UNL     1       7.860  -4.250  23.131  0.00  0.00    +0.005 A 
ENDBRANCH   1   2
BRANCH   1   8
ATOM      8  C   UNL     1       6.955  -0.458  23.977  0.00  0.00    -0.030 A 
ATOM      9  C   UNL     1       6.063  -0.085  25.010  0.00  0.00    +0.005 A 
ATOM     10  C   UNL     1       5.400   1.148  25.007  0.00  0.00    +0.000 A 
ATOM     11  C   UNL     1       5.629   2.061  23.987  0.00  0.00    +0.000 A 
ATOM     12  C   UNL     1       6.468   1.709  22.937  0.00  0.00    +0.000 A 
ATOM     13  C   UNL     1       7.079   0.449  22.908  0.00  0.00    +0.005 A 
ENDBRANCH   1   8
BRANCH   1  14
ATOM     14  C   UNL     1       9.219  -1.523  23.553  0.00  0.00    +0.148 C 
ATOM     15  O   UNL     1       9.575  -1.840  22.418  0.00  0.00    -0.296 OA
BRANCH  14  17
ATOM     16  C   UNL     1      10.578   0.586  23.957  0.00  0.00    +0.012 C 
ATOM     17  C   UNL     1      10.192  -0.790  24.479  0.00  0.00    +0.072 C 
ENDBRANCH  14  17
ENDBRANCH   1  14
BRANCH   1  18
ATOM     18  C   UNL     1       7.769  -2.208  25.620  0.00  0.00    +0.042 C 
BRANCH  18  19
ATOM     19  C   UNL     1       7.634  -3.698  26.072  0.00  0.00    +0.055 C 
ATOM     20  C   UNL     1       8.974  -4.235  26.606  0.00  0.00    +0.024 C 
BRANCH  19  21
ATOM     21  N   UNL     1       6.554  -3.839  27.114  0.00  0.00    -0.300 NA
ATOM     22  C   UNL     1       6.224  -5.244  27.452  0.00  0.00    +0.084 C 
ATOM     23  C   UNL     1       5.700  -6.029  26.248  0.00  0.00    +0.015 C 
ATOM     24  C   UNL     1       4.505  -5.340  25.586  0.00  0.00    +0.002 C 
ATOM     25  C   UNL     1       4.653  -3.823  25.475  0.00  0.00    +0.015 C 
ATOM     26  C   UNL     1       5.269  -3.208  26.732  0.00  0.00    +0.084 C 
ENDBRANCH  19  21
ENDBRANCH  18  19
ENDBRANCH   1  18
TORSDOF 7
ENDMDL
MODEL 3
REMARK VINA RESULT:      -5.6      2.089      5.923
REMARK  Name = 
REMARK  9 active torsions:
REMARK  status: ('A' for Active; 'I' for Inactive)
REMARK    1  A    between atoms: C_1  and  C_2
REMARK    2  A    between atoms: C_2  and  C_3
REMARK    3  A    between atoms: C_3  and  C_5
REMARK    4  A    between atoms: C_5  and  C_6
REMARK    5  A    between atoms: C_5  and  C_15
REMARK    6  A    between atoms: C_5  and  C_21
REMARK    7  A    between atoms: C_6  and  C_7
REMARK    8  A    between atoms: C_7  and  C_8
REMARK    9  A    between atoms: C_7  and  N_9
REMARK                            x       y       z     vdW  Elec       q    Type
REMARK                         _______ _______ _______ _____ _____    ______ ____
ROOT
ATOM      1  C   UNL     1       5.805  -3.399  23.877  0.00  0.00    +0.080 C 
ENDROOT
BRANCH   1   2
ATOM      2  C   UNL     1       7.010  -4.007  24.665  0.00  0.00    -0.030 A 
ATOM      3  C   UNL     1       6.824  -4.753  25.847  0.00  0.00    +0.005 A 
ATOM      4  C   UNL     1       7.899  -5.148  26.651  0.00  0.00    +0.000 A 
ATOM      5  C   UNL     1       9.201  -4.896  26.241  0.00  0.00    +0.000 A 
ATOM      6  C   UNL     1       9.419  -4.320  24.996  0.00  0.00    +0.000 A 
ATOM      7  C   UNL     1       8.336  -3.917  24.204  0.00  0.00    +0.005 A 
ENDBRANCH   1   2
BRANCH   1   8
ATOM      8  C   UNL     1       4.372  -3.589  24.514  0.00  0.00    -0.030 A 
ATOM      9  C   UNL     1       3.991  -2.803  25.627  0.00  0.00    +0.005 A 
ATOM     10  C   UNL     1       2.710  -2.881  26.185  0.00  0.00    +0.000 A 
ATOM     11  C   UNL     1       1.757  -3.724  25.630  0.00  0.00    +0.000 A 
ATOM     12  C   UNL     1       2.111  -4.538  24.562  0.00  0.00    +0.000 A 
ATOM     13  C   UNL     1       3.414  -4.508  24.047  0.00  0.00    +0.005 A 
ENDBRANCH   1   8
BRANCH   1  14
ATOM     14  C   UNL     1       5.783  -4.215  22.500  0.00  0.00    +0.148 C 
ATOM     15  O   UNL     1       5.617  -3.646  21.421  0.00  0.00    -0.296 OA
BRANCH  14  17
ATOM     16  C   UNL     1       7.192  -6.163  21.679  0.00  0.00    +0.012 C 
ATOM     17  C   UNL     1       6.013  -5.727  22.536  0.00  0.00    +0.072 C 
ENDBRANCH  14  17
ENDBRANCH   1  14
BRANCH   1  18
ATOM     18  C   UNL     1       5.958  -1.842  23.588  0.00  0.00    +0.042 C 
BRANCH  18  19
ATOM     19  C   UNL     1       7.349  -1.142  23.728  0.00  0.00    +0.055 C 
ATOM     20  C   UNL     1       7.910  -0.749  22.350  0.00  0.00    +0.024 C 
BRANCH  19  21
ATOM     21  N   UNL     1       7.245   0.066  24.623  0.00  0.00    -0.300 NA
ATOM     22  C   UNL     1       8.551   0.680  24.958  0.00  0.00    +0.084 C 
ATOM     23  C   UNL     1       9.472  -0.278  25.717  0.00  0.00    +0.015 C 
ATOM     24  C   UNL     1       8.807  -0.847  26.971  0.00  0.00    +0.002 C 
ATOM     25  C   UNL     1       7.340  -1.229  26.770  0.00  0.00    +0.015 C 
ATOM     26  C   UNL     1       6.586  -0.205  25.921  0.00  0.00    +0.084 C 
ENDBRANCH  19  21
ENDBRANCH  18  19
ENDBRANCH   1  18
TORSDOF 7
ENDMDL
MODEL 4
REMARK VINA RESULT:      -5.6      2.208      5.563
REMARK  Name = 
REMARK  9 active torsions:
REMARK  status: ('A' for Active; 'I' for Inactive)
REMARK    1  A    between atoms: C_1  and  C_2
REMARK    2  A    between atoms: C_2  and  C_3
REMARK    3  A    between atoms: C_3  and  C_5
REMARK    4  A    between atoms: C_5  and  C_6
REMARK    5  A    between atoms: C_5  and  C_15
REMARK    6  A    between atoms: C_5  and  C_21
REMARK    7  A    between atoms: C_6  and  C_7
REMARK    8  A    between atoms: C_7  and  C_8
REMARK    9  A    between atoms: C_7  and  N_9
REMARK                            x       y       z     vdW  Elec       q    Type
REMARK                         _______ _______ _______ _____ _____    ______ ____
ROOT
ATOM      1  C   UNL     1       6.464  -4.012  25.580  0.00  0.00    +0.080 C 
ENDROOT
BRANCH   1   2
ATOM      2  C   UNL     1       5.167  -3.415  26.218  0.00  0.00    -0.030 A 
ATOM      3  C   UNL     1       5.130  -2.986  27.560  0.00  0.00    +0.005 A 
ATOM      4  C   UNL     1       3.935  -2.618  28.187  0.00  0.00    +0.000 A 
ATOM      5  C   UNL     1       2.755  -2.571  27.458  0.00  0.00    +0.000 A 
ATOM      6  C   UNL     1       2.792  -2.818  26.092  0.00  0.00    +0.000 A 
ATOM      7  C   UNL     1       3.993  -3.197  25.475  0.00  0.00    +0.005 A 
ENDBRANCH   1   2
BRANCH   1   8
ATOM      8  C   UNL     1       6.451  -4.222  24.014  0.00  0.00    -0.030 A 
ATOM      9  C   UNL     1       7.215  -5.267  23.442  0.00  0.00    +0.005 A 
ATOM     10  C   UNL     1       7.184  -5.542  22.070  0.00  0.00    +0.000 A 
ATOM     11  C   UNL     1       6.366  -4.801  21.229  0.00  0.00    +0.000 A 
ATOM     12  C   UNL     1       5.634  -3.742  21.752  0.00  0.00    +0.000 A 
ATOM     13  C   UNL     1       5.718  -3.427  23.115  0.00  0.00    +0.005 A 
ENDBRANCH   1   8
BRANCH   1  14
ATOM     14  C   UNL     1       6.577  -5.476  26.217  0.00  0.00    +0.148 C 
ATOM     15  O   UNL     1       7.613  -5.860  26.759  0.00  0.00    -0.296 OA
BRANCH  14  17
ATOM     16  C   UNL     1       4.863  -6.780  27.565  0.00  0.00    +0.012 C 
ATOM     17  C   UNL     1       5.354  -6.394  26.178  0.00  0.00    +0.072 C 
ENDBRANCH  14  17
ENDBRANCH   1  14
BRANCH   1  18
ATOM     18  C   UNL     1       7.774  -3.171  25.903  0.00  0.00    +0.042 C 
BRANCH  18  19
ATOM     19  C   UNL     1       7.978  -1.750  25.285  0.00  0.00    +0.055 C 
ATOM     20  C   UNL     1       7.566  -0.651  26.282  0.00  0.00    +0.024 C 
BRANCH  19  21
ATOM     21  N   UNL     1       9.408  -1.562  24.850  0.00  0.00    -0.300 NA
ATOM     22  C   UNL     1       9.740  -0.172  24.458  0.00  0.00    +0.084 C 
ATOM     23  C   UNL     1       8.911   0.314  23.266  0.00  0.00    +0.015 C 
ATOM     24  C   UNL     1       9.021  -0.625  22.064  0.00  0.00    +0.002 C 
ATOM     25  C   UNL     1       8.987  -2.108  22.437  0.00  0.00    +0.015 C 
ATOM     26  C   UNL     1       9.799  -2.407  23.697  0.00  0.00    +0.084 C 
ENDBRANCH  19  21
ENDBRANCH  18  19
ENDBRANCH   1  18
TORSDOF 7
ENDMDL
MODEL 5
REMARK VINA RESULT:      -5.5      1.902      5.623
REMARK  Name = 
REMARK  9 active torsions:
REMARK  status: ('A' for Active; 'I' for Inactive)
REMARK    1  A    between atoms: C_1  and  C_2
REMARK    2  A    between atoms: C_2  and  C_3
REMARK    3  A    between atoms: C_3  and  C_5
REMARK    4  A    between atoms: C_5  and  C_6
REMARK    5  A    between atoms: C_5  and  C_15
REMARK    6  A    between atoms: C_5  and  C_21
REMARK    7  A    between atoms: C_6  and  C_7
REMARK    8  A    between atoms: C_7  and  C_8
REMARK    9  A    between atoms: C_7  and  N_9
REMARK                            x       y       z     vdW  Elec       q    Type
REMARK                         _______ _______ _______ _____ _____    ______ ____
ROOT
ATOM      1  C   UNL     1       7.938  -2.711  24.048  0.00  0.00    +0.080 C 
ENDROOT
BRANCH   1   2
ATOM      2  C   UNL     1       6.988  -2.127  25.145  0.00  0.00    -0.030 A 
ATOM      3  C   UNL     1       5.623  -2.474  25.206  0.00  0.00    +0.005 A 
ATOM      4  C   UNL     1       4.732  -1.824  26.067  0.00  0.00    +0.000 A 
ATOM      5  C   UNL     1       5.202  -0.879  26.967  0.00  0.00    +0.000 A 
ATOM      6  C   UNL     1       6.569  -0.645  27.052  0.00  0.00    +0.000 A 
ATOM      7  C   UNL     1       7.452  -1.292  26.176  0.00  0.00    +0.005 A 
ENDBRANCH   1   2
BRANCH   1   8
ATOM      8  C   UNL     1       7.308  -3.763  23.051  0.00  0.00    -0.030 A 
ATOM      9  C   UNL     1       6.492  -3.315  21.986  0.00  0.00    +0.005 A 
ATOM     10  C   UNL     1       5.967  -4.197  21.033  0.00  0.00    +0.000 A 
ATOM     11  C   UNL     1       6.267  -5.550  21.096  0.00  0.00    +0.000 A 
ATOM     12  C   UNL     1       7.033  -6.028  22.152  0.00  0.00    +0.000 A 
ATOM     13  C   UNL     1       7.501  -5.153  23.142  0.00  0.00    +0.005 A 
ENDBRANCH   1   8
BRANCH   1  14
ATOM     14  C   UNL     1       9.052  -3.507  24.876  0.00  0.00    +0.148 C 
ATOM     15  O   UNL     1      10.141  -3.792  24.376  0.00  0.00    -0.296 OA
BRANCH  14  17
ATOM     16  C   UNL     1       8.273  -5.313  26.484  0.00  0.00    +0.012 C 
ATOM     17  C   UNL     1       8.763  -3.881  26.331  0.00  0.00    +0.072 C 
ENDBRANCH  14  17
ENDBRANCH   1  14
BRANCH   1  18
ATOM     18  C   UNL     1       8.621  -1.596  23.142  0.00  0.00    +0.042 C 
BRANCH  18  19
ATOM     19  C   UNL     1       9.053  -0.227  23.761  0.00  0.00    +0.055 C 
ATOM     20  C   UNL     1      10.566  -0.203  24.044  0.00  0.00    +0.024 C 
BRANCH  19  21
ATOM     21  N   UNL     1       8.666   0.910  22.851  0.00  0.00    -0.300 NA
ATOM     22  C   UNL     1       9.017   2.249  23.378  0.00  0.00    +0.084 C 
ATOM     23  C   UNL     1       8.314   2.562  24.701  0.00  0.00    +0.015 C 
ATOM     24  C   UNL     1       6.796   2.406  24.598  0.00  0.00    +0.002 C 
ATOM     25  C   UNL     1       6.356   1.182  23.794  0.00  0.00    +0.015 C 
ATOM     26  C   UNL     1       7.217   0.968  22.549  0.00  0.00    +0.084 C 
ENDBRANCH  19  21
ENDBRANCH  18  19
ENDBRANCH   1  18
TORSDOF 7
ENDMDL
MODEL 6
REMARK VINA RESULT:      -5.5      1.980      4.623
REMARK  Name = 
REMARK  9 active torsions:
REMARK  status: ('A' for Active; 'I' for Inactive)
REMARK    1  A    between atoms: C_1  and  C_2
REMARK    2  A    between atoms: C_2  and  C_3
REMARK    3  A    between atoms: C_3  and  C_5
REMARK    4  A    between atoms: C_5  and  C_6
REMARK    5  A    between atoms: C_5  and  C_15
REMARK    6  A    between atoms: C_5  and  C_21
REMARK    7  A    between atoms: C_6  and  C_7
REMARK    8  A    between atoms: C_7  and  C_8
REMARK    9  A    between atoms: C_7  and  N_9
REMARK                            x       y       z     vdW  Elec       q    Type
REMARK                         _______ _______ _______ _____ _____    ______ ____
ROOT
ATOM      1  C   UNL     1       7.200  -1.904  24.781  0.00  0.00    +0.080 C 
ENDROOT
BRANCH   1   2
ATOM      2  C   UNL     1       8.515  -1.170  24.361  0.00  0.00    -0.030 A 
ATOM      3  C   UNL     1       9.317  -0.488  25.298  0.00  0.00    +0.005 A 
ATOM      4  C   UNL     1      10.393   0.316  24.907  0.00  0.00    +0.000 A 
ATOM      5  C   UNL     1      10.761   0.379  23.570  0.00  0.00    +0.000 A 
ATOM      6  C   UNL     1      10.100  -0.420  22.647  0.00  0.00    +0.000 A 
ATOM      7  C   UNL     1       9.016  -1.214  23.047  0.00  0.00    +0.005 A 
ENDBRANCH   1   2
BRANCH   1   8
ATOM      8  C   UNL     1       6.708  -3.074  23.840  0.00  0.00    -0.030 A 
ATOM      9  C   UNL     1       7.627  -4.060  23.412  0.00  0.00    +0.005 A 
ATOM     10  C   UNL     1       7.230  -5.156  22.637  0.00  0.00    +0.000 A 
ATOM     11  C   UNL     1       5.896  -5.317  22.289  0.00  0.00    +0.000 A 
ATOM     12  C   UNL     1       4.976  -4.345  22.659  0.00  0.00    +0.000 A 
ATOM     13  C   UNL     1       5.387  -3.215  23.378  0.00  0.00    +0.005 A 
ENDBRANCH   1   8
BRANCH   1  14
ATOM     14  C   UNL     1       6.073  -0.771  24.696  0.00  0.00    +0.148 C 
ATOM     15  O   UNL     1       5.097  -0.780  25.447  0.00  0.00    -0.296 OA
BRANCH  14  17
ATOM     16  C   UNL     1       6.281   1.736  24.336  0.00  0.00    +0.012 C 
ATOM     17  C   UNL     1       6.242   0.363  23.683  0.00  0.00    +0.072 C 
ENDBRANCH  14  17
ENDBRANCH   1  14
BRANCH   1  18
ATOM     18  C   UNL     1       7.255  -2.512  26.250  0.00  0.00    +0.042 C 
BRANCH  18  19
ATOM     19  C   UNL     1       7.295  -4.059  26.468  0.00  0.00    +0.055 C 
ATOM     20  C   UNL     1       8.742  -4.554  26.645  0.00  0.00    +0.024 C 
BRANCH  19  21
ATOM     21  N   UNL     1       6.452  -4.449  27.655  0.00  0.00    -0.300 NA
ATOM     22  C   UNL     1       6.130  -5.893  27.716  0.00  0.00    +0.084 C 
ATOM     23  C   UNL     1       5.325  -6.367  26.503  0.00  0.00    +0.015 C 
ATOM     24  C   UNL     1       4.054  -5.541  26.297  0.00  0.00    +0.002 C 
ATOM     25  C   UNL     1       4.253  -4.041  26.517  0.00  0.00    +0.015 C 
ATOM     26  C   UNL     1       5.149  -3.746  27.719  0.00  0.00    +0.084 C 
ENDBRANCH  19  21
ENDBRANCH  18  19
ENDBRANCH   1  18
TORSDOF 7
ENDMDL
MODEL 7
REMARK VINA RESULT:      -5.4      1.859      3.271
REMARK  Name = 
REMARK  9 active torsions:
REMARK  status: ('A' for Active; 'I' for Inactive)
REMARK    1  A    between atoms: C_1  and  C_2
REMARK    2  A    between atoms: C_2  and  C_3
REMARK    3  A    between atoms: C_3  and  C_5
REMARK    4  A    between atoms: C_5  and  C_6
REMARK    5  A    between atoms: C_5  and  C_15
REMARK    6  A    between atoms: C_5  and  C_21
REMARK    7  A    between atoms: C_6  and  C_7
REMARK    8  A    between atoms: C_7  and  C_8
REMARK    9  A    between atoms: C_7  and  N_9
REMARK                            x       y       z     vdW  Elec       q    Type
REMARK                         _______ _______ _______ _____ _____    ______ ____
ROOT
ATOM      1  C   UNL     1       7.113  -2.234  23.668  0.00  0.00    +0.080 C 
ENDROOT
BRANCH   1   2
ATOM      2  C   UNL     1       7.051  -3.617  22.940  0.00  0.00    -0.030 A 
ATOM      3  C   UNL     1       6.208  -3.836  21.832  0.00  0.00    +0.005 A 
ATOM      4  C   UNL     1       6.015  -5.110  21.289  0.00  0.00    +0.000 A 
ATOM      5  C   UNL     1       6.740  -6.189  21.775  0.00  0.00    +0.000 A 
ATOM      6  C   UNL     1       7.707  -5.971  22.747  0.00  0.00    +0.000 A 
ATOM      7  C   UNL     1       7.885  -4.693  23.294  0.00  0.00    +0.005 A 
ENDBRANCH   1   2
BRANCH   1   8
ATOM      8  C   UNL     1       7.843  -1.061  22.902  0.00  0.00    -0.030 A 
ATOM      9  C   UNL     1       7.353   0.261  23.017  0.00  0.00    +0.005 A 
ATOM     10  C   UNL     1       8.002   1.346  22.417  0.00  0.00    +0.000 A 
ATOM     11  C   UNL     1       9.179   1.150  21.709  0.00  0.00    +0.000 A 
ATOM     12  C   UNL     1       9.665  -0.141  21.544  0.00  0.00    +0.000 A 
ATOM     13  C   UNL     1       8.977  -1.233  22.088  0.00  0.00    +0.005 A 
ENDBRANCH   1   8
BRANCH   1  14
ATOM     14  C   UNL     1       7.992  -2.517  24.975  0.00  0.00    +0.148 C 
ATOM     15  O   UNL     1       7.842  -3.544  25.638  0.00  0.00    -0.296 OA
BRANCH  14  17
ATOM     16  C   UNL     1       8.760  -0.817  26.700  0.00  0.00    +0.012 C 
ATOM     17  C   UNL     1       9.064  -1.502  25.376  0.00  0.00    +0.072 C 
ENDBRANCH  14  17
ENDBRANCH   1  14
BRANCH   1  18
ATOM     18  C   UNL     1       5.684  -1.672  24.082  0.00  0.00    +0.042 C 
BRANCH  18  19
ATOM     19  C   UNL     1       5.113  -1.931  25.514  0.00  0.00    +0.055 C 
ATOM     20  C   UNL     1       5.046  -0.626  26.326  0.00  0.00    +0.024 C 
BRANCH  19  21
ATOM     21  N   UNL     1       3.752  -2.575  25.432  0.00  0.00    -0.300 NA
ATOM     22  C   UNL     1       3.168  -2.917  26.750  0.00  0.00    +0.084 C 
ATOM     23  C   UNL     1       4.021  -3.923  27.526  0.00  0.00    +0.015 C 
ATOM     24  C   UNL     1       4.298  -5.191  26.715  0.00  0.00    +0.002 C 
ATOM     25  C   UNL     1       4.620  -4.922  25.244  0.00  0.00    +0.015 C 
ATOM     26  C   UNL     1       3.731  -3.831  24.648  0.00  0.00    +0.084 C 
ENDBRANCH  19  21
ENDBRANCH  18  19
ENDBRANCH   1  18
TORSDOF 7
ENDMDL
MODEL 8
REMARK VINA RESULT:      -5.4      1.915      3.961
REMARK  Name = 
REMARK  9 active torsions:
REMARK  status: ('A' for Active; 'I' for Inactive)
REMARK    1  A    between atoms: C_1  and  C_2
REMARK    2  A    between atoms: C_2  and  C_3
REMARK    3  A    between atoms: C_3  and  C_5
REMARK    4  A    between atoms: C_5  and  C_6
REMARK    5  A    between atoms: C_5  and  C_15
REMARK    6  A    between atoms: C_5  and  C_21
REMARK    7  A    between atoms: C_6  and  C_7
REMARK    8  A    between atoms: C_7  and  C_8
REMARK    9  A    between atoms: C_7  and  N_9
REMARK                            x       y       z     vdW  Elec       q    Type
REMARK                         _______ _______ _______ _____ _____    ______ ____
ROOT
ATOM      1  C   UNL     1       7.231  -3.060  24.221  0.00  0.00    +0.080 C 
ENDROOT
BRANCH   1   2
ATOM      2  C   UNL     1       6.970  -4.007  23.004  0.00  0.00    -0.030 A 
ATOM      3  C   UNL     1       6.331  -3.554  21.833  0.00  0.00    +0.005 A 
ATOM      4  C   UNL     1       5.937  -4.431  20.817  0.00  0.00    +0.000 A 
ATOM      5  C   UNL     1       6.263  -5.777  20.897  0.00  0.00    +0.000 A 
ATOM      6  C   UNL     1       7.047  -6.222  21.955  0.00  0.00    +0.000 A 
ATOM      7  C   UNL     1       7.427  -5.337  22.973  0.00  0.00    +0.005 A 
ENDBRANCH   1   2
BRANCH   1   8
ATOM      8  C   UNL     1       7.026  -1.513  23.971  0.00  0.00    -0.030 A 
ATOM      9  C   UNL     1       6.040  -0.811  24.704  0.00  0.00    +0.005 A 
ATOM     10  C   UNL     1       5.866   0.572  24.574  0.00  0.00    +0.000 A 
ATOM     11  C   UNL     1       6.691   1.303  23.731  0.00  0.00    +0.000 A 
ATOM     12  C   UNL     1       7.642   0.638  22.967  0.00  0.00    +0.000 A 
ATOM     13  C   UNL     1       7.771  -0.755  23.049  0.00  0.00    +0.005 A 
ENDBRANCH   1   8
BRANCH   1  14
ATOM     14  C   UNL     1       8.788  -3.249  24.540  0.00  0.00    +0.148 C 
ATOM     15  O   UNL     1       9.652  -2.948  23.717  0.00  0.00    -0.296 OA
BRANCH  14  17
ATOM     16  C   UNL     1       9.867  -5.145  25.843  0.00  0.00    +0.012 C 
ATOM     17  C   UNL     1       9.199  -3.781  25.915  0.00  0.00    +0.072 C 
ENDBRANCH  14  17
ENDBRANCH   1  14
BRANCH   1  18
ATOM     18  C   UNL     1       6.361  -3.421  25.502  0.00  0.00    +0.042 C 
BRANCH  18  19
ATOM     19  C   UNL     1       5.631  -4.800  25.603  0.00  0.00    +0.055 C 
ATOM     20  C   UNL     1       6.273  -5.685  26.686  0.00  0.00    +0.024 C 
BRANCH  19  21
ATOM     21  N   UNL     1       4.163  -4.602  25.881  0.00  0.00    -0.300 NA
ATOM     22  C   UNL     1       3.428  -5.859  26.153  0.00  0.00    +0.084 C 
ATOM     23  C   UNL     1       3.466  -6.829  24.969  0.00  0.00    +0.015 C 
ATOM     24  C   UNL     1       2.965  -6.181  23.677  0.00  0.00    +0.002 C 
ATOM     25  C   UNL     1       3.454  -4.746  23.478  0.00  0.00    +0.015 C 
ATOM     26  C   UNL     1       3.429  -3.941  24.777  0.00  0.00    +0.084 C 
ENDBRANCH  19  21
ENDBRANCH  18  19
ENDBRANCH   1  18
TORSDOF 7
ENDMDL
MODEL 9
REMARK VINA RESULT:      -5.3      1.293      4.114
REMARK  Name = 
REMARK  9 active torsions:
REMARK  status: ('A' for Active; 'I' for Inactive)
REMARK    1  A    between atoms: C_1  and  C_2
REMARK    2  A    between atoms: C_2  and  C_3
REMARK    3  A    between atoms: C_3  and  C_5
REMARK    4  A    between atoms: C_5  and  C_6
REMARK    5  A    between atoms: C_5  and  C_15
REMARK    6  A    between atoms: C_5  and  C_21
REMARK    7  A    between atoms: C_6  and  C_7
REMARK    8  A    between atoms: C_7  and  C_8
REMARK    9  A    between atoms: C_7  and  N_9
REMARK                            x       y       z     vdW  Elec       q    Type
REMARK                         _______ _______ _______ _____ _____    ______ ____
ROOT
ATOM      1  C   UNL     1       7.311  -1.320  24.696  0.00  0.00    +0.080 C 
ENDROOT
BRANCH   1   2
ATOM      2  C   UNL     1       6.841  -0.348  25.827  0.00  0.00    -0.030 A 
ATOM      3  C   UNL     1       5.722   0.494  25.665  0.00  0.00    +0.005 A 
ATOM      4  C   UNL     1       5.402   1.487  26.596  0.00  0.00    +0.000 A 
ATOM      5  C   UNL     1       6.133   1.600  27.770  0.00  0.00    +0.000 A 
ATOM      6  C   UNL     1       7.130   0.671  28.039  0.00  0.00    +0.000 A 
ATOM      7  C   UNL     1       7.451  -0.314  27.094  0.00  0.00    +0.005 A 
ENDBRANCH   1   2
BRANCH   1   8
ATOM      8  C   UNL     1       8.063  -2.631  25.156  0.00  0.00    -0.030 A 
ATOM      9  C   UNL     1       7.638  -3.309  26.322  0.00  0.00    +0.005 A 
ATOM     10  C   UNL     1       8.222  -4.513  26.734  0.00  0.00    +0.000 A 
ATOM     11  C   UNL     1       9.229  -5.094  25.977  0.00  0.00    +0.000 A 
ATOM     12  C   UNL     1       9.697  -4.434  24.848  0.00  0.00    +0.000 A 
ATOM     13  C   UNL     1       9.157  -3.196  24.475  0.00  0.00    +0.005 A 
ENDBRANCH   1   8
BRANCH   1  14
ATOM     14  C   UNL     1       8.383  -0.469  23.868  0.00  0.00    +0.148 C 
ATOM     15  O   UNL     1       8.290  -0.335  22.647  0.00  0.00    -0.296 OA
BRANCH  14  17
ATOM     16  C   UNL     1       9.481   1.735  24.497  0.00  0.00    +0.012 C 
ATOM     17  C   UNL     1       9.522   0.220  24.623  0.00  0.00    +0.072 C 
ENDBRANCH  14  17
ENDBRANCH   1  14
BRANCH   1  18
ATOM     18  C   UNL     1       6.133  -1.797  23.740  0.00  0.00    +0.042 C 
BRANCH  18  19
ATOM     19  C   UNL     1       5.418  -3.166  23.984  0.00  0.00    +0.055 C 
ATOM     20  C   UNL     1       4.256  -3.011  24.981  0.00  0.00    +0.024 C 
BRANCH  19  21
ATOM     21  N   UNL     1       4.926  -3.744  22.682  0.00  0.00    -0.300 NA
ATOM     22  C   UNL     1       4.391  -5.121  22.800  0.00  0.00    +0.084 C 
ATOM     23  C   UNL     1       5.444  -6.119  23.289  0.00  0.00    +0.015 C 
ATOM     24  C   UNL     1       6.702  -6.104  22.419  0.00  0.00    +0.002 C 
ATOM     25  C   UNL     1       7.145  -4.700  22.003  0.00  0.00    +0.015 C 
ATOM     26  C   UNL     1       5.963  -3.808  21.626  0.00  0.00    +0.084 C 
ENDBRANCH  19  21
ENDBRANCH  18  19
ENDBRANCH   1  18
TORSDOF 7
ENDMDL
