MODEL 1
REMARK VINA RESULT:      -7.9      0.000      0.000
REMARK  Name = 
REMARK  4 active torsions:
REMARK  status: ('A' for Active; 'I' for Inactive)
REMARK    1  A    between atoms: C_11  and  N_14
REMARK    2  A    between atoms: N_17  and  C_18
REMARK    3  A    between atoms: C_18  and  C_19
REMARK    4  A    between atoms: C_22  and  N_23
REMARK                            x       y       z     vdW  Elec       q    Type
REMARK                         _______ _______ _______ _____ _____    ______ ____
ROOT
ATOM      1  N   UNL     1       7.698  -3.515  24.664  0.00  0.00    -0.294 N 
ATOM      2  H   UNL     1       8.361  -3.817  25.361  0.00  0.00    +0.151 HD
ATOM      3  C   UNL     1       8.250  -2.960  23.537  0.00  0.00    +0.300 C 
ATOM      4  N   UNL     1       9.525  -2.511  23.742  0.00  0.00    -0.295 N 
ATOM      5  H   UNL     1       9.728  -2.166  24.666  0.00  0.00    +0.151 HD
ATOM      6  O   UNL     1       7.690  -2.886  22.450  0.00  0.00    -0.253 OA
ENDROOT
BRANCH   1   9
ATOM      7  C   UNL     1       4.786  -5.638  25.992  0.00  0.00    -0.008 C 
ATOM      8  C   UNL     1       6.156  -4.929  25.986  0.00  0.00    +0.029 C 
ATOM      9  C   UNL     1       6.389  -4.189  24.640  0.00  0.00    +0.037 C 
ATOM     10  C   UNL     1       5.237  -3.165  24.461  0.00  0.00    +0.029 C 
ATOM     11  C   UNL     1       3.874  -3.872  24.450  0.00  0.00    -0.008 C 
ATOM     12  C   UNL     1       3.846  -4.893  23.300  0.00  0.00    +0.007 C 
ATOM     13  C   UNL     1       4.949  -5.946  23.500  0.00  0.00    -0.008 C 
ATOM     14  C   UNL     1       6.320  -5.250  23.510  0.00  0.00    +0.029 C 
ATOM     15  C   UNL     1       4.732  -6.658  24.844  0.00  0.00    +0.007 C 
ATOM     16  C   UNL     1       3.674  -4.595  25.789  0.00  0.00    +0.007 C 
ENDBRANCH   1   9
BRANCH   4  17
ATOM     17  C   UNL     1      10.193  -1.850  22.638  0.00  0.00    +0.141 C 
BRANCH  17  18
ATOM     18  C   UNL     1      10.235  -0.358  22.814  0.00  0.00    -0.030 A 
ATOM     19  C   UNL     1      10.682   0.211  24.011  0.00  0.00    +0.008 A 
ATOM     20  C   UNL     1      10.720   1.601  24.163  0.00  0.00    +0.042 A 
ATOM     21  C   UNL     1      10.313   2.454  23.129  0.00  0.00    +0.100 A 
ATOM     22  C   UNL     1       9.799   1.877  21.963  0.00  0.00    +0.042 A 
ATOM     23  C   UNL     1       9.767   0.488  21.802  0.00  0.00    +0.008 A 
BRANCH  21  24
ATOM     24  N   UNL     1      10.376   3.843  23.329  0.00  0.00    -0.244 N 
ATOM     25  H   UNL     1      11.180   4.294  22.913  0.00  0.00    +0.265 HD
ATOM     26  C   UNL     1       9.394   4.667  23.755  0.00  0.00    +0.381 C 
ATOM     27  N   UNL     1       8.505   4.434  24.654  0.00  0.00    -0.129 NA
ATOM     28  H   UNL     1       8.693   3.500  25.033  0.00  0.00    +0.306 HD
ATOM     29  N   UNL     1       9.410   5.882  23.161  0.00  0.00    -0.289 N 
ATOM     30  H   UNL     1       8.619   6.417  23.512  0.00  0.00    +0.255 HD
ATOM     31  H   UNL     1       9.345   5.819  22.153  0.00  0.00    +0.255 HD
ENDBRANCH  21  24
ENDBRANCH  17  18
ENDBRANCH   4  17
TORSDOF 4
ENDMDL
MODEL 2
REMARK VINA RESULT:      -7.9      0.638      1.998
REMARK  Name = 
REMARK  4 active torsions:
REMARK  status: ('A' for Active; 'I' for Inactive)
REMARK    1  A    between atoms: C_11  and  N_14
REMARK    2  A    between atoms: N_17  and  C_18
REMARK    3  A    between atoms: C_18  and  C_19
REMARK    4  A    between atoms: C_22  and  N_23
REMARK                            x       y       z     vdW  Elec       q    Type
REMARK                         _______ _______ _______ _____ _____    ______ ____
ROOT
ATOM      1  N   UNL     1       7.838  -3.594  24.669  0.00  0.00    -0.294 N 
ATOM      2  H   UNL     1       8.506  -3.936  25.344  0.00  0.00    +0.151 HD
ATOM      3  C   UNL     1       8.383  -2.980  23.570  0.00  0.00    +0.300 C 
ATOM      4  N   UNL     1       9.661  -2.546  23.789  0.00  0.00    -0.295 N 
ATOM      5  H   UNL     1       9.873  -2.253  24.729  0.00  0.00    +0.151 HD
ATOM      6  O   UNL     1       7.815  -2.845  22.493  0.00  0.00    -0.253 OA
ENDROOT
BRANCH   1   9
ATOM      7  C   UNL     1       4.016  -3.875  24.432  0.00  0.00    -0.008 C 
ATOM      8  C   UNL     1       5.401  -3.201  24.496  0.00  0.00    +0.029 C 
ATOM      9  C   UNL     1       6.528  -4.263  24.620  0.00  0.00    +0.037 C 
ATOM     10  C   UNL     1       6.426  -5.201  23.388  0.00  0.00    +0.029 C 
ATOM     11  C   UNL     1       5.053  -5.886  23.334  0.00  0.00    -0.008 C 
ATOM     12  C   UNL     1       4.844  -6.696  24.624  0.00  0.00    +0.007 C 
ATOM     13  C   UNL     1       4.886  -5.765  25.848  0.00  0.00    -0.008 C 
ATOM     14  C   UNL     1       6.258  -5.075  25.914  0.00  0.00    +0.029 C 
ATOM     15  C   UNL     1       3.788  -4.699  25.710  0.00  0.00    +0.007 C 
ATOM     16  C   UNL     1       3.963  -4.813  23.215  0.00  0.00    +0.007 C 
ENDBRANCH   1   9
BRANCH   4  17
ATOM     17  C   UNL     1      10.323  -1.828  22.717  0.00  0.00    +0.141 C 
BRANCH  17  18
ATOM     18  C   UNL     1      10.227  -0.338  22.892  0.00  0.00    -0.030 A 
ATOM     19  C   UNL     1       9.864   0.487  21.823  0.00  0.00    +0.008 A 
ATOM     20  C   UNL     1       9.775   1.872  21.997  0.00  0.00    +0.042 A 
ATOM     21  C   UNL     1      10.044   2.466  23.238  0.00  0.00    +0.100 A 
ATOM     22  C   UNL     1      10.475   1.641  24.282  0.00  0.00    +0.042 A 
ATOM     23  C   UNL     1      10.559   0.255  24.116  0.00  0.00    +0.008 A 
BRANCH  21  24
ATOM     24  N   UNL     1       9.932   3.860  23.363  0.00  0.00    -0.244 N 
ATOM     25  H   UNL     1       9.012   4.190  23.621  0.00  0.00    +0.265 HD
ATOM     26  C   UNL     1      10.929   4.769  23.450  0.00  0.00    +0.381 C 
ATOM     27  N   UNL     1      12.050   4.771  22.821  0.00  0.00    -0.129 NA
ATOM     28  H   UNL     1      12.049   3.960  22.194  0.00  0.00    +0.306 HD
ATOM     29  N   UNL     1      10.653   5.797  24.283  0.00  0.00    -0.289 N 
ATOM     30  H   UNL     1      11.466   6.406  24.315  0.00  0.00    +0.255 HD
ATOM     31  H   UNL     1      10.436   5.485  25.221  0.00  0.00    +0.255 HD
ENDBRANCH  21  24
ENDBRANCH  17  18
ENDBRANCH   4  17
TORSDOF 4
ENDMDL
MODEL 3
REMARK VINA RESULT:      -7.8      0.068      1.524
REMARK  Name = 
REMARK  4 active torsions:
REMARK  status: ('A' for Active; 'I' for Inactive)
REMARK    1  A    between atoms: C_11  and  N_14
REMARK    2  A    between atoms: N_17  and  C_18
REMARK    3  A    between atoms: C_18  and  C_19
REMARK    4  A    between atoms: C_22  and  N_23
REMARK                            x       y       z     vdW  Elec       q    Type
REMARK                         _______ _______ _______ _____ _____    ______ ____
ROOT
ATOM      1  N   UNL     1       7.676  -3.540  24.667  0.00  0.00    -0.294 N 
ATOM      2  H   UNL     1       8.344  -3.844  25.358  0.00  0.00    +0.151 HD
ATOM      3  C   UNL     1       8.219  -2.980  23.538  0.00  0.00    +0.300 C 
ATOM      4  N   UNL     1       9.495  -2.530  23.736  0.00  0.00    -0.295 N 
ATOM      5  H   UNL     1       9.705  -2.188  24.660  0.00  0.00    +0.151 HD
ATOM      6  O   UNL     1       7.650  -2.902  22.456  0.00  0.00    -0.253 OA
ENDROOT
BRANCH   1   9
ATOM      7  C   UNL     1       4.947  -5.940  23.425  0.00  0.00    -0.008 C 
ATOM      8  C   UNL     1       6.306  -5.210  23.460  0.00  0.00    +0.029 C 
ATOM      9  C   UNL     1       6.368  -4.215  24.651  0.00  0.00    +0.037 C 
ATOM     10  C   UNL     1       6.143  -5.028  25.954  0.00  0.00    +0.029 C 
ATOM     11  C   UNL     1       4.784  -5.741  25.927  0.00  0.00    -0.008 C 
ATOM     12  C   UNL     1       3.670  -4.693  25.768  0.00  0.00    +0.007 C 
ATOM     13  C   UNL     1       3.851  -3.920  24.451  0.00  0.00    -0.008 C 
ATOM     14  C   UNL     1       5.209  -3.200  24.467  0.00  0.00    +0.029 C 
ATOM     15  C   UNL     1       3.816  -4.909  23.275  0.00  0.00    +0.007 C 
ATOM     16  C   UNL     1       4.752  -6.713  24.740  0.00  0.00    +0.007 C 
ENDBRANCH   1   9
BRANCH   4  17
ATOM     17  C   UNL     1      10.154  -1.864  22.629  0.00  0.00    +0.141 C 
BRANCH  17  18
ATOM     18  C   UNL     1      10.216  -0.375  22.823  0.00  0.00    -0.030 A 
ATOM     19  C   UNL     1      10.674   0.174  24.025  0.00  0.00    +0.008 A 
ATOM     20  C   UNL     1      10.730   1.561  24.193  0.00  0.00    +0.042 A 
ATOM     21  C   UNL     1      10.334   2.433  23.169  0.00  0.00    +0.100 A 
ATOM     22  C   UNL     1       9.811   1.876  21.998  0.00  0.00    +0.042 A 
ATOM     23  C   UNL     1       9.759   0.489  21.821  0.00  0.00    +0.008 A 
BRANCH  21  24
ATOM     24  N   UNL     1      10.418   3.818  23.385  0.00  0.00    -0.244 N 
ATOM     25  H   UNL     1      11.263   4.250  23.039  0.00  0.00    +0.265 HD
ATOM     26  C   UNL     1       9.425   4.665  23.738  0.00  0.00    +0.381 C 
ATOM     27  N   UNL     1       8.461   4.450  24.560  0.00  0.00    -0.129 NA
ATOM     28  H   UNL     1       8.594   3.509  24.946  0.00  0.00    +0.306 HD
ATOM     29  N   UNL     1       9.521   5.882  23.157  0.00  0.00    -0.289 N 
ATOM     30  H   UNL     1       8.719   6.436  23.448  0.00  0.00    +0.255 HD
ATOM     31  H   UNL     1       9.535   5.827  22.147  0.00  0.00    +0.255 HD
ENDBRANCH  21  24
ENDBRANCH  17  18
ENDBRANCH   4  17
TORSDOF 4
ENDMDL
MODEL 4
REMARK VINA RESULT:      -7.8      2.705      8.714
REMARK  Name = 
REMARK  4 active torsions:
REMARK  status: ('A' for Active; 'I' for Inactive)
REMARK    1  A    between atoms: C_11  and  N_14
REMARK    2  A    between atoms: N_17  and  C_18
REMARK    3  A    between atoms: C_18  and  C_19
REMARK    4  A    between atoms: C_22  and  N_23
REMARK                            x       y       z     vdW  Elec       q    Type
REMARK                         _______ _______ _______ _____ _____    ______ ____
ROOT
ATOM      1  N   UNL     1       9.555  -1.747  23.479  0.00  0.00    -0.294 N 
ATOM      2  H   UNL     1      10.375  -2.156  23.057  0.00  0.00    +0.151 HD
ATOM      3  C   UNL     1       9.004  -2.474  24.504  0.00  0.00    +0.300 C 
ATOM      4  N   UNL     1       9.373  -3.790  24.474  0.00  0.00    -0.295 N 
ATOM      5  H   UNL     1       9.531  -4.184  23.560  0.00  0.00    +0.151 HD
ATOM      6  O   UNL     1       8.278  -2.011  25.376  0.00  0.00    -0.253 OA
ENDROOT
BRANCH   1   9
ATOM      7  C   UNL     1       9.866   1.756  21.937  0.00  0.00    -0.008 C 
ATOM      8  C   UNL     1      10.013   0.225  22.057  0.00  0.00    +0.029 C 
ATOM      9  C   UNL     1       9.409  -0.285  23.394  0.00  0.00    +0.037 C 
ATOM     10  C   UNL     1       7.914   0.130  23.423  0.00  0.00    +0.029 C 
ATOM     11  C   UNL     1       7.768   1.654  23.320  0.00  0.00    -0.008 C 
ATOM     12  C   UNL     1       8.512   2.311  24.495  0.00  0.00    +0.007 C 
ATOM     13  C   UNL     1      10.007   1.952  24.442  0.00  0.00    -0.008 C 
ATOM     14  C   UNL     1      10.167   0.427  24.546  0.00  0.00    +0.029 C 
ATOM     15  C   UNL     1      10.597   2.434  23.108  0.00  0.00    +0.007 C 
ATOM     16  C   UNL     1       8.375   2.128  21.993  0.00  0.00    +0.007 C 
ENDBRANCH   1   9
BRANCH   4  17
ATOM     17  C   UNL     1       8.807  -4.673  25.475  0.00  0.00    +0.141 C 
BRANCH  17  18
ATOM     18  C   UNL     1       7.413  -5.111  25.119  0.00  0.00    -0.030 A 
ATOM     19  C   UNL     1       7.040  -5.299  23.784  0.00  0.00    +0.008 A 
ATOM     20  C   UNL     1       5.741  -5.709  23.464  0.00  0.00    +0.042 A 
ATOM     21  C   UNL     1       4.787  -5.940  24.464  0.00  0.00    +0.100 A 
ATOM     22  C   UNL     1       5.147  -5.680  25.791  0.00  0.00    +0.042 A 
ATOM     23  C   UNL     1       6.446  -5.278  26.117  0.00  0.00    +0.008 A 
BRANCH  21  24
ATOM     24  N   UNL     1       3.499  -6.359  24.091  0.00  0.00    -0.244 N 
ATOM     25  H   UNL     1       3.014  -5.729  23.466  0.00  0.00    +0.265 HD
ATOM     26  C   UNL     1       2.949  -7.585  24.236  0.00  0.00    +0.381 C 
ATOM     27  N   UNL     1       3.083  -8.396  25.224  0.00  0.00    -0.129 NA
ATOM     28  H   UNL     1       3.667  -7.929  25.925  0.00  0.00    +0.306 HD
ATOM     29  N   UNL     1       2.143  -7.941  23.210  0.00  0.00    -0.289 N 
ATOM     30  H   UNL     1       1.807  -8.885  23.385  0.00  0.00    +0.255 HD
ATOM     31  H   UNL     1       2.622  -7.920  22.319  0.00  0.00    +0.255 HD
ENDBRANCH  21  24
ENDBRANCH  17  18
ENDBRANCH   4  17
TORSDOF 4
ENDMDL
MODEL 5
REMARK VINA RESULT:      -7.7      2.646      8.731
REMARK  Name = 
REMARK  4 active torsions:
REMARK  status: ('A' for Active; 'I' for Inactive)
REMARK    1  A    between atoms: C_11  and  N_14
REMARK    2  A    between atoms: N_17  and  C_18
REMARK    3  A    between atoms: C_18  and  C_19
REMARK    4  A    between atoms: C_22  and  N_23
REMARK                            x       y       z     vdW  Elec       q    Type
REMARK                         _______ _______ _______ _____ _____    ______ ____
ROOT
ATOM      1  N   UNL     1       9.132  -1.733  23.606  0.00  0.00    -0.294 N 
ATOM      2  H   UNL     1       9.555  -2.110  24.441  0.00  0.00    +0.151 HD
ATOM      3  C   UNL     1       8.130  -2.497  23.064  0.00  0.00    +0.300 C 
ATOM      4  N   UNL     1       8.187  -3.803  23.467  0.00  0.00    -0.295 N 
ATOM      5  H   UNL     1       9.107  -4.171  23.644  0.00  0.00    +0.151 HD
ATOM      6  O   UNL     1       7.256  -2.073  22.317  0.00  0.00    -0.253 OA
ENDROOT
BRANCH   1   9
ATOM      7  C   UNL     1       9.590   1.585  21.726  0.00  0.00    -0.008 C 
ATOM      8  C   UNL     1       9.536   0.059  21.948  0.00  0.00    +0.029 C 
ATOM      9  C   UNL     1       9.186  -0.273  23.424  0.00  0.00    +0.037 C 
ATOM     10  C   UNL     1       7.813   0.379  23.739  0.00  0.00    +0.029 C 
ATOM     11  C   UNL     1       7.871   1.900  23.535  0.00  0.00    -0.008 C 
ATOM     12  C   UNL     1       8.952   2.490  24.456  0.00  0.00    +0.007 C 
ATOM     13  C   UNL     1      10.326   1.892  24.113  0.00  0.00    -0.008 C 
ATOM     14  C   UNL     1      10.282   0.368  24.315  0.00  0.00    +0.029 C 
ATOM     15  C   UNL     1      10.659   2.198  22.645  0.00  0.00    +0.007 C 
ATOM     16  C   UNL     1       8.222   2.196  22.071  0.00  0.00    +0.007 C 
ENDBRANCH   1   9
BRANCH   4  17
ATOM     17  C   UNL     1       7.212  -4.722  22.913  0.00  0.00    +0.141 C 
BRANCH  17  18
ATOM     18  C   UNL     1       6.394  -5.389  23.983  0.00  0.00    -0.030 A 
ATOM     19  C   UNL     1       6.746  -5.272  25.332  0.00  0.00    +0.008 A 
ATOM     20  C   UNL     1       5.975  -5.895  26.320  0.00  0.00    +0.042 A 
ATOM     21  C   UNL     1       4.840  -6.646  25.988  0.00  0.00    +0.100 A 
ATOM     22  C   UNL     1       4.538  -6.818  24.633  0.00  0.00    +0.042 A 
ATOM     23  C   UNL     1       5.299  -6.191  23.641  0.00  0.00    +0.008 A 
BRANCH  21  24
ATOM     24  N   UNL     1       4.096  -7.245  27.018  0.00  0.00    -0.244 N 
ATOM     25  H   UNL     1       4.074  -8.255  26.992  0.00  0.00    +0.265 HD
ATOM     26  C   UNL     1       3.648  -6.675  28.159  0.00  0.00    +0.381 C 
ATOM     27  N   UNL     1       3.180  -5.488  28.315  0.00  0.00    -0.129 NA
ATOM     28  H   UNL     1       3.169  -5.040  27.393  0.00  0.00    +0.306 HD
ATOM     29  N   UNL     1       3.684  -7.502  29.227  0.00  0.00    -0.289 N 
ATOM     30  H   UNL     1       3.368  -6.982  30.042  0.00  0.00    +0.255 HD
ATOM     31  H   UNL     1       4.613  -7.862  29.405  0.00  0.00    +0.255 HD
ENDBRANCH  21  24
ENDBRANCH  17  18
ENDBRANCH   4  17
TORSDOF 4
ENDMDL
MODEL 6
REMARK VINA RESULT:      -7.7      2.572      8.542
REMARK  Name = 
REMARK  4 active torsions:
REMARK  status: ('A' for Active; 'I' for Inactive)
REMARK    1  A    between atoms: C_11  and  N_14
REMARK    2  A    between atoms: N_17  and  C_18
REMARK    3  A    between atoms: C_18  and  C_19
REMARK    4  A    between atoms: C_22  and  N_23
REMARK                            x       y       z     vdW  Elec       q    Type
REMARK                         _______ _______ _______ _____ _____    ______ ____
ROOT
ATOM      1  N   UNL     1       8.543  -0.256  25.289  0.00  0.00    -0.294 N 
ATOM      2  H   UNL     1       7.770  -0.148  25.929  0.00  0.00    +0.151 HD
ATOM      3  C   UNL     1       8.863  -1.553  24.977  0.00  0.00    +0.300 C 
ATOM      4  N   UNL     1       8.398  -2.447  25.902  0.00  0.00    -0.295 N 
ATOM      5  H   UNL     1       8.357  -2.118  26.852  0.00  0.00    +0.151 HD
ATOM      6  O   UNL     1       9.476  -1.898  23.973  0.00  0.00    -0.253 OA
ENDROOT
BRANCH   1   9
ATOM      7  C   UNL     1       8.354   3.322  23.908  0.00  0.00    -0.008 C 
ATOM      8  C   UNL     1       8.076   2.134  24.852  0.00  0.00    +0.029 C 
ATOM      9  C   UNL     1       8.818   0.858  24.368  0.00  0.00    +0.037 C 
ATOM     10  C   UNL     1      10.334   1.185  24.324  0.00  0.00    +0.029 C 
ATOM     11  C   UNL     1      10.614   2.356  23.372  0.00  0.00    -0.008 C 
ATOM     12  C   UNL     1      10.120   1.988  21.963  0.00  0.00    +0.007 C 
ATOM     13  C   UNL     1       8.605   1.718  21.985  0.00  0.00    -0.008 C 
ATOM     14  C   UNL     1       8.313   0.545  22.935  0.00  0.00    +0.029 C 
ATOM     15  C   UNL     1       7.875   2.972  22.490  0.00  0.00    +0.007 C 
ATOM     16  C   UNL     1       9.866   3.599  23.873  0.00  0.00    +0.007 C 
ENDBRANCH   1   9
BRANCH   4  17
ATOM     17  C   UNL     1       8.725  -3.847  25.710  0.00  0.00    +0.141 C 
BRANCH  17  18
ATOM     18  C   UNL     1       7.600  -4.605  25.062  0.00  0.00    -0.030 A 
ATOM     19  C   UNL     1       7.574  -4.805  23.678  0.00  0.00    +0.008 A 
ATOM     20  C   UNL     1       6.524  -5.515  23.086  0.00  0.00    +0.042 A 
ATOM     21  C   UNL     1       5.478  -6.041  23.857  0.00  0.00    +0.100 A 
ATOM     22  C   UNL     1       5.475  -5.773  25.230  0.00  0.00    +0.042 A 
ATOM     23  C   UNL     1       6.526  -5.072  25.829  0.00  0.00    +0.008 A 
BRANCH  21  24
ATOM     24  N   UNL     1       4.451  -6.752  23.215  0.00  0.00    -0.244 N 
ATOM     25  H   UNL     1       4.695  -7.696  22.946  0.00  0.00    +0.265 HD
ATOM     26  C   UNL     1       3.137  -6.444  23.159  0.00  0.00    +0.381 C 
ATOM     27  N   UNL     1       2.605  -5.281  23.033  0.00  0.00    -0.129 NA
ATOM     28  H   UNL     1       3.370  -4.604  22.943  0.00  0.00    +0.306 HD
ATOM     29  N   UNL     1       2.325  -7.524  23.210  0.00  0.00    -0.289 N 
ATOM     30  H   UNL     1       1.362  -7.198  23.201  0.00  0.00    +0.255 HD
ATOM     31  H   UNL     1       2.477  -8.081  24.042  0.00  0.00    +0.255 HD
ENDBRANCH  21  24
ENDBRANCH  17  18
ENDBRANCH   4  17
TORSDOF 4
ENDMDL
MODEL 7
REMARK VINA RESULT:      -7.7      1.482      2.035
REMARK  Name = 
REMARK  4 active torsions:
REMARK  status: ('A' for Active; 'I' for Inactive)
REMARK    1  A    between atoms: C_11  and  N_14
REMARK    2  A    between atoms: N_17  and  C_18
REMARK    3  A    between atoms: C_18  and  C_19
REMARK    4  A    between atoms: C_22  and  N_23
REMARK                            x       y       z     vdW  Elec       q    Type
REMARK                         _______ _______ _______ _____ _____    ______ ____
ROOT
ATOM      1  N   UNL     1       7.580  -3.584  23.023  0.00  0.00    -0.294 N 
ATOM      2  H   UNL     1       7.647  -3.492  22.021  0.00  0.00    +0.151 HD
ATOM      3  C   UNL     1       8.291  -2.657  23.742  0.00  0.00    +0.300 C 
ATOM      4  N   UNL     1       9.292  -2.079  23.012  0.00  0.00    -0.295 N 
ATOM      5  H   UNL     1       9.722  -2.663  22.313  0.00  0.00    +0.151 HD
ATOM      6  O   UNL     1       8.058  -2.348  24.905  0.00  0.00    -0.253 OA
ENDROOT
BRANCH   1   9
ATOM      7  C   UNL     1       4.027  -3.800  24.466  0.00  0.00    -0.008 C 
ATOM      8  C   UNL     1       5.310  -3.150  23.907  0.00  0.00    +0.029 C 
ATOM      9  C   UNL     1       6.371  -4.229  23.562  0.00  0.00    +0.037 C 
ATOM     10  C   UNL     1       5.741  -5.192  22.520  0.00  0.00    +0.029 C 
ATOM     11  C   UNL     1       4.474  -5.852  23.082  0.00  0.00    -0.008 C 
ATOM     12  C   UNL     1       4.836  -6.631  24.358  0.00  0.00    +0.007 C 
ATOM     13  C   UNL     1       5.409  -5.675  25.418  0.00  0.00    -0.008 C 
ATOM     14  C   UNL     1       6.680  -5.009  24.867  0.00  0.00    +0.029 C 
ATOM     15  C   UNL     1       4.367  -4.592  25.739  0.00  0.00    +0.007 C 
ATOM     16  C   UNL     1       3.447  -4.761  23.416  0.00  0.00    +0.007 C 
ENDBRANCH   1   9
BRANCH   4  17
ATOM     17  C   UNL     1      10.151  -1.123  23.682  0.00  0.00    +0.141 C 
BRANCH  17  18
ATOM     18  C   UNL     1       9.704   0.294  23.456  0.00  0.00    -0.030 A 
ATOM     19  C   UNL     1       9.199   1.063  24.509  0.00  0.00    +0.008 A 
ATOM     20  C   UNL     1       8.789   2.382  24.287  0.00  0.00    +0.042 A 
ATOM     21  C   UNL     1       8.872   2.964  23.015  0.00  0.00    +0.100 A 
ATOM     22  C   UNL     1       9.310   2.164  21.954  0.00  0.00    +0.042 A 
ATOM     23  C   UNL     1       9.729   0.848  22.170  0.00  0.00    +0.008 A 
BRANCH  21  24
ATOM     24  N   UNL     1       8.454   4.294  22.846  0.00  0.00    -0.244 N 
ATOM     25  H   UNL     1       9.158   4.989  23.055  0.00  0.00    +0.265 HD
ATOM     26  C   UNL     1       7.356   4.744  22.199  0.00  0.00    +0.381 C 
ATOM     27  N   UNL     1       6.182   4.222  22.183  0.00  0.00    -0.129 NA
ATOM     28  H   UNL     1       6.206   3.398  22.793  0.00  0.00    +0.306 HD
ATOM     29  N   UNL     1       7.558   5.903  21.532  0.00  0.00    -0.289 N 
ATOM     30  H   UNL     1       6.697   6.144  21.049  0.00  0.00    +0.255 HD
ATOM     31  H   UNL     1       8.308   5.833  20.856  0.00  0.00    +0.255 HD
ENDBRANCH  21  24
ENDBRANCH  17  18
ENDBRANCH   4  17
TORSDOF 4
ENDMDL
MODEL 8
REMARK VINA RESULT:      -7.4      2.771      8.707
REMARK  Name = 
REMARK  4 active torsions:
REMARK  status: ('A' for Active; 'I' for Inactive)
REMARK    1  A    between atoms: C_11  and  N_14
REMARK    2  A    between atoms: N_17  and  C_18
REMARK    3  A    between atoms: C_18  and  C_19
REMARK    4  A    between atoms: C_22  and  N_23
REMARK                            x       y       z     vdW  Elec       q    Type
REMARK                         _______ _______ _______ _____ _____    ______ ____
ROOT
ATOM      1  N   UNL     1       6.993  -1.150  22.764  0.00  0.00    -0.294 N 
ATOM      2  H   UNL     1       6.194  -0.982  22.172  0.00  0.00    +0.151 HD
ATOM      3  C   UNL     1       7.416  -2.454  22.815  0.00  0.00    +0.300 C 
ATOM      4  N   UNL     1       6.445  -3.338  22.435  0.00  0.00    -0.295 N 
ATOM      5  H   UNL     1       5.497  -3.072  22.648  0.00  0.00    +0.151 HD
ATOM      6  O   UNL     1       8.543  -2.810  23.139  0.00  0.00    -0.253 OA
ENDROOT
BRANCH   1   9
ATOM      7  C   UNL     1       8.090   2.519  23.048  0.00  0.00    -0.008 C 
ATOM      8  C   UNL     1       7.153   1.319  22.803  0.00  0.00    +0.029 C 
ATOM      9  C   UNL     1       7.911  -0.023  22.994  0.00  0.00    +0.037 C 
ATOM     10  C   UNL     1       8.470  -0.045  24.441  0.00  0.00    +0.029 C 
ATOM     11  C   UNL     1       9.417   1.140  24.680  0.00  0.00    -0.008 C 
ATOM     12  C   UNL     1      10.577   1.068  23.673  0.00  0.00    +0.007 C 
ATOM     13  C   UNL     1      10.037   1.147  22.235  0.00  0.00    -0.008 C 
ATOM     14  C   UNL     1       9.088  -0.037  21.983  0.00  0.00    +0.029 C 
ATOM     15  C   UNL     1       9.263   2.463  22.056  0.00  0.00    +0.007 C 
ATOM     16  C   UNL     1       8.641   2.449  24.482  0.00  0.00    +0.007 C 
ENDBRANCH   1   9
BRANCH   4  17
ATOM     17  C   UNL     1       6.756  -4.753  22.503  0.00  0.00    +0.141 C 
BRANCH  17  18
ATOM     18  C   UNL     1       6.126  -5.412  23.699  0.00  0.00    -0.030 A 
ATOM     19  C   UNL     1       4.992  -6.219  23.558  0.00  0.00    +0.008 A 
ATOM     20  C   UNL     1       4.417  -6.830  24.677  0.00  0.00    +0.042 A 
ATOM     21  C   UNL     1       4.956  -6.652  25.958  0.00  0.00    +0.100 A 
ATOM     22  C   UNL     1       6.045  -5.786  26.099  0.00  0.00    +0.042 A 
ATOM     23  C   UNL     1       6.631  -5.179  24.984  0.00  0.00    +0.008 A 
BRANCH  21  24
ATOM     24  N   UNL     1       4.345  -7.294  27.048  0.00  0.00    -0.244 N 
ATOM     25  H   UNL     1       4.554  -8.280  27.131  0.00  0.00    +0.265 HD
ATOM     26  C   UNL     1       3.755  -6.725  28.123  0.00  0.00    +0.381 C 
ATOM     27  N   UNL     1       3.027  -5.666  28.154  0.00  0.00    -0.129 NA
ATOM     28  H   UNL     1       2.934  -5.332  27.189  0.00  0.00    +0.306 HD
ATOM     29  N   UNL     1       3.955  -7.407  29.274  0.00  0.00    -0.289 N 
ATOM     30  H   UNL     1       3.511  -6.890  30.029  0.00  0.00    +0.255 HD
ATOM     31  H   UNL     1       4.937  -7.524  29.486  0.00  0.00    +0.255 HD
ENDBRANCH  21  24
ENDBRANCH  17  18
ENDBRANCH   4  17
TORSDOF 4
ENDMDL
MODEL 9
REMARK VINA RESULT:      -7.3      2.631      8.537
REMARK  Name = 
REMARK  4 active torsions:
REMARK  status: ('A' for Active; 'I' for Inactive)
REMARK    1  A    between atoms: C_11  and  N_14
REMARK    2  A    between atoms: N_17  and  C_18
REMARK    3  A    between atoms: C_18  and  C_19
REMARK    4  A    between atoms: C_22  and  N_23
REMARK                            x       y       z     vdW  Elec       q    Type
REMARK                         _______ _______ _______ _____ _____    ______ ____
ROOT
ATOM      1  N   UNL     1       9.892   2.454  23.062  0.00  0.00    -0.294 N 
ATOM      2  H   UNL     1      10.775   2.202  23.478  0.00  0.00    +0.151 HD
ATOM      3  C   UNL     1       9.212   1.420  22.469  0.00  0.00    +0.300 C 
ATOM      4  N   UNL     1      10.025   0.367  22.155  0.00  0.00    -0.295 N 
ATOM      5  H   UNL     1      10.972   0.599  21.906  0.00  0.00    +0.151 HD
ATOM      6  O   UNL     1       8.005   1.410  22.256  0.00  0.00    -0.253 OA
ENDROOT
BRANCH   1   9
ATOM      7  C   UNL     1       7.345   5.325  23.180  0.00  0.00    -0.008 C 
ATOM      8  C   UNL     1       8.095   4.097  22.624  0.00  0.00    +0.029 C 
ATOM      9  C   UNL     1       9.199   3.630  23.611  0.00  0.00    +0.037 C 
ATOM     10  C   UNL     1       8.510   3.292  24.961  0.00  0.00    +0.029 C 
ATOM     11  C   UNL     1       7.777   4.519  25.523  0.00  0.00    -0.008 C 
ATOM     12  C   UNL     1       8.789   5.659  25.726  0.00  0.00    +0.007 C 
ATOM     13  C   UNL     1       9.436   6.040  24.384  0.00  0.00    -0.008 C 
ATOM     14  C   UNL     1      10.174   4.819  23.811  0.00  0.00    +0.029 C 
ATOM     15  C   UNL     1       8.340   6.477  23.399  0.00  0.00    +0.007 C 
ATOM     16  C   UNL     1       6.697   4.958  24.525  0.00  0.00    +0.007 C 
ENDBRANCH   1   9
BRANCH   4  17
ATOM     17  C   UNL     1       9.430  -0.764  21.470  0.00  0.00    +0.141 C 
BRANCH  17  18
ATOM     18  C   UNL     1       9.048  -1.864  22.421  0.00  0.00    -0.030 A 
ATOM     19  C   UNL     1       7.824  -2.528  22.294  0.00  0.00    +0.008 A 
ATOM     20  C   UNL     1       7.480  -3.552  23.184  0.00  0.00    +0.042 A 
ATOM     21  C   UNL     1       8.345  -3.936  24.217  0.00  0.00    +0.100 A 
ATOM     22  C   UNL     1       9.534  -3.217  24.381  0.00  0.00    +0.042 A 
ATOM     23  C   UNL     1       9.887  -2.199  23.490  0.00  0.00    +0.008 A 
BRANCH  21  24
ATOM     24  N   UNL     1       7.956  -4.975  25.079  0.00  0.00    -0.244 N 
ATOM     25  H   UNL     1       8.156  -5.905  24.737  0.00  0.00    +0.265 HD
ATOM     26  C   UNL     1       7.612  -4.888  26.383  0.00  0.00    +0.381 C 
ATOM     27  N   UNL     1       6.929  -3.962  26.957  0.00  0.00    -0.129 NA
ATOM     28  H   UNL     1       6.648  -3.295  26.231  0.00  0.00    +0.306 HD
ATOM     29  N   UNL     1       8.028  -5.939  27.124  0.00  0.00    -0.289 N 
ATOM     30  H   UNL     1       7.760  -5.771  28.091  0.00  0.00    +0.255 HD
ATOM     31  H   UNL     1       9.031  -6.071  27.077  0.00  0.00    +0.255 HD
ENDBRANCH  21  24
ENDBRANCH  17  18
ENDBRANCH   4  17
TORSDOF 4
ENDMDL
