MODEL 1
REMARK VINA RESULT:      -6.2      0.000      0.000
REMARK  Name = 
REMARK  16 active torsions:
REMARK  status: ('A' for Active; 'I' for Inactive)
REMARK    1  A    between atoms: O_1  and  C_2
REMARK    2  A    between atoms: C_2  and  C_3
REMARK    3  A    between atoms: C_3  and  O_5
REMARK    4  A    between atoms: C_3  and  C_6
REMARK    5  A    between atoms: C_6  and  O_8
REMARK    6  A    between atoms: C_6  and  C_9
REMARK    7  A    between atoms: C_9  and  O_11
REMARK    8  A    between atoms: C_9  and  C_12
REMARK    9  A    between atoms: C_12  and  N_13
REMARK   10  A    between atoms: N_16  and  C_17
REMARK   11  A    between atoms: C_17  and  C_18
REMARK   12  A    between atoms: C_18  and  C_19
REMARK   13  A    between atoms: C_19  and  O_20
REMARK   14  A    between atoms: O_20  and  P_21
REMARK   15  A    between atoms: P_21  and  O_22
REMARK   16  A    between atoms: P_21  and  O_23
REMARK                            x       y       z     vdW  Elec       q    Type
REMARK                         _______ _______ _______ _____ _____    ______ ____
ROOT
ATOM      1  N   UNL     1       5.800  -2.715  23.843  0.00  0.00    -0.275 N 
ATOM      2  C   UNL     1       5.713  -3.907  23.180  0.00  0.00    +0.149 A 
ATOM      3  N   UNL     1       5.982  -4.144  21.879  0.00  0.00    -0.292 N 
ATOM      4  H   UNL     1       6.169  -3.360  21.262  0.00  0.00    +0.172 HD
ATOM      5  C   UNL     1       5.870  -5.390  21.330  0.00  0.00    +0.328 A 
ATOM      6  N   UNL     1       5.504  -6.391  22.200  0.00  0.00    -0.273 N 
ATOM      7  H   UNL     1       5.399  -7.312  21.805  0.00  0.00    +0.173 HD
ATOM      8  C   UNL     1       5.138  -6.227  23.519  0.00  0.00    +0.280 A 
ATOM      9  O   UNL     1       4.708  -7.157  24.190  0.00  0.00    -0.265 OA
ATOM     10  O   UNL     1       6.068  -5.608  20.143  0.00  0.00    -0.247 OA
ATOM     11  C   UNL     1       5.300  -4.854  24.023  0.00  0.00    +0.152 A 
ATOM     12  N   UNL     1       5.113  -4.301  25.267  0.00  0.00    -0.286 N 
ATOM     13  C   UNL     1       5.428  -2.923  25.193  0.00  0.00    +0.331 A 
ATOM     14  O   UNL     1       5.403  -2.101  26.093  0.00  0.00    -0.246 OA
ENDROOT
BRANCH  12  15
ATOM     15  C   UNL     1       4.724  -4.969  26.476  0.00  0.00    +0.129 C 
BRANCH  15  16
ATOM     16  C   UNL     1       5.824  -5.883  27.006  0.00  0.00    +0.050 C 
BRANCH  16  17
ATOM     17  C   UNL     1       7.139  -5.146  27.077  0.00  0.00    +0.174 C 
BRANCH  17  18
ATOM     18  O   UNL     1       8.137  -5.870  26.362  0.00  0.00    -0.287 OA
BRANCH  18  19
ATOM     19  P   UNL     1       8.991  -4.804  25.302  0.00  0.00    +0.472 P 
ATOM     20  O   UNL     1       9.756  -3.850  24.352  0.00  0.00    -0.228 OA
BRANCH  19  21
ATOM     21  O   UNL     1       8.814  -3.694  26.497  0.00  0.00    -0.303 OA
ATOM     22  H   UNL     1       9.474  -3.789  27.201  0.00  0.00    +0.222 HD
ENDBRANCH  19  21
BRANCH  19  23
ATOM     23  O   UNL     1      10.340  -5.502  25.909  0.00  0.00    -0.303 OA
ATOM     24  H   UNL     1      11.098  -5.426  25.309  0.00  0.00    +0.222 HD
ENDBRANCH  19  23
ENDBRANCH  18  19
ENDBRANCH  17  18
ENDBRANCH  16  17
ENDBRANCH  15  16
ENDBRANCH  12  15
BRANCH   1  25
ATOM     25  C   UNL     1       6.342  -1.475  23.338  0.00  0.00    +0.162 C 
BRANCH  25  26
ATOM     26  C   UNL     1       7.858  -1.336  23.536  0.00  0.00    +0.165 C 
BRANCH  26  27
ATOM     27  O   UNL     1       8.163  -1.281  24.952  0.00  0.00    -0.387 OA
ATOM     28  H   UNL     1       7.315  -1.416  25.414  0.00  0.00    +0.210 HD
ENDBRANCH  26  27
BRANCH  26  29
ATOM     29  C   UNL     1       8.443  -0.046  22.924  0.00  0.00    +0.175 C 
BRANCH  29  30
ATOM     30  O   UNL     1       7.837   1.070  23.602  0.00  0.00    -0.387 OA
ATOM     31  H   UNL     1       7.938   1.842  23.016  0.00  0.00    +0.210 HD
ENDBRANCH  29  30
BRANCH  29  32
ATOM     32  C   UNL     1       9.969   0.110  22.957  0.00  0.00    +0.171 C 
BRANCH  32  33
ATOM     33  O   UNL     1      10.601  -1.141  23.258  0.00  0.00    -0.387 OA
ATOM     34  H   UNL     1      10.978  -1.020  24.155  0.00  0.00    +0.210 HD
ENDBRANCH  32  33
BRANCH  32  35
ATOM     35  C   UNL     1      10.467   1.180  23.932  0.00  0.00    +0.189 C 
BRANCH  35  36
ATOM     36  O   UNL     1      10.326   0.657  25.258  0.00  0.00    -0.392 OA
ATOM     37  H   UNL     1       9.621  -0.013  25.221  0.00  0.00    +0.210 HD
ENDBRANCH  35  36
ENDBRANCH  32  35
ENDBRANCH  29  32
ENDBRANCH  26  29
ENDBRANCH  25  26
ENDBRANCH   1  25
TORSDOF 16
ENDMDL
MODEL 2
REMARK VINA RESULT:      -5.9      2.270      3.887
REMARK  Name = 
REMARK  16 active torsions:
REMARK  status: ('A' for Active; 'I' for Inactive)
REMARK    1  A    between atoms: O_1  and  C_2
REMARK    2  A    between atoms: C_2  and  C_3
REMARK    3  A    between atoms: C_3  and  O_5
REMARK    4  A    between atoms: C_3  and  C_6
REMARK    5  A    between atoms: C_6  and  O_8
REMARK    6  A    between atoms: C_6  and  C_9
REMARK    7  A    between atoms: C_9  and  O_11
REMARK    8  A    between atoms: C_9  and  C_12
REMARK    9  A    between atoms: C_12  and  N_13
REMARK   10  A    between atoms: N_16  and  C_17
REMARK   11  A    between atoms: C_17  and  C_18
REMARK   12  A    between atoms: C_18  and  C_19
REMARK   13  A    between atoms: C_19  and  O_20
REMARK   14  A    between atoms: O_20  and  P_21
REMARK   15  A    between atoms: P_21  and  O_22
REMARK   16  A    between atoms: P_21  and  O_23
REMARK                            x       y       z     vdW  Elec       q    Type
REMARK                         _______ _______ _______ _____ _____    ______ ____
ROOT
ATOM      1  N   UNL     1       6.349  -2.933  24.358  0.00  0.00    -0.275 N 
ATOM      2  C   UNL     1       7.293  -3.722  24.951  0.00  0.00    +0.149 A 
ATOM      3  N   UNL     1       8.579  -3.883  24.578  0.00  0.00    -0.292 N 
ATOM      4  H   UNL     1       8.895  -3.477  23.703  0.00  0.00    +0.172 HD
ATOM      5  C   UNL     1       9.438  -4.696  25.263  0.00  0.00    +0.328 A 
ATOM      6  N   UNL     1       8.914  -5.306  26.379  0.00  0.00    -0.273 N 
ATOM      7  H   UNL     1       9.530  -5.922  26.885  0.00  0.00    +0.173 HD
ATOM      8  C   UNL     1       7.598  -5.258  26.788  0.00  0.00    +0.280 A 
ATOM      9  O   UNL     1       7.189  -5.929  27.727  0.00  0.00    -0.265 OA
ATOM     10  O   UNL     1      10.594  -4.884  24.909  0.00  0.00    -0.247 OA
ATOM     11  C   UNL     1       6.753  -4.351  25.995  0.00  0.00    +0.152 A 
ATOM     12  N   UNL     1       5.436  -3.979  26.114  0.00  0.00    -0.286 N 
ATOM     13  C   UNL     1       5.136  -3.063  25.078  0.00  0.00    +0.331 A 
ATOM     14  O   UNL     1       4.079  -2.497  24.863  0.00  0.00    -0.246 OA
ENDROOT
BRANCH  12  15
ATOM     15  C   UNL     1       4.498  -4.377  27.126  0.00  0.00    +0.129 C 
BRANCH  15  16
ATOM     16  C   UNL     1       3.421  -5.306  26.576  0.00  0.00    +0.050 C 
BRANCH  16  17
ATOM     17  C   UNL     1       3.862  -6.746  26.671  0.00  0.00    +0.174 C 
BRANCH  17  18
ATOM     18  O   UNL     1       4.500  -7.136  25.458  0.00  0.00    -0.287 OA
BRANCH  18  19
ATOM     19  P   UNL     1       3.634  -6.495  24.105  0.00  0.00    +0.472 P 
ATOM     20  O   UNL     1       2.859  -5.922  22.895  0.00  0.00    -0.228 OA
BRANCH  19  21
ATOM     21  O   UNL     1       5.050  -6.663  23.294  0.00  0.00    -0.303 OA
ATOM     22  H   UNL     1       5.305  -7.590  23.168  0.00  0.00    +0.222 HD
ENDBRANCH  19  21
BRANCH  19  23
ATOM     23  O   UNL     1       3.119  -8.032  23.881  0.00  0.00    -0.303 OA
ATOM     24  H   UNL     1       2.662  -8.149  23.034  0.00  0.00    +0.222 HD
ENDBRANCH  19  23
ENDBRANCH  18  19
ENDBRANCH  17  18
ENDBRANCH  16  17
ENDBRANCH  15  16
ENDBRANCH  12  15
BRANCH   1  25
ATOM     25  C   UNL     1       6.554  -1.980  23.291  0.00  0.00    +0.162 C 
BRANCH  25  26
ATOM     26  C   UNL     1       6.893  -0.566  23.780  0.00  0.00    +0.165 C 
BRANCH  26  27
ATOM     27  O   UNL     1       6.300   0.414  22.894  0.00  0.00    -0.387 OA
ATOM     28  H   UNL     1       6.957   1.129  22.806  0.00  0.00    +0.210 HD
ENDBRANCH  26  27
BRANCH  26  29
ATOM     29  C   UNL     1       8.407  -0.266  23.795  0.00  0.00    +0.175 C 
BRANCH  29  30
ATOM     30  O   UNL     1       8.949  -0.831  25.002  0.00  0.00    -0.387 OA
ATOM     31  H   UNL     1       9.295  -1.712  24.768  0.00  0.00    +0.210 HD
ENDBRANCH  29  30
BRANCH  29  32
ATOM     32  C   UNL     1       9.225  -0.757  22.593  0.00  0.00    +0.171 C 
BRANCH  32  33
ATOM     33  O   UNL     1      10.215  -1.708  23.007  0.00  0.00    -0.387 OA
ATOM     34  H   UNL     1      11.048  -1.396  22.594  0.00  0.00    +0.210 HD
ENDBRANCH  32  33
BRANCH  32  35
ATOM     35  C   UNL     1       9.898   0.364  21.796  0.00  0.00    +0.189 C 
BRANCH  35  36
ATOM     36  O   UNL     1       8.875   1.047  21.062  0.00  0.00    -0.392 OA
ATOM     37  H   UNL     1       9.294   1.389  20.251  0.00  0.00    +0.210 HD
ENDBRANCH  35  36
ENDBRANCH  32  35
ENDBRANCH  29  32
ENDBRANCH  26  29
ENDBRANCH  25  26
ENDBRANCH   1  25
TORSDOF 16
ENDMDL
MODEL 3
REMARK VINA RESULT:      -5.9      2.821      7.243
REMARK  Name = 
REMARK  16 active torsions:
REMARK  status: ('A' for Active; 'I' for Inactive)
REMARK    1  A    between atoms: O_1  and  C_2
REMARK    2  A    between atoms: C_2  and  C_3
REMARK    3  A    between atoms: C_3  and  O_5
REMARK    4  A    between atoms: C_3  and  C_6
REMARK    5  A    between atoms: C_6  and  O_8
REMARK    6  A    between atoms: C_6  and  C_9
REMARK    7  A    between atoms: C_9  and  O_11
REMARK    8  A    between atoms: C_9  and  C_12
REMARK    9  A    between atoms: C_12  and  N_13
REMARK   10  A    between atoms: N_16  and  C_17
REMARK   11  A    between atoms: C_17  and  C_18
REMARK   12  A    between atoms: C_18  and  C_19
REMARK   13  A    between atoms: C_19  and  O_20
REMARK   14  A    between atoms: O_20  and  P_21
REMARK   15  A    between atoms: P_21  and  O_22
REMARK   16  A    between atoms: P_21  and  O_23
REMARK                            x       y       z     vdW  Elec       q    Type
REMARK                         _______ _______ _______ _____ _____    ______ ____
ROOT
ATOM      1  N   UNL     1       5.313  -4.284  24.231  0.00  0.00    -0.275 N 
ATOM      2  C   UNL     1       6.329  -4.658  25.064  0.00  0.00    +0.149 A 
ATOM      3  N   UNL     1       6.224  -5.270  26.262  0.00  0.00    -0.292 N 
ATOM      4  H   UNL     1       5.306  -5.386  26.679  0.00  0.00    +0.172 HD
ATOM      5  C   UNL     1       7.321  -5.609  27.002  0.00  0.00    +0.328 A 
ATOM      6  N   UNL     1       8.538  -5.322  26.426  0.00  0.00    -0.273 N 
ATOM      7  H   UNL     1       9.356  -5.550  26.968  0.00  0.00    +0.173 HD
ATOM      8  C   UNL     1       8.736  -4.634  25.248  0.00  0.00    +0.280 A 
ATOM      9  O   UNL     1       9.855  -4.315  24.867  0.00  0.00    -0.265 OA
ATOM     10  O   UNL     1       7.238  -6.124  28.109  0.00  0.00    -0.247 OA
ATOM     11  C   UNL     1       7.497  -4.319  24.518  0.00  0.00    +0.152 A 
ATOM     12  N   UNL     1       7.271  -3.718  23.304  0.00  0.00    -0.286 N 
ATOM     13  C   UNL     1       5.874  -3.677  23.080  0.00  0.00    +0.331 A 
ATOM     14  O   UNL     1       5.284  -3.238  22.109  0.00  0.00    -0.246 OA
ENDROOT
BRANCH  12  15
ATOM     15  C   UNL     1       8.246  -3.245  22.362  0.00  0.00    +0.129 C 
BRANCH  15  16
ATOM     16  C   UNL     1       8.838  -1.902  22.775  0.00  0.00    +0.050 C 
BRANCH  16  17
ATOM     17  C   UNL     1       9.110  -1.045  21.564  0.00  0.00    +0.174 C 
BRANCH  17  18
ATOM     18  O   UNL     1       9.887   0.089  21.940  0.00  0.00    -0.287 OA
BRANCH  18  19
ATOM     19  P   UNL     1       8.900   1.509  21.927  0.00  0.00    +0.472 P 
ATOM     20  O   UNL     1       8.016   2.780  21.915  0.00  0.00    -0.228 OA
BRANCH  19  21
ATOM     21  O   UNL     1       9.114   1.506  23.553  0.00  0.00    -0.303 OA
ATOM     22  H   UNL     1       9.435   2.355  23.893  0.00  0.00    +0.222 HD
ENDBRANCH  19  21
BRANCH  19  23
ATOM     23  O   UNL     1      10.285   2.303  21.569  0.00  0.00    -0.303 OA
ATOM     24  H   UNL     1      11.060   1.720  21.583  0.00  0.00    +0.222 HD
ENDBRANCH  19  23
ENDBRANCH  18  19
ENDBRANCH  17  18
ENDBRANCH  16  17
ENDBRANCH  15  16
ENDBRANCH  12  15
BRANCH   1  25
ATOM     25  C   UNL     1       3.909  -4.591  24.376  0.00  0.00    +0.162 C 
BRANCH  25  26
ATOM     26  C   UNL     1       3.525  -5.988  23.868  0.00  0.00    +0.165 C 
BRANCH  26  27
ATOM     27  O   UNL     1       3.918  -6.129  22.481  0.00  0.00    -0.387 OA
ATOM     28  H   UNL     1       4.308  -5.272  22.224  0.00  0.00    +0.210 HD
ENDBRANCH  26  27
BRANCH  26  29
ATOM     29  C   UNL     1       2.007  -6.264  23.911  0.00  0.00    +0.175 C 
BRANCH  29  30
ATOM     30  O   UNL     1       1.412  -5.588  22.789  0.00  0.00    -0.387 OA
ATOM     31  H   UNL     1       0.448  -5.597  22.935  0.00  0.00    +0.210 HD
ENDBRANCH  29  30
BRANCH  29  32
ATOM     32  C   UNL     1       1.567  -7.734  23.909  0.00  0.00    +0.171 C 
BRANCH  32  33
ATOM     33  O   UNL     1       2.691  -8.601  24.108  0.00  0.00    -0.387 OA
ATOM     34  H   UNL     1       3.307  -8.382  23.378  0.00  0.00    +0.210 HD
ENDBRANCH  32  33
BRANCH  32  35
ATOM     35  C   UNL     1       0.814  -8.158  22.646  0.00  0.00    +0.189 C 
BRANCH  35  36
ATOM     36  O   UNL     1       1.759  -8.201  21.571  0.00  0.00    -0.392 OA
ATOM     37  H   UNL     1       2.046  -7.283  21.414  0.00  0.00    +0.210 HD
ENDBRANCH  35  36
ENDBRANCH  32  35
ENDBRANCH  29  32
ENDBRANCH  26  29
ENDBRANCH  25  26
ENDBRANCH   1  25
TORSDOF 16
ENDMDL
MODEL 4
REMARK VINA RESULT:      -5.9      2.298      3.864
REMARK  Name = 
REMARK  16 active torsions:
REMARK  status: ('A' for Active; 'I' for Inactive)
REMARK    1  A    between atoms: O_1  and  C_2
REMARK    2  A    between atoms: C_2  and  C_3
REMARK    3  A    between atoms: C_3  and  O_5
REMARK    4  A    between atoms: C_3  and  C_6
REMARK    5  A    between atoms: C_6  and  O_8
REMARK    6  A    between atoms: C_6  and  C_9
REMARK    7  A    between atoms: C_9  and  O_11
REMARK    8  A    between atoms: C_9  and  C_12
REMARK    9  A    between atoms: C_12  and  N_13
REMARK   10  A    between atoms: N_16  and  C_17
REMARK   11  A    between atoms: C_17  and  C_18
REMARK   12  A    between atoms: C_18  and  C_19
REMARK   13  A    between atoms: C_19  and  O_20
REMARK   14  A    between atoms: O_20  and  P_21
REMARK   15  A    between atoms: P_21  and  O_22
REMARK   16  A    between atoms: P_21  and  O_23
REMARK                            x       y       z     vdW  Elec       q    Type
REMARK                         _______ _______ _______ _____ _____    ______ ____
ROOT
ATOM      1  N   UNL     1       6.294  -2.112  25.803  0.00  0.00    -0.275 N 
ATOM      2  C   UNL     1       6.957  -3.282  26.042  0.00  0.00    +0.149 A 
ATOM      3  N   UNL     1       8.292  -3.473  26.089  0.00  0.00    -0.292 N 
ATOM      4  H   UNL     1       8.910  -2.716  25.817  0.00  0.00    +0.172 HD
ATOM      5  C   UNL     1       8.841  -4.697  26.352  0.00  0.00    +0.328 A 
ATOM      6  N   UNL     1       7.943  -5.708  26.604  0.00  0.00    -0.273 N 
ATOM      7  H   UNL     1       8.333  -6.621  26.781  0.00  0.00    +0.173 HD
ATOM      8  C   UNL     1       6.572  -5.621  26.502  0.00  0.00    +0.280 A 
ATOM      9  O   UNL     1       5.850  -6.603  26.626  0.00  0.00    -0.265 OA
ATOM     10  O   UNL     1      10.049  -4.892  26.354  0.00  0.00    -0.247 OA
ATOM     11  C   UNL     1       6.073  -4.264  26.225  0.00  0.00    +0.152 A 
ATOM     12  N   UNL     1       4.803  -3.753  26.116  0.00  0.00    -0.286 N 
ATOM     13  C   UNL     1       4.901  -2.367  25.847  0.00  0.00    +0.331 A 
ATOM     14  O   UNL     1       3.994  -1.567  25.703  0.00  0.00    -0.246 OA
ENDROOT
BRANCH  12  15
ATOM     15  C   UNL     1       3.559  -4.447  26.292  0.00  0.00    +0.129 C 
BRANCH  15  16
ATOM     16  C   UNL     1       2.834  -4.669  24.968  0.00  0.00    +0.050 C 
BRANCH  16  17
ATOM     17  C   UNL     1       3.523  -5.740  24.158  0.00  0.00    +0.174 C 
BRANCH  17  18
ATOM     18  O   UNL     1       3.856  -5.232  22.870  0.00  0.00    -0.287 OA
BRANCH  18  19
ATOM     19  P   UNL     1       5.574  -5.173  22.687  0.00  0.00    +0.472 P 
ATOM     20  O   UNL     1       7.113  -5.121  22.523  0.00  0.00    -0.228 OA
BRANCH  19  21
ATOM     21  O   UNL     1       5.318  -6.017  21.303  0.00  0.00    -0.303 OA
ATOM     22  H   UNL     1       5.971  -5.820  20.615  0.00  0.00    +0.222 HD
ENDBRANCH  19  21
BRANCH  19  23
ATOM     23  O   UNL     1       5.318  -3.693  22.039  0.00  0.00    -0.303 OA
ATOM     24  H   UNL     1       4.646  -3.189  22.523  0.00  0.00    +0.222 HD
ENDBRANCH  19  23
ENDBRANCH  18  19
ENDBRANCH  17  18
ENDBRANCH  16  17
ENDBRANCH  15  16
ENDBRANCH  12  15
BRANCH   1  25
ATOM     25  C   UNL     1       6.868  -0.791  25.696  0.00  0.00    +0.162 C 
BRANCH  25  26
ATOM     26  C   UNL     1       6.977  -0.277  24.254  0.00  0.00    +0.165 C 
BRANCH  26  27
ATOM     27  O   UNL     1       6.068  -1.016  23.402  0.00  0.00    -0.387 OA
ATOM     28  H   UNL     1       5.892  -0.441  22.634  0.00  0.00    +0.210 HD
ENDBRANCH  26  27
BRANCH  26  29
ATOM     29  C   UNL     1       8.381  -0.459  23.639  0.00  0.00    +0.175 C 
BRANCH  29  30
ATOM     30  O   UNL     1       9.266  -0.874  24.695  0.00  0.00    -0.387 OA
ATOM     31  H   UNL     1       8.726  -1.377  25.332  0.00  0.00    +0.210 HD
ENDBRANCH  29  30
BRANCH  29  32
ATOM     32  C   UNL     1       8.504  -1.436  22.462  0.00  0.00    +0.171 C 
BRANCH  32  33
ATOM     33  O   UNL     1       8.590  -2.788  22.931  0.00  0.00    -0.387 OA
ATOM     34  H   UNL     1       9.482  -2.857  23.332  0.00  0.00    +0.210 HD
ENDBRANCH  32  33
BRANCH  32  35
ATOM     35  C   UNL     1       9.682  -1.145  21.529  0.00  0.00    +0.189 C 
BRANCH  35  36
ATOM     36  O   UNL     1      10.853  -1.726  22.115  0.00  0.00    -0.392 OA
ATOM     37  H   UNL     1      10.556  -2.502  22.623  0.00  0.00    +0.210 HD
ENDBRANCH  35  36
ENDBRANCH  32  35
ENDBRANCH  29  32
ENDBRANCH  26  29
ENDBRANCH  25  26
ENDBRANCH   1  25
TORSDOF 16
ENDMDL
MODEL 5
REMARK VINA RESULT:      -5.9      2.989      5.598
REMARK  Name = 
REMARK  16 active torsions:
REMARK  status: ('A' for Active; 'I' for Inactive)
REMARK    1  A    between atoms: O_1  and  C_2
REMARK    2  A    between atoms: C_2  and  C_3
REMARK    3  A    between atoms: C_3  and  O_5
REMARK    4  A    between atoms: C_3  and  C_6
REMARK    5  A    between atoms: C_6  and  O_8
REMARK    6  A    between atoms: C_6  and  C_9
REMARK    7  A    between atoms: C_9  and  O_11
REMARK    8  A    between atoms: C_9  and  C_12
REMARK    9  A    between atoms: C_12  and  N_13
REMARK   10  A    between atoms: N_16  and  C_17
REMARK   11  A    between atoms: C_17  and  C_18
REMARK   12  A    between atoms: C_18  and  C_19
REMARK   13  A    between atoms: C_19  and  O_20
REMARK   14  A    between atoms: O_20  and  P_21
REMARK   15  A    between atoms: P_21  and  O_22
REMARK   16  A    between atoms: P_21  and  O_23
REMARK                            x       y       z     vdW  Elec       q    Type
REMARK                         _______ _______ _______ _____ _____    ______ ____
ROOT
ATOM      1  N   UNL     1       9.664  -0.552  23.931  0.00  0.00    -0.275 N 
ATOM      2  C   UNL     1       8.849  -0.733  25.012  0.00  0.00    +0.149 A 
ATOM      3  N   UNL     1       8.755   0.048  26.108  0.00  0.00    -0.292 N 
ATOM      4  H   UNL     1       9.420   0.804  26.235  0.00  0.00    +0.172 HD
ATOM      5  C   UNL     1       7.886  -0.230  27.125  0.00  0.00    +0.328 A 
ATOM      6  N   UNL     1       7.088  -1.335  26.938  0.00  0.00    -0.273 N 
ATOM      7  H   UNL     1       6.455  -1.563  27.688  0.00  0.00    +0.173 HD
ATOM      8  C   UNL     1       7.169  -2.228  25.892  0.00  0.00    +0.280 A 
ATOM      9  O   UNL     1       6.501  -3.253  25.864  0.00  0.00    -0.265 OA
ATOM     10  O   UNL     1       7.823   0.446  28.143  0.00  0.00    -0.247 OA
ATOM     11  C   UNL     1       8.125  -1.840  24.841  0.00  0.00    +0.152 A 
ATOM     12  N   UNL     1       8.448  -2.409  23.633  0.00  0.00    -0.286 N 
ATOM     13  C   UNL     1       9.436  -1.607  23.013  0.00  0.00    +0.331 A 
ATOM     14  O   UNL     1       9.960  -1.774  21.926  0.00  0.00    -0.246 OA
ENDROOT
BRANCH  12  15
ATOM     15  C   UNL     1       7.874  -3.579  23.032  0.00  0.00    +0.129 C 
BRANCH  15  16
ATOM     16  C   UNL     1       6.731  -3.233  22.083  0.00  0.00    +0.050 C 
BRANCH  16  17
ATOM     17  C   UNL     1       5.398  -3.543  22.720  0.00  0.00    +0.174 C 
BRANCH  17  18
ATOM     18  O   UNL     1       4.835  -4.705  22.118  0.00  0.00    -0.287 OA
BRANCH  18  19
ATOM     19  P   UNL     1       4.751  -5.986  23.278  0.00  0.00    +0.472 P 
ATOM     20  O   UNL     1       4.676  -7.131  24.316  0.00  0.00    -0.228 OA
BRANCH  19  21
ATOM     21  O   UNL     1       3.371  -6.413  22.501  0.00  0.00    -0.303 OA
ATOM     22  H   UNL     1       3.097  -7.324  22.692  0.00  0.00    +0.222 HD
ENDBRANCH  19  21
BRANCH  19  23
ATOM     23  O   UNL     1       5.771  -6.778  22.274  0.00  0.00    -0.303 OA
ATOM     24  H   UNL     1       6.683  -6.458  22.345  0.00  0.00    +0.222 HD
ENDBRANCH  19  23
ENDBRANCH  18  19
ENDBRANCH  17  18
ENDBRANCH  16  17
ENDBRANCH  15  16
ENDBRANCH  12  15
BRANCH   1  25
ATOM     25  C   UNL     1      10.498   0.593  23.650  0.00  0.00    +0.162 C 
BRANCH  25  26
ATOM     26  C   UNL     1       9.745   1.766  23.007  0.00  0.00    +0.165 C 
BRANCH  26  27
ATOM     27  O   UNL     1      10.170   1.925  21.631  0.00  0.00    -0.387 OA
ATOM     28  H   UNL     1      10.231   1.024  21.263  0.00  0.00    +0.210 HD
ENDBRANCH  26  27
BRANCH  26  29
ATOM     29  C   UNL     1      10.011   3.121  23.696  0.00  0.00    +0.175 C 
BRANCH  29  30
ATOM     30  O   UNL     1      11.155   3.715  23.056  0.00  0.00    -0.387 OA
ATOM     31  H   UNL     1      11.313   4.568  23.500  0.00  0.00    +0.210 HD
ENDBRANCH  29  30
BRANCH  29  32
ATOM     32  C   UNL     1       8.857   4.132  23.711  0.00  0.00    +0.171 C 
BRANCH  32  33
ATOM     33  O   UNL     1       8.225   4.202  22.426  0.00  0.00    -0.387 OA
ATOM     34  H   UNL     1       8.901   3.870  21.798  0.00  0.00    +0.210 HD
ENDBRANCH  32  33
BRANCH  32  35
ATOM     35  C   UNL     1       9.266   5.539  24.154  0.00  0.00    +0.189 C 
BRANCH  35  36
ATOM     36  O   UNL     1       9.710   6.248  22.991  0.00  0.00    -0.392 OA
ATOM     37  H   UNL     1      10.315   6.946  23.302  0.00  0.00    +0.210 HD
ENDBRANCH  35  36
ENDBRANCH  32  35
ENDBRANCH  29  32
ENDBRANCH  26  29
ENDBRANCH  25  26
ENDBRANCH   1  25
TORSDOF 16
ENDMDL
MODEL 6
REMARK VINA RESULT:      -5.8      2.474      6.878
REMARK  Name = 
REMARK  16 active torsions:
REMARK  status: ('A' for Active; 'I' for Inactive)
REMARK    1  A    between atoms: O_1  and  C_2
REMARK    2  A    between atoms: C_2  and  C_3
REMARK    3  A    between atoms: C_3  and  O_5
REMARK    4  A    between atoms: C_3  and  C_6
REMARK    5  A    between atoms: C_6  and  O_8
REMARK    6  A    between atoms: C_6  and  C_9
REMARK    7  A    between atoms: C_9  and  O_11
REMARK    8  A    between atoms: C_9  and  C_12
REMARK    9  A    between atoms: C_12  and  N_13
REMARK   10  A    between atoms: N_16  and  C_17
REMARK   11  A    between atoms: C_17  and  C_18
REMARK   12  A    between atoms: C_18  and  C_19
REMARK   13  A    between atoms: C_19  and  O_20
REMARK   14  A    between atoms: O_20  and  P_21
REMARK   15  A    between atoms: P_21  and  O_22
REMARK   16  A    between atoms: P_21  and  O_23
REMARK                            x       y       z     vdW  Elec       q    Type
REMARK                         _______ _______ _______ _____ _____    ______ ____
ROOT
ATOM      1  N   UNL     1       6.059  -4.819  23.254  0.00  0.00    -0.275 N 
ATOM      2  C   UNL     1       6.725  -4.600  24.427  0.00  0.00    +0.149 A 
ATOM      3  N   UNL     1       6.787  -5.417  25.499  0.00  0.00    -0.292 N 
ATOM      4  H   UNL     1       6.203  -6.247  25.523  0.00  0.00    +0.172 HD
ATOM      5  C   UNL     1       7.501  -5.093  26.618  0.00  0.00    +0.328 A 
ATOM      6  N   UNL     1       8.183  -3.899  26.562  0.00  0.00    -0.273 N 
ATOM      7  H   UNL     1       8.699  -3.638  27.387  0.00  0.00    +0.173 HD
ATOM      8  C   UNL     1       8.114  -2.972  25.544  0.00  0.00    +0.280 A 
ATOM      9  O   UNL     1       8.659  -1.879  25.628  0.00  0.00    -0.265 OA
ATOM     10  O   UNL     1       7.529  -5.806  27.612  0.00  0.00    -0.247 OA
ATOM     11  C   UNL     1       7.330  -3.413  24.379  0.00  0.00    +0.152 A 
ATOM     12  N   UNL     1       7.079  -2.827  23.162  0.00  0.00    -0.286 N 
ATOM     13  C   UNL     1       6.264  -3.703  22.406  0.00  0.00    +0.331 A 
ATOM     14  O   UNL     1       5.847  -3.544  21.272  0.00  0.00    -0.246 OA
ENDROOT
BRANCH  12  15
ATOM     15  C   UNL     1       7.577  -1.574  22.671  0.00  0.00    +0.129 C 
BRANCH  15  16
ATOM     16  C   UNL     1       8.963  -1.712  22.048  0.00  0.00    +0.050 C 
BRANCH  16  17
ATOM     17  C   UNL     1       9.485  -0.367  21.608  0.00  0.00    +0.174 C 
BRANCH  17  18
ATOM     18  O   UNL     1      10.182   0.255  22.684  0.00  0.00    -0.287 OA
BRANCH  18  19
ATOM     19  P   UNL     1       9.535   1.834  22.969  0.00  0.00    +0.472 P 
ATOM     20  O   UNL     1       8.956   3.247  23.224  0.00  0.00    -0.228 OA
BRANCH  19  21
ATOM     21  O   UNL     1      10.867   2.061  23.900  0.00  0.00    -0.303 OA
ATOM     22  H   UNL     1      11.124   1.265  24.390  0.00  0.00    +0.222 HD
ENDBRANCH  19  21
BRANCH  19  23
ATOM     23  O   UNL     1      10.244   2.231  21.549  0.00  0.00    -0.303 OA
ATOM     24  H   UNL     1      10.957   1.621  21.308  0.00  0.00    +0.222 HD
ENDBRANCH  19  23
ENDBRANCH  18  19
ENDBRANCH  17  18
ENDBRANCH  16  17
ENDBRANCH  15  16
ENDBRANCH  12  15
BRANCH   1  25
ATOM     25  C   UNL     1       5.398  -6.035  22.840  0.00  0.00    +0.162 C 
BRANCH  25  26
ATOM     26  C   UNL     1       3.872  -5.997  23.004  0.00  0.00    +0.165 C 
BRANCH  26  27
ATOM     27  O   UNL     1       3.428  -4.624  23.126  0.00  0.00    -0.387 OA
ATOM     28  H   UNL     1       2.454  -4.660  23.172  0.00  0.00    +0.210 HD
ENDBRANCH  26  27
BRANCH  26  29
ATOM     29  C   UNL     1       3.371  -6.722  24.270  0.00  0.00    +0.175 C 
BRANCH  29  30
ATOM     30  O   UNL     1       4.478  -7.465  24.811  0.00  0.00    -0.387 OA
ATOM     31  H   UNL     1       4.885  -6.903  25.496  0.00  0.00    +0.210 HD
ENDBRANCH  29  30
BRANCH  29  32
ATOM     32  C   UNL     1       2.757  -5.851  25.374  0.00  0.00    +0.171 C 
BRANCH  32  33
ATOM     33  O   UNL     1       3.774  -5.107  26.058  0.00  0.00    -0.387 OA
ATOM     34  H   UNL     1       3.338  -4.780  26.873  0.00  0.00    +0.210 HD
ENDBRANCH  32  33
BRANCH  32  35
ATOM     35  C   UNL     1       1.924  -6.631  26.395  0.00  0.00    +0.189 C 
BRANCH  35  36
ATOM     36  O   UNL     1       2.831  -7.373  27.219  0.00  0.00    -0.392 OA
ATOM     37  H   UNL     1       3.388  -6.720  27.680  0.00  0.00    +0.210 HD
ENDBRANCH  35  36
ENDBRANCH  32  35
ENDBRANCH  29  32
ENDBRANCH  26  29
ENDBRANCH  25  26
ENDBRANCH   1  25
TORSDOF 16
ENDMDL
MODEL 7
REMARK VINA RESULT:      -5.7      2.473      3.340
REMARK  Name = 
REMARK  16 active torsions:
REMARK  status: ('A' for Active; 'I' for Inactive)
REMARK    1  A    between atoms: O_1  and  C_2
REMARK    2  A    between atoms: C_2  and  C_3
REMARK    3  A    between atoms: C_3  and  O_5
REMARK    4  A    between atoms: C_3  and  C_6
REMARK    5  A    between atoms: C_6  and  O_8
REMARK    6  A    between atoms: C_6  and  C_9
REMARK    7  A    between atoms: C_9  and  O_11
REMARK    8  A    between atoms: C_9  and  C_12
REMARK    9  A    between atoms: C_12  and  N_13
REMARK   10  A    between atoms: N_16  and  C_17
REMARK   11  A    between atoms: C_17  and  C_18
REMARK   12  A    between atoms: C_18  and  C_19
REMARK   13  A    between atoms: C_19  and  O_20
REMARK   14  A    between atoms: O_20  and  P_21
REMARK   15  A    between atoms: P_21  and  O_22
REMARK   16  A    between atoms: P_21  and  O_23
REMARK                            x       y       z     vdW  Elec       q    Type
REMARK                         _______ _______ _______ _____ _____    ______ ____
ROOT
ATOM      1  N   UNL     1       8.311  -2.790  23.446  0.00  0.00    -0.275 N 
ATOM      2  C   UNL     1       7.433  -3.759  23.048  0.00  0.00    +0.149 A 
ATOM      3  N   UNL     1       7.170  -4.159  21.787  0.00  0.00    -0.292 N 
ATOM      4  H   UNL     1       7.564  -3.638  21.010  0.00  0.00    +0.172 HD
ATOM      5  C   UNL     1       6.275  -5.154  21.513  0.00  0.00    +0.328 A 
ATOM      6  N   UNL     1       5.692  -5.746  22.609  0.00  0.00    -0.273 N 
ATOM      7  H   UNL     1       5.015  -6.469  22.422  0.00  0.00    +0.173 HD
ATOM      8  C   UNL     1       5.843  -5.352  23.921  0.00  0.00    +0.280 A 
ATOM      9  O   UNL     1       5.192  -5.857  24.827  0.00  0.00    -0.265 OA
ATOM     10  O   UNL     1       5.996  -5.496  20.371  0.00  0.00    -0.247 OA
ATOM     11  C   UNL     1       6.833  -4.280  24.118  0.00  0.00    +0.152 A 
ATOM     12  N   UNL     1       7.313  -3.666  25.249  0.00  0.00    -0.286 N 
ATOM     13  C   UNL     1       8.271  -2.700  24.858  0.00  0.00    +0.331 A 
ATOM     14  O   UNL     1       8.929  -1.966  25.576  0.00  0.00    -0.246 OA
ENDROOT
BRANCH  12  15
ATOM     15  C   UNL     1       6.979  -3.954  26.615  0.00  0.00    +0.129 C 
BRANCH  15  16
ATOM     16  C   UNL     1       7.697  -5.196  27.131  0.00  0.00    +0.050 C 
BRANCH  16  17
ATOM     17  C   UNL     1       6.826  -5.946  28.109  0.00  0.00    +0.174 C 
BRANCH  17  18
ATOM     18  O   UNL     1       5.478  -5.498  27.997  0.00  0.00    -0.287 OA
BRANCH  18  19
ATOM     19  P   UNL     1       4.421  -6.609  28.796  0.00  0.00    +0.472 P 
ATOM     20  O   UNL     1       3.474  -7.603  29.511  0.00  0.00    -0.228 OA
BRANCH  19  21
ATOM     21  O   UNL     1       4.039  -7.120  27.285  0.00  0.00    -0.303 OA
ATOM     22  H   UNL     1       4.199  -6.446  26.607  0.00  0.00    +0.222 HD
ENDBRANCH  19  21
BRANCH  19  23
ATOM     23  O   UNL     1       5.753  -7.543  28.967  0.00  0.00    -0.303 OA
ATOM     24  H   UNL     1       5.641  -8.422  28.575  0.00  0.00    +0.222 HD
ENDBRANCH  19  23
ENDBRANCH  18  19
ENDBRANCH  17  18
ENDBRANCH  16  17
ENDBRANCH  15  16
ENDBRANCH  12  15
BRANCH   1  25
ATOM     25  C   UNL     1       9.262  -2.083  22.620  0.00  0.00    +0.162 C 
BRANCH  25  26
ATOM     26  C   UNL     1       8.708  -0.790  22.006  0.00  0.00    +0.165 C 
BRANCH  26  27
ATOM     27  O   UNL     1       9.432  -0.476  20.791  0.00  0.00    -0.387 OA
ATOM     28  H   UNL     1       9.685   0.463  20.865  0.00  0.00    +0.210 HD
ENDBRANCH  26  27
BRANCH  26  29
ATOM     29  C   UNL     1       8.860   0.442  22.923  0.00  0.00    +0.175 C 
BRANCH  29  30
ATOM     30  O   UNL     1      10.061   0.261  23.696  0.00  0.00    -0.387 OA
ATOM     31  H   UNL     1       9.780   0.077  24.611  0.00  0.00    +0.210 HD
ENDBRANCH  29  30
BRANCH  29  32
ATOM     32  C   UNL     1       8.898   1.816  22.242  0.00  0.00    +0.171 C 
BRANCH  32  33
ATOM     33  O   UNL     1      10.189   2.063  21.669  0.00  0.00    -0.387 OA
ATOM     34  H   UNL     1      10.478   2.913  22.062  0.00  0.00    +0.210 HD
ENDBRANCH  32  33
BRANCH  32  35
ATOM     35  C   UNL     1       8.519   2.980  23.162  0.00  0.00    +0.189 C 
BRANCH  35  36
ATOM     36  O   UNL     1       9.500   3.047  24.203  0.00  0.00    -0.392 OA
ATOM     37  H   UNL     1       9.014   3.183  25.037  0.00  0.00    +0.210 HD
ENDBRANCH  35  36
ENDBRANCH  32  35
ENDBRANCH  29  32
ENDBRANCH  26  29
ENDBRANCH  25  26
ENDBRANCH   1  25
TORSDOF 16
ENDMDL
MODEL 8
REMARK VINA RESULT:      -5.7      1.847      3.166
REMARK  Name = 
REMARK  16 active torsions:
REMARK  status: ('A' for Active; 'I' for Inactive)
REMARK    1  A    between atoms: O_1  and  C_2
REMARK    2  A    between atoms: C_2  and  C_3
REMARK    3  A    between atoms: C_3  and  O_5
REMARK    4  A    between atoms: C_3  and  C_6
REMARK    5  A    between atoms: C_6  and  O_8
REMARK    6  A    between atoms: C_6  and  C_9
REMARK    7  A    between atoms: C_9  and  O_11
REMARK    8  A    between atoms: C_9  and  C_12
REMARK    9  A    between atoms: C_12  and  N_13
REMARK   10  A    between atoms: N_16  and  C_17
REMARK   11  A    between atoms: C_17  and  C_18
REMARK   12  A    between atoms: C_18  and  C_19
REMARK   13  A    between atoms: C_19  and  O_20
REMARK   14  A    between atoms: O_20  and  P_21
REMARK   15  A    between atoms: P_21  and  O_22
REMARK   16  A    between atoms: P_21  and  O_23
REMARK                            x       y       z     vdW  Elec       q    Type
REMARK                         _______ _______ _______ _____ _____    ______ ____
ROOT
ATOM      1  N   UNL     1       8.144  -3.801  24.257  0.00  0.00    -0.275 N 
ATOM      2  C   UNL     1       7.234  -4.534  23.549  0.00  0.00    +0.149 A 
ATOM      3  N   UNL     1       7.071  -4.568  22.210  0.00  0.00    -0.292 N 
ATOM      4  H   UNL     1       7.587  -3.913  21.632  0.00  0.00    +0.172 HD
ATOM      5  C   UNL     1       6.128  -5.357  21.614  0.00  0.00    +0.328 A 
ATOM      6  N   UNL     1       5.385  -6.141  22.465  0.00  0.00    -0.273 N 
ATOM      7  H   UNL     1       4.673  -6.714  22.041  0.00  0.00    +0.173 HD
ATOM      8  C   UNL     1       5.431  -6.113  23.843  0.00  0.00    +0.280 A 
ATOM      9  O   UNL     1       4.649  -6.759  24.528  0.00  0.00    -0.265 OA
ATOM     10  O   UNL     1       5.942  -5.363  20.404  0.00  0.00    -0.247 OA
ATOM     11  C   UNL     1       6.483  -5.242  24.393  0.00  0.00    +0.152 A 
ATOM     12  N   UNL     1       6.893  -4.993  25.680  0.00  0.00    -0.286 N 
ATOM     13  C   UNL     1       7.964  -4.070  25.635  0.00  0.00    +0.331 A 
ATOM     14  O   UNL     1       8.603  -3.620  26.570  0.00  0.00    -0.246 OA
ENDROOT
BRANCH  12  15
ATOM     15  C   UNL     1       6.393  -5.581  26.891  0.00  0.00    +0.129 C 
BRANCH  15  16
ATOM     16  C   UNL     1       5.627  -4.575  27.743  0.00  0.00    +0.050 C 
BRANCH  16  17
ATOM     17  C   UNL     1       4.285  -4.269  27.128  0.00  0.00    +0.174 C 
BRANCH  17  18
ATOM     18  O   UNL     1       4.017  -2.872  27.224  0.00  0.00    -0.287 OA
BRANCH  18  19
ATOM     19  P   UNL     1       4.830  -2.028  25.952  0.00  0.00    +0.472 P 
ATOM     20  O   UNL     1       5.558  -1.273  24.814  0.00  0.00    -0.228 OA
BRANCH  19  21
ATOM     21  O   UNL     1       3.828  -2.854  24.950  0.00  0.00    -0.303 OA
ATOM     22  H   UNL     1       3.355  -3.573  25.397  0.00  0.00    +0.222 HD
ENDBRANCH  19  21
BRANCH  19  23
ATOM     23  O   UNL     1       3.787  -0.811  26.279  0.00  0.00    -0.303 OA
ATOM     24  H   UNL     1       3.965  -0.019  25.747  0.00  0.00    +0.222 HD
ENDBRANCH  19  23
ENDBRANCH  18  19
ENDBRANCH  17  18
ENDBRANCH  16  17
ENDBRANCH  15  16
ENDBRANCH  12  15
BRANCH   1  25
ATOM     25  C   UNL     1       9.233  -3.015  23.724  0.00  0.00    +0.162 C 
BRANCH  25  26
ATOM     26  C   UNL     1       8.907  -1.522  23.582  0.00  0.00    +0.165 C 
BRANCH  26  27
ATOM     27  O   UNL     1       7.789  -1.349  22.678  0.00  0.00    -0.387 OA
ATOM     28  H   UNL     1       8.089  -1.684  21.813  0.00  0.00    +0.210 HD
ENDBRANCH  26  27
BRANCH  26  29
ATOM     29  C   UNL     1      10.066  -0.692  22.990  0.00  0.00    +0.175 C 
BRANCH  29  30
ATOM     30  O   UNL     1      10.157  -1.012  21.591  0.00  0.00    -0.387 OA
ATOM     31  H   UNL     1       9.563  -1.769  21.437  0.00  0.00    +0.210 HD
ENDBRANCH  29  30
BRANCH  29  32
ATOM     32  C   UNL     1       9.988   0.832  23.158  0.00  0.00    +0.171 C 
BRANCH  32  33
ATOM     33  O   UNL     1       8.845   1.198  23.941  0.00  0.00    -0.387 OA
ATOM     34  H   UNL     1       8.532   0.356  24.335  0.00  0.00    +0.210 HD
ENDBRANCH  32  33
BRANCH  32  35
ATOM     35  C   UNL     1       9.970   1.605  21.837  0.00  0.00    +0.189 C 
BRANCH  35  36
ATOM     36  O   UNL     1       8.755   1.271  21.156  0.00  0.00    -0.392 OA
ATOM     37  H   UNL     1       8.885   0.388  20.767  0.00  0.00    +0.210 HD
ENDBRANCH  35  36
ENDBRANCH  32  35
ENDBRANCH  29  32
ENDBRANCH  26  29
ENDBRANCH  25  26
ENDBRANCH   1  25
TORSDOF 16
ENDMDL
MODEL 9
REMARK VINA RESULT:      -5.7      2.467      6.554
REMARK  Name = 
REMARK  16 active torsions:
REMARK  status: ('A' for Active; 'I' for Inactive)
REMARK    1  A    between atoms: O_1  and  C_2
REMARK    2  A    between atoms: C_2  and  C_3
REMARK    3  A    between atoms: C_3  and  O_5
REMARK    4  A    between atoms: C_3  and  C_6
REMARK    5  A    between atoms: C_6  and  O_8
REMARK    6  A    between atoms: C_6  and  C_9
REMARK    7  A    between atoms: C_9  and  O_11
REMARK    8  A    between atoms: C_9  and  C_12
REMARK    9  A    between atoms: C_12  and  N_13
REMARK   10  A    between atoms: N_16  and  C_17
REMARK   11  A    between atoms: C_17  and  C_18
REMARK   12  A    between atoms: C_18  and  C_19
REMARK   13  A    between atoms: C_19  and  O_20
REMARK   14  A    between atoms: O_20  and  P_21
REMARK   15  A    between atoms: P_21  and  O_22
REMARK   16  A    between atoms: P_21  and  O_23
REMARK                            x       y       z     vdW  Elec       q    Type
REMARK                         _______ _______ _______ _____ _____    ______ ____
ROOT
ATOM      1  N   UNL     1       6.319  -5.409  25.542  0.00  0.00    -0.275 N 
ATOM      2  C   UNL     1       6.547  -4.906  24.292  0.00  0.00    +0.149 A 
ATOM      3  N   UNL     1       6.062  -5.367  23.121  0.00  0.00    -0.292 N 
ATOM      4  H   UNL     1       5.556  -6.247  23.108  0.00  0.00    +0.172 HD
ATOM      5  C   UNL     1       6.353  -4.768  21.928  0.00  0.00    +0.328 A 
ATOM      6  N   UNL     1       7.138  -3.641  22.006  0.00  0.00    -0.273 N 
ATOM      7  H   UNL     1       7.376  -3.198  21.133  0.00  0.00    +0.173 HD
ATOM      8  C   UNL     1       7.737  -3.146  23.145  0.00  0.00    +0.280 A 
ATOM      9  O   UNL     1       8.520  -2.205  23.106  0.00  0.00    -0.265 OA
ATOM     10  O   UNL     1       5.955  -5.203  20.856  0.00  0.00    -0.247 OA
ATOM     11  C   UNL     1       7.358  -3.850  24.380  0.00  0.00    +0.152 A 
ATOM     12  N   UNL     1       7.674  -3.633  25.699  0.00  0.00    -0.286 N 
ATOM     13  C   UNL     1       7.021  -4.615  26.481  0.00  0.00    +0.331 A 
ATOM     14  O   UNL     1       7.042  -4.742  27.693  0.00  0.00    -0.246 OA
ENDROOT
BRANCH  12  15
ATOM     15  C   UNL     1       8.475  -2.576  26.248  0.00  0.00    +0.129 C 
BRANCH  15  16
ATOM     16  C   UNL     1       7.639  -1.354  26.613  0.00  0.00    +0.050 C 
BRANCH  16  17
ATOM     17  C   UNL     1       8.143  -0.129  25.891  0.00  0.00    +0.174 C 
BRANCH  17  18
ATOM     18  O   UNL     1       9.544  -0.247  25.661  0.00  0.00    -0.287 OA
BRANCH  18  19
ATOM     19  P   UNL     1      10.043   0.897  24.464  0.00  0.00    +0.472 P 
ATOM     20  O   UNL     1      10.489   1.921  23.392  0.00  0.00    -0.228 OA
BRANCH  19  21
ATOM     21  O   UNL     1      10.638  -0.406  23.664  0.00  0.00    -0.303 OA
ATOM     22  H   UNL     1       9.954  -0.902  23.189  0.00  0.00    +0.222 HD
ENDBRANCH  19  21
BRANCH  19  23
ATOM     23  O   UNL     1       8.513   0.766  23.899  0.00  0.00    -0.303 OA
ATOM     24  H   UNL     1       7.994   0.108  24.385  0.00  0.00    +0.222 HD
ENDBRANCH  19  23
ENDBRANCH  18  19
ENDBRANCH  17  18
ENDBRANCH  16  17
ENDBRANCH  15  16
ENDBRANCH  12  15
BRANCH   1  25
ATOM     25  C   UNL     1       5.389  -6.453  25.904  0.00  0.00    +0.162 C 
BRANCH  25  26
ATOM     26  C   UNL     1       3.918  -6.081  25.675  0.00  0.00    +0.165 C 
BRANCH  26  27
ATOM     27  O   UNL     1       3.146  -6.384  26.862  0.00  0.00    -0.387 OA
ATOM     28  H   UNL     1       3.783  -6.728  27.516  0.00  0.00    +0.210 HD
ENDBRANCH  26  27
BRANCH  26  29
ATOM     29  C   UNL     1       3.256  -6.867  24.523  0.00  0.00    +0.175 C 
BRANCH  29  30
ATOM     30  O   UNL     1       4.295  -7.589  23.838  0.00  0.00    -0.387 OA
ATOM     31  H   UNL     1       4.533  -7.061  23.054  0.00  0.00    +0.210 HD
ENDBRANCH  29  30
BRANCH  29  32
ATOM     32  C   UNL     1       2.129  -7.837  24.901  0.00  0.00    +0.171 C 
BRANCH  32  33
ATOM     33  O   UNL     1       2.664  -9.101  25.314  0.00  0.00    -0.387 OA
ATOM     34  H   UNL     1       2.909  -9.553  24.478  0.00  0.00    +0.210 HD
ENDBRANCH  32  33
BRANCH  32  35
ATOM     35  C   UNL     1       1.097  -8.058  23.792  0.00  0.00    +0.189 C 
BRANCH  35  36
ATOM     36  O   UNL     1       1.814  -8.304  22.576  0.00  0.00    -0.392 OA
ATOM     37  H   UNL     1       2.603  -8.822  22.817  0.00  0.00    +0.210 HD
ENDBRANCH  35  36
ENDBRANCH  32  35
ENDBRANCH  29  32
ENDBRANCH  26  29
ENDBRANCH  25  26
ENDBRANCH   1  25
TORSDOF 16
ENDMDL
