MODEL 1
REMARK VINA RESULT:      -6.7      0.000      0.000
REMARK  Name = 
REMARK  17 active torsions:
REMARK  status: ('A' for Active; 'I' for Inactive)
REMARK    1  A    between atoms: C_1  and  C_2
REMARK    2  A    between atoms: C_2  and  C_3
REMARK    3  A    between atoms: C_2  and  O_4
REMARK    4  A    between atoms: O_4  and  C_5
REMARK    5  A    between atoms: C_5  and  C_7
REMARK    6  A    between atoms: C_7  and  C_9
REMARK    7  A    between atoms: C_7  and  N_10
REMARK    8  A    between atoms: N_10  and  P_11
REMARK    9  A    between atoms: P_11  and  C_13
REMARK   10  A    between atoms: P_11  and  O_29
REMARK   11  A    between atoms: C_13  and  O_14
REMARK   12  A    between atoms: O_14  and  C_15
REMARK   13  A    between atoms: C_15  and  C_17
REMARK   14  A    between atoms: C_15  and  C_18
REMARK   15  A    between atoms: C_18  and  N_19
REMARK   16  A    between atoms: C_23  and  N_24
REMARK   17  A    between atoms: O_29  and  C_30
REMARK                            x       y       z     vdW  Elec       q    Type
REMARK                         _______ _______ _______ _____ _____    ______ ____
ROOT
ATOM      1  P   UNL     1       9.193   1.353  22.243  0.00  0.00    +0.345 P 
ATOM      2  O   UNL     1       9.101   0.438  20.998  0.00  0.00    -0.257 OA
ENDROOT
BRANCH   1   3
ATOM      3  N   UNL     1       7.567   1.062  22.666  0.00  0.00    -0.221 NA
ATOM      4  H   UNL     1       7.054   0.787  21.828  0.00  0.00    +0.133 HD
BRANCH   3   5
ATOM      5  C   UNL     1       6.777   2.114  23.345  0.00  0.00    +0.169 C 
ATOM      6  C   UNL     1       6.037   3.024  22.368  0.00  0.00    +0.036 C 
BRANCH   5   7
ATOM      7  C   UNL     1       5.733   1.435  24.247  0.00  0.00    +0.325 C 
ATOM      8  O   UNL     1       4.632   1.909  24.505  0.00  0.00    -0.249 OA
BRANCH   7   9
ATOM      9  O   UNL     1       6.202   0.251  24.746  0.00  0.00    -0.461 OA
BRANCH   9  11
ATOM     10  C   UNL     1       5.234  -1.919  25.207  0.00  0.00    +0.052 C 
ATOM     11  C   UNL     1       5.304  -0.454  25.628  0.00  0.00    +0.170 C 
ATOM     12  C   UNL     1       5.831  -0.349  27.056  0.00  0.00    +0.052 C 
ENDBRANCH   9  11
ENDBRANCH   7   9
ENDBRANCH   5   7
ENDBRANCH   3   5
ENDBRANCH   1   3
BRANCH   1  13
ATOM     13  O   UNL     1       9.294   2.376  23.635  0.00  0.00    -0.431 OA
BRANCH  13  14
ATOM     14  C   UNL     1       9.973   3.540  23.771  0.00  0.00    +0.129 A 
ATOM     15  C   UNL     1       9.399   4.752  24.112  0.00  0.00    +0.046 A 
ATOM     16  C   UNL     1      10.174   5.913  24.012  0.00  0.00    +0.004 A 
ATOM     17  C   UNL     1      11.508   5.851  23.592  0.00  0.00    +0.000 A 
ATOM     18  C   UNL     1      12.087   4.623  23.290  0.00  0.00    +0.004 A 
ATOM     19  C   UNL     1      11.315   3.470  23.379  0.00  0.00    +0.046 A 
ENDBRANCH  13  14
ENDBRANCH   1  13
BRANCH   1  20
ATOM     20  C   UNL     1      10.151   0.040  23.292  0.00  0.00    +0.286 C 
BRANCH  20  21
ATOM     21  O   UNL     1       9.545  -1.248  23.109  0.00  0.00    -0.363 OA
BRANCH  21  22
ATOM     22  C   UNL     1       8.878  -1.796  24.252  0.00  0.00    +0.136 C 
ATOM     23  C   UNL     1       9.197  -1.051  25.545  0.00  0.00    +0.040 C 
BRANCH  22  24
ATOM     24  C   UNL     1       9.225  -3.292  24.318  0.00  0.00    +0.156 C 
BRANCH  24  25
ATOM     25  N   UNL     1       8.083  -4.168  24.452  0.00  0.00    -0.312 N 
ATOM     26  C   UNL     1       7.255  -4.579  23.446  0.00  0.00    +0.165 A 
ATOM     27  C   UNL     1       6.330  -5.404  24.066  0.00  0.00    +0.147 A 
ATOM     28  C   UNL     1       5.322  -5.942  23.250  0.00  0.00    +0.147 A 
ATOM     29  N   UNL     1       5.332  -5.646  21.931  0.00  0.00    -0.219 NA
ATOM     30  C   UNL     1       6.299  -4.826  21.463  0.00  0.00    +0.225 A 
ATOM     31  N   UNL     1       6.613  -5.536  25.412  0.00  0.00    -0.231 NA
ATOM     32  N   UNL     1       7.309  -4.249  22.143  0.00  0.00    -0.216 NA
ATOM     33  C   UNL     1       7.668  -4.774  25.609  0.00  0.00    +0.201 A 
BRANCH  28  34
ATOM     34  N   UNL     1       4.323  -6.779  23.730  0.00  0.00    -0.341 N 
ATOM     35  H   UNL     1       4.644  -7.730  23.844  0.00  0.00    +0.144 HD
ATOM     36  H   UNL     1       3.786  -6.365  24.485  0.00  0.00    +0.144 HD
ENDBRANCH  28  34
ENDBRANCH  24  25
ENDBRANCH  22  24
ENDBRANCH  21  22
ENDBRANCH  20  21
ENDBRANCH   1  20
TORSDOF 13
ENDMDL
MODEL 2
REMARK VINA RESULT:      -6.6      2.710      6.576
REMARK  Name = 
REMARK  17 active torsions:
REMARK  status: ('A' for Active; 'I' for Inactive)
REMARK    1  A    between atoms: C_1  and  C_2
REMARK    2  A    between atoms: C_2  and  C_3
REMARK    3  A    between atoms: C_2  and  O_4
REMARK    4  A    between atoms: O_4  and  C_5
REMARK    5  A    between atoms: C_5  and  C_7
REMARK    6  A    between atoms: C_7  and  C_9
REMARK    7  A    between atoms: C_7  and  N_10
REMARK    8  A    between atoms: N_10  and  P_11
REMARK    9  A    between atoms: P_11  and  C_13
REMARK   10  A    between atoms: P_11  and  O_29
REMARK   11  A    between atoms: C_13  and  O_14
REMARK   12  A    between atoms: O_14  and  C_15
REMARK   13  A    between atoms: C_15  and  C_17
REMARK   14  A    between atoms: C_15  and  C_18
REMARK   15  A    between atoms: C_18  and  N_19
REMARK   16  A    between atoms: C_23  and  N_24
REMARK   17  A    between atoms: O_29  and  C_30
REMARK                            x       y       z     vdW  Elec       q    Type
REMARK                         _______ _______ _______ _____ _____    ______ ____
ROOT
ATOM      1  P   UNL     1       8.676  -4.158  24.678  0.00  0.00    +0.345 P 
ATOM      2  O   UNL     1       9.066  -5.397  25.520  0.00  0.00    -0.257 OA
ENDROOT
BRANCH   1   3
ATOM      3  N   UNL     1       7.379  -4.980  23.936  0.00  0.00    -0.221 NA
ATOM      4  H   UNL     1       7.545  -5.984  24.007  0.00  0.00    +0.133 HD
BRANCH   3   5
ATOM      5  C   UNL     1       7.022  -4.687  22.530  0.00  0.00    +0.169 C 
ATOM      6  C   UNL     1       7.140  -5.907  21.622  0.00  0.00    +0.036 C 
BRANCH   5   7
ATOM      7  C   UNL     1       5.563  -4.201  22.488  0.00  0.00    +0.325 C 
ATOM      8  O   UNL     1       5.227  -3.023  22.520  0.00  0.00    -0.249 OA
BRANCH   7   9
ATOM      9  O   UNL     1       4.691  -5.254  22.440  0.00  0.00    -0.461 OA
BRANCH   9  11
ATOM     10  C   UNL     1       2.428  -5.390  23.291  0.00  0.00    +0.052 C 
ATOM     11  C   UNL     1       3.912  -5.474  23.635  0.00  0.00    +0.170 C 
ATOM     12  C   UNL     1       4.239  -6.858  24.189  0.00  0.00    +0.052 C 
ENDBRANCH   9  11
ENDBRANCH   7   9
ENDBRANCH   5   7
ENDBRANCH   3   5
ENDBRANCH   1   3
BRANCH   1  13
ATOM     13  O   UNL     1       8.239  -2.774  23.737  0.00  0.00    -0.431 OA
BRANCH  13  14
ATOM     14  C   UNL     1       9.030  -1.749  23.337  0.00  0.00    +0.129 A 
ATOM     15  C   UNL     1       9.813  -0.981  24.181  0.00  0.00    +0.046 A 
ATOM     16  C   UNL     1      10.416   0.174  23.670  0.00  0.00    +0.004 A 
ATOM     17  C   UNL     1      10.246   0.539  22.330  0.00  0.00    +0.000 A 
ATOM     18  C   UNL     1       9.490  -0.262  21.480  0.00  0.00    +0.004 A 
ATOM     19  C   UNL     1       8.882  -1.404  21.988  0.00  0.00    +0.046 A 
ENDBRANCH  13  14
ENDBRANCH   1  13
BRANCH   1  20
ATOM     20  C   UNL     1       7.823  -3.262  26.165  0.00  0.00    +0.286 C 
BRANCH  20  21
ATOM     21  O   UNL     1       6.557  -2.737  25.740  0.00  0.00    -0.363 OA
BRANCH  21  22
ATOM     22  C   UNL     1       6.208  -1.446  26.254  0.00  0.00    +0.136 C 
ATOM     23  C   UNL     1       5.050  -1.491  27.247  0.00  0.00    +0.040 C 
BRANCH  22  24
ATOM     24  C   UNL     1       5.936  -0.527  25.052  0.00  0.00    +0.156 C 
BRANCH  24  25
ATOM     25  N   UNL     1       6.721   0.686  25.034  0.00  0.00    -0.312 N 
ATOM     26  C   UNL     1       6.940   1.493  23.952  0.00  0.00    +0.165 A 
ATOM     27  C   UNL     1       7.736   2.519  24.435  0.00  0.00    +0.147 A 
ATOM     28  C   UNL     1       8.145   3.486  23.503  0.00  0.00    +0.147 A 
ATOM     29  N   UNL     1       7.725   3.370  22.223  0.00  0.00    -0.219 NA
ATOM     30  C   UNL     1       6.948   2.314  21.895  0.00  0.00    +0.225 A 
ATOM     31  N   UNL     1       7.960   2.374  25.790  0.00  0.00    -0.231 NA
ATOM     32  N   UNL     1       6.497   1.325  22.694  0.00  0.00    -0.216 NA
ATOM     33  C   UNL     1       7.341   1.258  26.114  0.00  0.00    +0.201 A 
BRANCH  28  34
ATOM     34  N   UNL     1       8.950   4.569  23.836  0.00  0.00    -0.341 N 
ATOM     35  H   UNL     1       9.452   4.418  24.700  0.00  0.00    +0.144 HD
ATOM     36  H   UNL     1       9.464   4.940  23.045  0.00  0.00    +0.144 HD
ENDBRANCH  28  34
ENDBRANCH  24  25
ENDBRANCH  22  24
ENDBRANCH  21  22
ENDBRANCH  20  21
ENDBRANCH   1  20
TORSDOF 13
ENDMDL
MODEL 3
REMARK VINA RESULT:      -6.5      2.400      5.082
REMARK  Name = 
REMARK  17 active torsions:
REMARK  status: ('A' for Active; 'I' for Inactive)
REMARK    1  A    between atoms: C_1  and  C_2
REMARK    2  A    between atoms: C_2  and  C_3
REMARK    3  A    between atoms: C_2  and  O_4
REMARK    4  A    between atoms: O_4  and  C_5
REMARK    5  A    between atoms: C_5  and  C_7
REMARK    6  A    between atoms: C_7  and  C_9
REMARK    7  A    between atoms: C_7  and  N_10
REMARK    8  A    between atoms: N_10  and  P_11
REMARK    9  A    between atoms: P_11  and  C_13
REMARK   10  A    between atoms: P_11  and  O_29
REMARK   11  A    between atoms: C_13  and  O_14
REMARK   12  A    between atoms: O_14  and  C_15
REMARK   13  A    between atoms: C_15  and  C_17
REMARK   14  A    between atoms: C_15  and  C_18
REMARK   15  A    between atoms: C_18  and  N_19
REMARK   16  A    between atoms: C_23  and  N_24
REMARK   17  A    between atoms: O_29  and  C_30
REMARK                            x       y       z     vdW  Elec       q    Type
REMARK                         _______ _______ _______ _____ _____    ______ ____
ROOT
ATOM      1  P   UNL     1       5.732  -0.345  25.170  0.00  0.00    +0.345 P 
ATOM      2  O   UNL     1       4.662   0.731  25.472  0.00  0.00    -0.257 OA
ENDROOT
BRANCH   1   3
ATOM      3  N   UNL     1       6.958   0.553  25.945  0.00  0.00    -0.221 NA
ATOM      4  H   UNL     1       7.146   0.133  26.855  0.00  0.00    +0.133 HD
BRANCH   3   5
ATOM      5  C   UNL     1       6.791   2.009  26.153  0.00  0.00    +0.169 C 
ATOM      6  C   UNL     1       6.950   2.421  27.613  0.00  0.00    +0.036 C 
BRANCH   5   7
ATOM      7  C   UNL     1       7.864   2.745  25.332  0.00  0.00    +0.325 C 
ATOM      8  O   UNL     1       8.237   3.891  25.554  0.00  0.00    -0.249 OA
BRANCH   7   9
ATOM      9  O   UNL     1       8.324   1.966  24.305  0.00  0.00    -0.461 OA
BRANCH   9  11
ATOM     10  C   UNL     1      10.676   1.394  24.353  0.00  0.00    +0.052 C 
ATOM     11  C   UNL     1       9.617   2.330  23.778  0.00  0.00    +0.170 C 
ATOM     12  C   UNL     1       9.583   2.202  22.257  0.00  0.00    +0.052 C 
ENDBRANCH   9  11
ENDBRANCH   7   9
ENDBRANCH   5   7
ENDBRANCH   3   5
ENDBRANCH   1   3
BRANCH   1  13
ATOM     13  O   UNL     1       6.929  -1.548  24.833  0.00  0.00    -0.431 OA
BRANCH  13  14
ATOM     14  C   UNL     1       7.972  -1.473  23.971  0.00  0.00    +0.129 A 
ATOM     15  C   UNL     1       7.867  -1.138  22.633  0.00  0.00    +0.046 A 
ATOM     16  C   UNL     1       8.987  -1.303  21.810  0.00  0.00    +0.004 A 
ATOM     17  C   UNL     1      10.195  -1.782  22.330  0.00  0.00    +0.000 A 
ATOM     18  C   UNL     1      10.301  -2.077  23.685  0.00  0.00    +0.004 A 
ATOM     19  C   UNL     1       9.187  -1.923  24.502  0.00  0.00    +0.046 A 
ENDBRANCH  13  14
ENDBRANCH   1  13
BRANCH   1  20
ATOM     20  C   UNL     1       5.116  -1.529  26.571  0.00  0.00    +0.286 C 
BRANCH  20  21
ATOM     21  O   UNL     1       4.385  -2.616  25.986  0.00  0.00    -0.363 OA
BRANCH  21  22
ATOM     22  C   UNL     1       3.754  -3.516  26.905  0.00  0.00    +0.136 C 
ATOM     23  C   UNL     1       4.009  -3.154  28.365  0.00  0.00    +0.040 C 
BRANCH  22  24
ATOM     24  C   UNL     1       4.211  -4.939  26.547  0.00  0.00    +0.156 C 
BRANCH  24  25
ATOM     25  N   UNL     1       5.641  -5.142  26.604  0.00  0.00    -0.312 N 
ATOM     26  C   UNL     1       6.502  -5.136  25.543  0.00  0.00    +0.165 A 
ATOM     27  C   UNL     1       7.749  -5.365  26.101  0.00  0.00    +0.147 A 
ATOM     28  C   UNL     1       8.831  -5.445  25.210  0.00  0.00    +0.147 A 
ATOM     29  N   UNL     1       8.594  -5.273  23.889  0.00  0.00    -0.219 NA
ATOM     30  C   UNL     1       7.323  -5.056  23.487  0.00  0.00    +0.225 A 
ATOM     31  N   UNL     1       7.664  -5.460  27.477  0.00  0.00    -0.231 NA
ATOM     32  N   UNL     1       6.210  -4.963  24.242  0.00  0.00    -0.216 NA
ATOM     33  C   UNL     1       6.381  -5.328  27.742  0.00  0.00    +0.201 A 
BRANCH  28  34
ATOM     34  N   UNL     1      10.138  -5.676  25.620  0.00  0.00    -0.341 N 
ATOM     35  H   UNL     1      10.306  -5.346  26.560  0.00  0.00    +0.144 HD
ATOM     36  H   UNL     1      10.474  -6.601  25.373  0.00  0.00    +0.144 HD
ENDBRANCH  28  34
ENDBRANCH  24  25
ENDBRANCH  22  24
ENDBRANCH  21  22
ENDBRANCH  20  21
ENDBRANCH   1  20
TORSDOF 13
ENDMDL
MODEL 4
REMARK VINA RESULT:      -6.5      1.253      2.287
REMARK  Name = 
REMARK  17 active torsions:
REMARK  status: ('A' for Active; 'I' for Inactive)
REMARK    1  A    between atoms: C_1  and  C_2
REMARK    2  A    between atoms: C_2  and  C_3
REMARK    3  A    between atoms: C_2  and  O_4
REMARK    4  A    between atoms: O_4  and  C_5
REMARK    5  A    between atoms: C_5  and  C_7
REMARK    6  A    between atoms: C_7  and  C_9
REMARK    7  A    between atoms: C_7  and  N_10
REMARK    8  A    between atoms: N_10  and  P_11
REMARK    9  A    between atoms: P_11  and  C_13
REMARK   10  A    between atoms: P_11  and  O_29
REMARK   11  A    between atoms: C_13  and  O_14
REMARK   12  A    between atoms: O_14  and  C_15
REMARK   13  A    between atoms: C_15  and  C_17
REMARK   14  A    between atoms: C_15  and  C_18
REMARK   15  A    between atoms: C_18  and  N_19
REMARK   16  A    between atoms: C_23  and  N_24
REMARK   17  A    between atoms: O_29  and  C_30
REMARK                            x       y       z     vdW  Elec       q    Type
REMARK                         _______ _______ _______ _____ _____    ______ ____
ROOT
ATOM      1  P   UNL     1       9.544   1.418  22.432  0.00  0.00    +0.345 P 
ATOM      2  O   UNL     1       9.758   0.216  21.481  0.00  0.00    -0.257 OA
ENDROOT
BRANCH   1   3
ATOM      3  N   UNL     1       7.854   1.192  22.454  0.00  0.00    -0.221 NA
ATOM      4  H   UNL     1       7.505   1.237  21.496  0.00  0.00    +0.133 HD
BRANCH   3   5
ATOM      5  C   UNL     1       6.998   2.071  23.282  0.00  0.00    +0.169 C 
ATOM      6  C   UNL     1       5.927   2.792  22.468  0.00  0.00    +0.036 C 
BRANCH   5   7
ATOM      7  C   UNL     1       6.291   1.208  24.340  0.00  0.00    +0.325 C 
ATOM      8  O   UNL     1       5.992   0.029  24.182  0.00  0.00    -0.249 OA
BRANCH   7   9
ATOM      9  O   UNL     1       6.013   1.932  25.467  0.00  0.00    -0.461 OA
BRANCH   9  11
ATOM     10  C   UNL     1       7.301   3.680  26.538  0.00  0.00    +0.052 C 
ATOM     11  C   UNL     1       7.133   2.176  26.343  0.00  0.00    +0.170 C 
ATOM     12  C   UNL     1       6.863   1.506  27.687  0.00  0.00    +0.052 C 
ENDBRANCH   9  11
ENDBRANCH   7   9
ENDBRANCH   5   7
ENDBRANCH   3   5
ENDBRANCH   1   3
BRANCH   1  13
ATOM     13  O   UNL     1       9.303   2.762  23.494  0.00  0.00    -0.431 OA
BRANCH  13  14
ATOM     14  C   UNL     1      10.124   3.818  23.709  0.00  0.00    +0.129 A 
ATOM     15  C   UNL     1       9.710   5.061  24.155  0.00  0.00    +0.046 A 
ATOM     16  C   UNL     1      10.624   6.121  24.132  0.00  0.00    +0.004 A 
ATOM     17  C   UNL     1      11.936   5.926  23.683  0.00  0.00    +0.000 A 
ATOM     18  C   UNL     1      12.352   4.664  23.275  0.00  0.00    +0.004 A 
ATOM     19  C   UNL     1      11.443   3.613  23.288  0.00  0.00    +0.046 A 
ENDBRANCH  13  14
ENDBRANCH   1  13
BRANCH   1  20
ATOM     20  C   UNL     1      10.129   0.444  23.997  0.00  0.00    +0.286 C 
BRANCH  20  21
ATOM     21  O   UNL     1      10.012  -0.965  23.751  0.00  0.00    -0.363 OA
BRANCH  21  22
ATOM     22  C   UNL     1       9.004  -1.653  24.501  0.00  0.00    +0.136 C 
ATOM     23  C   UNL     1       8.861  -1.133  25.928  0.00  0.00    +0.040 C 
BRANCH  22  24
ATOM     24  C   UNL     1       9.322  -3.155  24.435  0.00  0.00    +0.156 C 
BRANCH  24  25
ATOM     25  N   UNL     1       8.161  -4.011  24.345  0.00  0.00    -0.312 N 
ATOM     26  C   UNL     1       7.550  -4.658  25.382  0.00  0.00    +0.165 A 
ATOM     27  C   UNL     1       6.492  -5.337  24.798  0.00  0.00    +0.147 A 
ATOM     28  C   UNL     1       5.706  -6.128  25.652  0.00  0.00    +0.147 A 
ATOM     29  N   UNL     1       6.011  -6.157  26.969  0.00  0.00    -0.219 NA
ATOM     30  C   UNL     1       7.074  -5.442  27.399  0.00  0.00    +0.225 A 
ATOM     31  N   UNL     1       6.425  -5.073  23.444  0.00  0.00    -0.231 NA
ATOM     32  N   UNL     1       7.901  -4.655  26.680  0.00  0.00    -0.216 NA
ATOM     33  C   UNL     1       7.447  -4.279  23.207  0.00  0.00    +0.201 A 
BRANCH  28  34
ATOM     34  N   UNL     1       4.617  -6.870  25.212  0.00  0.00    -0.341 N 
ATOM     35  H   UNL     1       4.650  -7.040  24.216  0.00  0.00    +0.144 HD
ATOM     36  H   UNL     1       4.396  -7.650  25.821  0.00  0.00    +0.144 HD
ENDBRANCH  28  34
ENDBRANCH  24  25
ENDBRANCH  22  24
ENDBRANCH  21  22
ENDBRANCH  20  21
ENDBRANCH   1  20
TORSDOF 13
ENDMDL
MODEL 5
REMARK VINA RESULT:      -6.5      3.035      8.362
REMARK  Name = 
REMARK  17 active torsions:
REMARK  status: ('A' for Active; 'I' for Inactive)
REMARK    1  A    between atoms: C_1  and  C_2
REMARK    2  A    between atoms: C_2  and  C_3
REMARK    3  A    between atoms: C_2  and  O_4
REMARK    4  A    between atoms: O_4  and  C_5
REMARK    5  A    between atoms: C_5  and  C_7
REMARK    6  A    between atoms: C_7  and  C_9
REMARK    7  A    between atoms: C_7  and  N_10
REMARK    8  A    between atoms: N_10  and  P_11
REMARK    9  A    between atoms: P_11  and  C_13
REMARK   10  A    between atoms: P_11  and  O_29
REMARK   11  A    between atoms: C_13  and  O_14
REMARK   12  A    between atoms: O_14  and  C_15
REMARK   13  A    between atoms: C_15  and  C_17
REMARK   14  A    between atoms: C_15  and  C_18
REMARK   15  A    between atoms: C_18  and  N_19
REMARK   16  A    between atoms: C_23  and  N_24
REMARK   17  A    between atoms: O_29  and  C_30
REMARK                            x       y       z     vdW  Elec       q    Type
REMARK                         _______ _______ _______ _____ _____    ______ ____
ROOT
ATOM      1  P   UNL     1       8.187  -3.111  25.512  0.00  0.00    +0.345 P 
ATOM      2  O   UNL     1       8.689  -3.406  26.946  0.00  0.00    -0.257 OA
ENDROOT
BRANCH   1   3
ATOM      3  N   UNL     1       6.557  -3.077  26.011  0.00  0.00    -0.221 NA
ATOM      4  H   UNL     1       6.299  -2.113  26.223  0.00  0.00    +0.133 HD
BRANCH   3   5
ATOM      5  C   UNL     1       6.112  -3.917  27.146  0.00  0.00    +0.169 C 
ATOM      6  C   UNL     1       4.877  -3.358  27.848  0.00  0.00    +0.036 C 
BRANCH   5   7
ATOM      7  C   UNL     1       5.763  -5.315  26.611  0.00  0.00    +0.325 C 
ATOM      8  O   UNL     1       6.518  -6.280  26.658  0.00  0.00    -0.249 OA
BRANCH   7   9
ATOM      9  O   UNL     1       4.514  -5.336  26.052  0.00  0.00    -0.461 OA
BRANCH   9  11
ATOM     10  C   UNL     1       3.933  -7.024  24.417  0.00  0.00    +0.052 C 
ATOM     11  C   UNL     1       4.469  -5.612  24.636  0.00  0.00    +0.170 C 
ATOM     12  C   UNL     1       3.549  -4.597  23.965  0.00  0.00    +0.052 C 
ENDBRANCH   9  11
ENDBRANCH   7   9
ENDBRANCH   5   7
ENDBRANCH   3   5
ENDBRANCH   1   3
BRANCH   1  13
ATOM     13  O   UNL     1       7.626  -2.781  23.909  0.00  0.00    -0.431 OA
BRANCH  13  14
ATOM     14  C   UNL     1       7.274  -3.667  22.946  0.00  0.00    +0.129 A 
ATOM     15  C   UNL     1       6.393  -3.399  21.913  0.00  0.00    +0.046 A 
ATOM     16  C   UNL     1       5.955  -4.461  21.113  0.00  0.00    +0.004 A 
ATOM     17  C   UNL     1       6.411  -5.765  21.340  0.00  0.00    +0.000 A 
ATOM     18  C   UNL     1       7.328  -6.016  22.356  0.00  0.00    +0.004 A 
ATOM     19  C   UNL     1       7.756  -4.964  23.158  0.00  0.00    +0.046 A 
ENDBRANCH  13  14
ENDBRANCH   1  13
BRANCH   1  20
ATOM     20  C   UNL     1       8.698  -1.246  25.584  0.00  0.00    +0.286 C 
BRANCH  20  21
ATOM     21  O   UNL     1       8.710  -0.706  24.255  0.00  0.00    -0.363 OA
BRANCH  21  22
ATOM     22  C   UNL     1       9.328   0.578  24.104  0.00  0.00    +0.136 C 
ATOM     23  C   UNL     1      10.737   0.635  24.687  0.00  0.00    +0.040 C 
BRANCH  22  24
ATOM     24  C   UNL     1       8.380   1.622  24.715  0.00  0.00    +0.156 C 
BRANCH  24  25
ATOM     25  N   UNL     1       7.897   2.614  23.781  0.00  0.00    -0.312 N 
ATOM     26  C   UNL     1       8.318   3.911  23.688  0.00  0.00    +0.165 A 
ATOM     27  C   UNL     1       7.574   4.449  22.651  0.00  0.00    +0.147 A 
ATOM     28  C   UNL     1       7.787   5.807  22.364  0.00  0.00    +0.147 A 
ATOM     29  N   UNL     1       8.704   6.485  23.090  0.00  0.00    -0.219 NA
ATOM     30  C   UNL     1       9.357   5.830  24.075  0.00  0.00    +0.225 A 
ATOM     31  N   UNL     1       6.752   3.493  22.086  0.00  0.00    -0.231 NA
ATOM     32  N   UNL     1       9.237   4.538  24.444  0.00  0.00    -0.216 NA
ATOM     33  C   UNL     1       6.969   2.405  22.795  0.00  0.00    +0.201 A 
BRANCH  28  34
ATOM     34  N   UNL     1       7.110   6.486  21.358  0.00  0.00    -0.341 N 
ATOM     35  H   UNL     1       6.439   7.144  21.727  0.00  0.00    +0.144 HD
ATOM     36  H   UNL     1       7.720   6.797  20.610  0.00  0.00    +0.144 HD
ENDBRANCH  28  34
ENDBRANCH  24  25
ENDBRANCH  22  24
ENDBRANCH  21  22
ENDBRANCH  20  21
ENDBRANCH   1  20
TORSDOF 13
ENDMDL
MODEL 6
REMARK VINA RESULT:      -6.4      1.645      2.028
REMARK  Name = 
REMARK  17 active torsions:
REMARK  status: ('A' for Active; 'I' for Inactive)
REMARK    1  A    between atoms: C_1  and  C_2
REMARK    2  A    between atoms: C_2  and  C_3
REMARK    3  A    between atoms: C_2  and  O_4
REMARK    4  A    between atoms: O_4  and  C_5
REMARK    5  A    between atoms: C_5  and  C_7
REMARK    6  A    between atoms: C_7  and  C_9
REMARK    7  A    between atoms: C_7  and  N_10
REMARK    8  A    between atoms: N_10  and  P_11
REMARK    9  A    between atoms: P_11  and  C_13
REMARK   10  A    between atoms: P_11  and  O_29
REMARK   11  A    between atoms: C_13  and  O_14
REMARK   12  A    between atoms: O_14  and  C_15
REMARK   13  A    between atoms: C_15  and  C_17
REMARK   14  A    between atoms: C_15  and  C_18
REMARK   15  A    between atoms: C_18  and  N_19
REMARK   16  A    between atoms: C_23  and  N_24
REMARK   17  A    between atoms: O_29  and  C_30
REMARK                            x       y       z     vdW  Elec       q    Type
REMARK                         _______ _______ _______ _____ _____    ______ ____
ROOT
ATOM      1  P   UNL     1       8.975   1.947  22.249  0.00  0.00    +0.345 P 
ATOM      2  O   UNL     1       8.859   0.965  21.058  0.00  0.00    -0.257 OA
ENDROOT
BRANCH   1   3
ATOM      3  N   UNL     1       7.503   2.712  21.856  0.00  0.00    -0.221 NA
ATOM      4  H   UNL     1       7.629   3.242  20.993  0.00  0.00    +0.133 HD
BRANCH   3   5
ATOM      5  C   UNL     1       6.846   3.606  22.836  0.00  0.00    +0.169 C 
ATOM      6  C   UNL     1       6.587   5.004  22.282  0.00  0.00    +0.036 C 
BRANCH   5   7
ATOM      7  C   UNL     1       5.491   2.991  23.226  0.00  0.00    +0.325 C 
ATOM      8  O   UNL     1       4.483   3.047  22.532  0.00  0.00    -0.249 OA
BRANCH   7   9
ATOM      9  O   UNL     1       5.551   2.399  24.458  0.00  0.00    -0.461 OA
BRANCH   9  11
ATOM     10  C   UNL     1       4.694   3.558  26.403  0.00  0.00    +0.052 C 
ATOM     11  C   UNL     1       5.925   3.267  25.549  0.00  0.00    +0.170 C 
ATOM     12  C   UNL     1       6.988   2.569  26.392  0.00  0.00    +0.052 C 
ENDBRANCH   9  11
ENDBRANCH   7   9
ENDBRANCH   5   7
ENDBRANCH   3   5
ENDBRANCH   1   3
BRANCH   1  13
ATOM     13  O   UNL     1       9.104   3.046  23.580  0.00  0.00    -0.431 OA
BRANCH  13  14
ATOM     14  C   UNL     1      10.050   3.992  23.796  0.00  0.00    +0.129 A 
ATOM     15  C   UNL     1       9.802   5.249  24.319  0.00  0.00    +0.046 A 
ATOM     16  C   UNL     1      10.830   6.200  24.294  0.00  0.00    +0.004 A 
ATOM     17  C   UNL     1      12.087   5.883  23.767  0.00  0.00    +0.000 A 
ATOM     18  C   UNL     1      12.337   4.604  23.282  0.00  0.00    +0.004 A 
ATOM     19  C   UNL     1      11.315   3.661  23.296  0.00  0.00    +0.046 A 
ENDBRANCH  13  14
ENDBRANCH   1  13
BRANCH   1  20
ATOM     20  C   UNL     1       8.438   0.624  23.554  0.00  0.00    +0.286 C 
BRANCH  20  21
ATOM     21  O   UNL     1       9.585   0.212  24.311  0.00  0.00    -0.363 OA
BRANCH  21  22
ATOM     22  C   UNL     1       9.862  -1.194  24.316  0.00  0.00    +0.136 C 
ATOM     23  C   UNL     1      10.188  -1.744  22.930  0.00  0.00    +0.040 C 
BRANCH  22  24
ATOM     24  C   UNL     1       8.668  -1.899  24.978  0.00  0.00    +0.156 C 
BRANCH  24  25
ATOM     25  N   UNL     1       8.314  -3.168  24.383  0.00  0.00    -0.312 N 
ATOM     26  C   UNL     1       7.344  -3.379  23.443  0.00  0.00    +0.165 A 
ATOM     27  C   UNL     1       7.392  -4.740  23.188  0.00  0.00    +0.147 A 
ATOM     28  C   UNL     1       6.457  -5.239  22.268  0.00  0.00    +0.147 A 
ATOM     29  N   UNL     1       5.600  -4.372  21.682  0.00  0.00    -0.219 NA
ATOM     30  C   UNL     1       5.668  -3.068  22.028  0.00  0.00    +0.225 A 
ATOM     31  N   UNL     1       8.400  -5.343  23.916  0.00  0.00    -0.231 NA
ATOM     32  N   UNL     1       6.514  -2.474  22.895  0.00  0.00    -0.216 NA
ATOM     33  C   UNL     1       8.927  -4.368  24.627  0.00  0.00    +0.201 A 
BRANCH  28  34
ATOM     34  N   UNL     1       6.379  -6.581  21.916  0.00  0.00    -0.341 N 
ATOM     35  H   UNL     1       5.798  -6.729  21.103  0.00  0.00    +0.144 HD
ATOM     36  H   UNL     1       7.275  -7.054  21.953  0.00  0.00    +0.144 HD
ENDBRANCH  28  34
ENDBRANCH  24  25
ENDBRANCH  22  24
ENDBRANCH  21  22
ENDBRANCH  20  21
ENDBRANCH   1  20
TORSDOF 13
ENDMDL
MODEL 7
REMARK VINA RESULT:      -6.3      3.121      8.539
REMARK  Name = 
REMARK  17 active torsions:
REMARK  status: ('A' for Active; 'I' for Inactive)
REMARK    1  A    between atoms: C_1  and  C_2
REMARK    2  A    between atoms: C_2  and  C_3
REMARK    3  A    between atoms: C_2  and  O_4
REMARK    4  A    between atoms: O_4  and  C_5
REMARK    5  A    between atoms: C_5  and  C_7
REMARK    6  A    between atoms: C_7  and  C_9
REMARK    7  A    between atoms: C_7  and  N_10
REMARK    8  A    between atoms: N_10  and  P_11
REMARK    9  A    between atoms: P_11  and  C_13
REMARK   10  A    between atoms: P_11  and  O_29
REMARK   11  A    between atoms: C_13  and  O_14
REMARK   12  A    between atoms: O_14  and  C_15
REMARK   13  A    between atoms: C_15  and  C_17
REMARK   14  A    between atoms: C_15  and  C_18
REMARK   15  A    between atoms: C_18  and  N_19
REMARK   16  A    between atoms: C_23  and  N_24
REMARK   17  A    between atoms: O_29  and  C_30
REMARK                            x       y       z     vdW  Elec       q    Type
REMARK                         _______ _______ _______ _____ _____    ______ ____
ROOT
ATOM      1  P   UNL     1       7.537  -2.885  23.742  0.00  0.00    +0.345 P 
ATOM      2  O   UNL     1       7.016  -2.175  22.469  0.00  0.00    -0.257 OA
ENDROOT
BRANCH   1   3
ATOM      3  N   UNL     1       7.377  -4.428  23.035  0.00  0.00    -0.221 NA
ATOM      4  H   UNL     1       8.164  -4.582  22.404  0.00  0.00    +0.133 HD
BRANCH   3   5
ATOM      5  C   UNL     1       6.142  -4.782  22.299  0.00  0.00    +0.169 C 
ATOM      6  C   UNL     1       6.357  -5.900  21.283  0.00  0.00    +0.036 C 
BRANCH   5   7
ATOM      7  C   UNL     1       5.089  -5.258  23.315  0.00  0.00    +0.325 C 
ATOM      8  O   UNL     1       5.311  -6.064  24.212  0.00  0.00    -0.249 OA
BRANCH   7   9
ATOM      9  O   UNL     1       3.869  -4.690  23.069  0.00  0.00    -0.461 OA
BRANCH   9  11
ATOM     10  C   UNL     1       2.514  -3.928  24.925  0.00  0.00    +0.052 C 
ATOM     11  C   UNL     1       2.808  -5.078  23.966  0.00  0.00    +0.170 C 
ATOM     12  C   UNL     1       1.562  -5.401  23.146  0.00  0.00    +0.052 C 
ENDBRANCH   9  11
ENDBRANCH   7   9
ENDBRANCH   5   7
ENDBRANCH   3   5
ENDBRANCH   1   3
BRANCH   1  13
ATOM     13  O   UNL     1       8.117  -3.679  25.165  0.00  0.00    -0.431 OA
BRANCH  13  14
ATOM     14  C   UNL     1       7.406  -4.097  26.241  0.00  0.00    +0.129 A 
ATOM     15  C   UNL     1       7.614  -5.291  26.908  0.00  0.00    +0.046 A 
ATOM     16  C   UNL     1       6.678  -5.696  27.867  0.00  0.00    +0.004 A 
ATOM     17  C   UNL     1       5.562  -4.903  28.158  0.00  0.00    +0.000 A 
ATOM     18  C   UNL     1       5.385  -3.684  27.510  0.00  0.00    +0.004 A 
ATOM     19  C   UNL     1       6.308  -3.286  26.551  0.00  0.00    +0.046 A 
ENDBRANCH  13  14
ENDBRANCH   1  13
BRANCH   1  20
ATOM     20  C   UNL     1       9.385  -2.438  23.388  0.00  0.00    +0.286 C 
BRANCH  20  21
ATOM     21  O   UNL     1       9.719  -1.222  24.072  0.00  0.00    -0.363 OA
BRANCH  21  22
ATOM     22  C   UNL     1       9.584  -0.015  23.312  0.00  0.00    +0.136 C 
ATOM     23  C   UNL     1       9.875  -0.209  21.827  0.00  0.00    +0.040 C 
BRANCH  22  24
ATOM     24  C   UNL     1      10.479   1.048  23.969  0.00  0.00    +0.156 C 
BRANCH  24  25
ATOM     25  N   UNL     1       9.888   2.365  24.047  0.00  0.00    -0.312 N 
ATOM     26  C   UNL     1      10.512   3.550  23.775  0.00  0.00    +0.165 A 
ATOM     27  C   UNL     1       9.540   4.515  23.984  0.00  0.00    +0.147 A 
ATOM     28  C   UNL     1       9.935   5.851  23.806  0.00  0.00    +0.147 A 
ATOM     29  N   UNL     1      11.208   6.105  23.428  0.00  0.00    -0.219 NA
ATOM     30  C   UNL     1      12.049   5.060  23.260  0.00  0.00    +0.225 A 
ATOM     31  N   UNL     1       8.335   3.934  24.326  0.00  0.00    -0.231 NA
ATOM     32  N   UNL     1      11.790   3.745  23.404  0.00  0.00    -0.216 NA
ATOM     33  C   UNL     1       8.584   2.642  24.361  0.00  0.00    +0.201 A 
BRANCH  28  34
ATOM     34  N   UNL     1       9.074   6.927  23.985  0.00  0.00    -0.341 N 
ATOM     35  H   UNL     1       9.016   7.509  23.162  0.00  0.00    +0.144 HD
ATOM     36  H   UNL     1       8.209   6.671  24.449  0.00  0.00    +0.144 HD
ENDBRANCH  28  34
ENDBRANCH  24  25
ENDBRANCH  22  24
ENDBRANCH  21  22
ENDBRANCH  20  21
ENDBRANCH   1  20
TORSDOF 13
ENDMDL
MODEL 8
REMARK VINA RESULT:      -6.3      2.120      4.976
REMARK  Name = 
REMARK  17 active torsions:
REMARK  status: ('A' for Active; 'I' for Inactive)
REMARK    1  A    between atoms: C_1  and  C_2
REMARK    2  A    between atoms: C_2  and  C_3
REMARK    3  A    between atoms: C_2  and  O_4
REMARK    4  A    between atoms: O_4  and  C_5
REMARK    5  A    between atoms: C_5  and  C_7
REMARK    6  A    between atoms: C_7  and  C_9
REMARK    7  A    between atoms: C_7  and  N_10
REMARK    8  A    between atoms: N_10  and  P_11
REMARK    9  A    between atoms: P_11  and  C_13
REMARK   10  A    between atoms: P_11  and  O_29
REMARK   11  A    between atoms: C_13  and  O_14
REMARK   12  A    between atoms: O_14  and  C_15
REMARK   13  A    between atoms: C_15  and  C_17
REMARK   14  A    between atoms: C_15  and  C_18
REMARK   15  A    between atoms: C_18  and  N_19
REMARK   16  A    between atoms: C_23  and  N_24
REMARK   17  A    between atoms: O_29  and  C_30
REMARK                            x       y       z     vdW  Elec       q    Type
REMARK                         _______ _______ _______ _____ _____    ______ ____
ROOT
ATOM      1  P   UNL     1       6.730   3.209  22.804  0.00  0.00    +0.345 P 
ATOM      2  O   UNL     1       5.203   3.439  22.915  0.00  0.00    -0.257 OA
ENDROOT
BRANCH   1   3
ATOM      3  N   UNL     1       7.081   4.760  23.419  0.00  0.00    -0.221 NA
ATOM      4  H   UNL     1       6.203   5.249  23.595  0.00  0.00    +0.133 HD
BRANCH   3   5
ATOM      5  C   UNL     1       7.956   5.679  22.658  0.00  0.00    +0.169 C 
ATOM      6  C   UNL     1       7.175   6.745  21.893  0.00  0.00    +0.036 C 
BRANCH   5   7
ATOM      7  C   UNL     1       8.892   6.394  23.647  0.00  0.00    +0.325 C 
ATOM      8  O   UNL     1       8.514   6.970  24.661  0.00  0.00    -0.249 OA
BRANCH   7   9
ATOM      9  O   UNL     1      10.195   6.327  23.235  0.00  0.00    -0.461 OA
BRANCH   9  11
ATOM     10  C   UNL     1      11.852   4.562  23.265  0.00  0.00    +0.052 C 
ATOM     11  C   UNL     1      11.085   5.586  24.096  0.00  0.00    +0.170 C 
ATOM     12  C   UNL     1      12.061   6.559  24.751  0.00  0.00    +0.052 C 
ENDBRANCH   9  11
ENDBRANCH   7   9
ENDBRANCH   5   7
ENDBRANCH   3   5
ENDBRANCH   1   3
BRANCH   1  13
ATOM     13  O   UNL     1       8.437   2.953  22.681  0.00  0.00    -0.431 OA
BRANCH  13  14
ATOM     14  C   UNL     1       9.099   1.783  22.512  0.00  0.00    +0.129 A 
ATOM     15  C   UNL     1       8.850   0.876  21.497  0.00  0.00    +0.046 A 
ATOM     16  C   UNL     1       9.456  -0.384  21.560  0.00  0.00    +0.004 A 
ATOM     17  C   UNL     1      10.310  -0.717  22.619  0.00  0.00    +0.000 A 
ATOM     18  C   UNL     1      10.584   0.217  23.612  0.00  0.00    +0.004 A 
ATOM     19  C   UNL     1       9.975   1.465  23.556  0.00  0.00    +0.046 A 
ENDBRANCH  13  14
ENDBRANCH   1  13
BRANCH   1  20
ATOM     20  C   UNL     1       6.802   2.094  24.383  0.00  0.00    +0.286 C 
BRANCH  20  21
ATOM     21  O   UNL     1       5.576   1.358  24.501  0.00  0.00    -0.363 OA
BRANCH  21  22
ATOM     22  C   UNL     1       5.681   0.050  25.076  0.00  0.00    +0.136 C 
ATOM     23  C   UNL     1       5.450   0.039  26.584  0.00  0.00    +0.040 C 
BRANCH  22  24
ATOM     24  C   UNL     1       7.048  -0.525  24.671  0.00  0.00    +0.156 C 
BRANCH  24  25
ATOM     25  N   UNL     1       6.982  -1.754  23.913  0.00  0.00    -0.312 N 
ATOM     26  C   UNL     1       7.662  -2.909  24.183  0.00  0.00    +0.165 A 
ATOM     27  C   UNL     1       7.264  -3.791  23.190  0.00  0.00    +0.147 A 
ATOM     28  C   UNL     1       7.852  -5.065  23.211  0.00  0.00    +0.147 A 
ATOM     29  N   UNL     1       8.736  -5.354  24.193  0.00  0.00    -0.219 NA
ATOM     30  C   UNL     1       9.029  -4.393  25.097  0.00  0.00    +0.225 A 
ATOM     31  N   UNL     1       6.324  -3.208  22.361  0.00  0.00    -0.231 NA
ATOM     32  N   UNL     1       8.536  -3.140  25.177  0.00  0.00    -0.216 NA
ATOM     33  C   UNL     1       6.185  -1.983  22.822  0.00  0.00    +0.201 A 
BRANCH  28  34
ATOM     34  N   UNL     1       7.558  -6.053  22.279  0.00  0.00    -0.341 N 
ATOM     35  H   UNL     1       6.667  -5.897  21.827  0.00  0.00    +0.144 HD
ATOM     36  H   UNL     1       8.351  -6.297  21.696  0.00  0.00    +0.144 HD
ENDBRANCH  28  34
ENDBRANCH  24  25
ENDBRANCH  22  24
ENDBRANCH  21  22
ENDBRANCH  20  21
ENDBRANCH   1  20
TORSDOF 13
ENDMDL
MODEL 9
REMARK VINA RESULT:      -6.2      2.044      5.719
REMARK  Name = 
REMARK  17 active torsions:
REMARK  status: ('A' for Active; 'I' for Inactive)
REMARK    1  A    between atoms: C_1  and  C_2
REMARK    2  A    between atoms: C_2  and  C_3
REMARK    3  A    between atoms: C_2  and  O_4
REMARK    4  A    between atoms: O_4  and  C_5
REMARK    5  A    between atoms: C_5  and  C_7
REMARK    6  A    between atoms: C_7  and  C_9
REMARK    7  A    between atoms: C_7  and  N_10
REMARK    8  A    between atoms: N_10  and  P_11
REMARK    9  A    between atoms: P_11  and  C_13
REMARK   10  A    between atoms: P_11  and  O_29
REMARK   11  A    between atoms: C_13  and  O_14
REMARK   12  A    between atoms: O_14  and  C_15
REMARK   13  A    between atoms: C_15  and  C_17
REMARK   14  A    between atoms: C_15  and  C_18
REMARK   15  A    between atoms: C_18  and  N_19
REMARK   16  A    between atoms: C_23  and  N_24
REMARK   17  A    between atoms: O_29  and  C_30
REMARK                            x       y       z     vdW  Elec       q    Type
REMARK                         _______ _______ _______ _____ _____    ______ ____
ROOT
ATOM      1  P   UNL     1       8.033  -0.127  22.682  0.00  0.00    +0.345 P 
ATOM      2  O   UNL     1       7.275   1.161  22.277  0.00  0.00    -0.257 OA
ENDROOT
BRANCH   1   3
ATOM      3  N   UNL     1       9.528   0.690  22.753  0.00  0.00    -0.221 NA
ATOM      4  H   UNL     1      10.270   0.039  22.496  0.00  0.00    +0.133 HD
BRANCH   3   5
ATOM      5  C   UNL     1       9.944   1.368  24.002  0.00  0.00    +0.169 C 
ATOM      6  C   UNL     1      11.222   0.783  24.596  0.00  0.00    +0.036 C 
BRANCH   5   7
ATOM      7  C   UNL     1      10.200   2.852  23.689  0.00  0.00    +0.325 C 
ATOM      8  O   UNL     1      11.308   3.330  23.475  0.00  0.00    -0.249 OA
BRANCH   7   9
ATOM      9  O   UNL     1       9.036   3.572  23.709  0.00  0.00    -0.461 OA
BRANCH   9  11
ATOM     10  C   UNL     1       8.743   5.436  25.225  0.00  0.00    +0.052 C 
ATOM     11  C   UNL     1       8.552   3.937  25.018  0.00  0.00    +0.170 C 
ATOM     12  C   UNL     1       7.070   3.585  25.111  0.00  0.00    +0.052 C 
ENDBRANCH   9  11
ENDBRANCH   7   9
ENDBRANCH   5   7
ENDBRANCH   3   5
ENDBRANCH   1   3
BRANCH   1  13
ATOM     13  O   UNL     1       8.881  -1.565  23.133  0.00  0.00    -0.431 OA
BRANCH  13  14
ATOM     14  C   UNL     1       8.381  -2.813  23.309  0.00  0.00    +0.129 A 
ATOM     15  C   UNL     1       8.828  -3.714  24.258  0.00  0.00    +0.046 A 
ATOM     16  C   UNL     1       8.372  -5.037  24.194  0.00  0.00    +0.004 A 
ATOM     17  C   UNL     1       7.471  -5.437  23.201  0.00  0.00    +0.000 A 
ATOM     18  C   UNL     1       6.998  -4.512  22.276  0.00  0.00    +0.004 A 
ATOM     19  C   UNL     1       7.456  -3.201  22.332  0.00  0.00    +0.046 A 
ENDBRANCH  13  14
ENDBRANCH   1  13
BRANCH   1  20
ATOM     20  C   UNL     1       7.418  -0.061  24.514  0.00  0.00    +0.286 C 
BRANCH  20  21
ATOM     21  O   UNL     1       5.995   0.120  24.532  0.00  0.00    -0.363 OA
BRANCH  21  22
ATOM     22  C   UNL     1       5.290  -0.543  25.589  0.00  0.00    +0.136 C 
ATOM     23  C   UNL     1       4.960   0.381  26.758  0.00  0.00    +0.040 C 
BRANCH  22  24
ATOM     24  C   UNL     1       6.121  -1.767  26.003  0.00  0.00    +0.156 C 
BRANCH  24  25
ATOM     25  N   UNL     1       5.489  -3.040  25.740  0.00  0.00    -0.312 N 
ATOM     26  C   UNL     1       5.679  -4.199  26.439  0.00  0.00    +0.165 A 
ATOM     27  C   UNL     1       4.855  -5.124  25.817  0.00  0.00    +0.147 A 
ATOM     28  C   UNL     1       4.887  -6.433  26.324  0.00  0.00    +0.147 A 
ATOM     29  N   UNL     1       5.687  -6.697  27.382  0.00  0.00    -0.219 NA
ATOM     30  C   UNL     1       6.437  -5.693  27.888  0.00  0.00    +0.225 A 
ATOM     31  N   UNL     1       4.139  -4.535  24.793  0.00  0.00    -0.231 NA
ATOM     32  N   UNL     1       6.495  -4.407  27.488  0.00  0.00    -0.216 NA
ATOM     33  C   UNL     1       4.551  -3.285  24.772  0.00  0.00    +0.201 A 
BRANCH  28  34
ATOM     34  N   UNL     1       4.123  -7.468  25.801  0.00  0.00    -0.341 N 
ATOM     35  H   UNL     1       4.694  -8.238  25.479  0.00  0.00    +0.144 HD
ATOM     36  H   UNL     1       3.307  -7.684  26.363  0.00  0.00    +0.144 HD
ENDBRANCH  28  34
ENDBRANCH  24  25
ENDBRANCH  22  24
ENDBRANCH  21  22
ENDBRANCH  20  21
ENDBRANCH   1  20
TORSDOF 13
ENDMDL
