MODEL 1
REMARK VINA RESULT:      -5.9      0.000      0.000
REMARK  Name = 
REMARK  13 active torsions:
REMARK  status: ('A' for Active; 'I' for Inactive)
REMARK    1  A    between atoms: C_1  and  N_2
REMARK    2  A    between atoms: N_2  and  C_3
REMARK    3  A    between atoms: N_2  and  C_4
REMARK    4  A    between atoms: N_2  and  C_5
REMARK    5  A    between atoms: C_5  and  C_7
REMARK    6  A    between atoms: C_5  and  C_21
REMARK    7  A    between atoms: C_7  and  C_8
REMARK    8  A    between atoms: C_8  and  C_9
REMARK    9  A    between atoms: C_12  and  C_13
REMARK   10  A    between atoms: C_13  and  CA_14
REMARK   11  A    between atoms: CA_14  and  N_16
REMARK   12  A    between atoms: CA_14  and  C_17
REMARK   13  A    between atoms: C_17  and  O_18
REMARK                            x       y       z     vdW  Elec       q    Type
REMARK                         _______ _______ _______ _____ _____    ______ ____
ROOT
ATOM      1  C   UNL     1       9.787  -1.708  23.134  0.00  0.00    +0.108 A 
ATOM      2  N   UNL     1      10.368  -0.536  23.302  0.00  0.00    -0.237 NA
ATOM      3  C   UNL     1       9.946   0.245  22.247  0.00  0.00    +0.061 A 
ATOM      4  C   UNL     1       9.263  -0.535  21.335  0.00  0.00    +0.107 A 
ATOM      5  N   UNL     1       9.146  -1.763  21.922  0.00  0.00    -0.348 N 
ATOM      6  H   UNL     1       8.622  -2.549  21.554  0.00  0.00    +0.166 HD
ENDROOT
BRANCH   1   7
ATOM      7  C   UNL     1       9.820  -2.840  24.098  0.00  0.00    +0.080 C 
BRANCH   7   8
ATOM      8  C   UNL     1       8.546  -2.951  24.940  0.00  0.00    +0.072 C 
BRANCH   8   9
ATOM      9  C   UNL     1       7.971  -4.377  25.063  0.00  0.00    +0.153 C 
BRANCH   9  10
ATOM     10  C   UNL     1       7.600  -4.704  26.532  0.00  0.00    +0.259 C 
ATOM     11  O   UNL     1       6.886  -3.981  27.219  0.00  0.00    -0.270 OA
ATOM     12  N   UNL     1       8.075  -5.878  27.049  0.00  0.00    -0.325 N 
ATOM     13  H   UNL     1       7.919  -6.032  28.042  0.00  0.00    +0.145 HD
ATOM     14  H   UNL     1       8.899  -6.357  26.672  0.00  0.00    +0.145 HD
ENDBRANCH   9  10
BRANCH   9  16
ATOM     15  C   UNL     1       6.059  -3.257  23.718  0.00  0.00    +0.192 C 
ATOM     16  N   UNL     1       6.751  -4.581  24.026  0.00  0.00    +0.246 N 
ATOM     17  C   UNL     1       7.330  -5.121  22.712  0.00  0.00    +0.192 C 
ATOM     18  C   UNL     1       5.701  -5.573  24.528  0.00  0.00    +0.192 C 
ENDBRANCH   9  16
ENDBRANCH   8   9
ENDBRANCH   7   8
ENDBRANCH   1   7
BRANCH   3  19
ATOM     19  C   UNL     1      10.158   1.724  22.234  0.00  0.00    +0.086 C 
BRANCH  19  20
ATOM     20  CA  UNL     1      10.562   2.313  23.593  0.00  0.00    +0.166 C 
BRANCH  20  21
ATOM     21  N   UNL     1       9.518   2.195  24.652  0.00  0.00    -0.318 NA
ATOM     22  H1  UNL     1       9.913   2.565  25.521  0.00  0.00    +0.119 HD
ATOM     23  H2  UNL     1       9.369   1.204  24.869  0.00  0.00    +0.119 HD
ENDBRANCH  20  21
BRANCH  20  24
ATOM     24  C   UNL     1      10.947   3.792  23.438  0.00  0.00    +0.322 C 
ATOM     25  OXT UNL     1      12.084   4.227  23.370  0.00  0.00    -0.249 OA
BRANCH  24  26
ATOM     26  O   UNL     1       9.847   4.583  23.337  0.00  0.00    -0.480 OA
ATOM     27  H   UNL     1       9.039   4.103  23.615  0.00  0.00    +0.295 HD
ENDBRANCH  24  26
ENDBRANCH  20  24
ENDBRANCH  19  20
ENDBRANCH   3  19
TORSDOF 10
ENDMDL
MODEL 2
REMARK VINA RESULT:      -5.9      2.077      7.044
REMARK  Name = 
REMARK  13 active torsions:
REMARK  status: ('A' for Active; 'I' for Inactive)
REMARK    1  A    between atoms: C_1  and  N_2
REMARK    2  A    between atoms: N_2  and  C_3
REMARK    3  A    between atoms: N_2  and  C_4
REMARK    4  A    between atoms: N_2  and  C_5
REMARK    5  A    between atoms: C_5  and  C_7
REMARK    6  A    between atoms: C_5  and  C_21
REMARK    7  A    between atoms: C_7  and  C_8
REMARK    8  A    between atoms: C_8  and  C_9
REMARK    9  A    between atoms: C_12  and  C_13
REMARK   10  A    between atoms: C_13  and  CA_14
REMARK   11  A    between atoms: CA_14  and  N_16
REMARK   12  A    between atoms: CA_14  and  C_17
REMARK   13  A    between atoms: C_17  and  O_18
REMARK                            x       y       z     vdW  Elec       q    Type
REMARK                         _______ _______ _______ _____ _____    ______ ____
ROOT
ATOM      1  C   UNL     1       8.469  -1.569  22.368  0.00  0.00    +0.108 A 
ATOM      2  N   UNL     1       9.048  -2.608  22.938  0.00  0.00    -0.237 NA
ATOM      3  C   UNL     1       8.024  -3.359  23.473  0.00  0.00    +0.061 A 
ATOM      4  C   UNL     1       6.839  -2.656  23.391  0.00  0.00    +0.107 A 
ATOM      5  N   UNL     1       7.130  -1.536  22.664  0.00  0.00    -0.348 N 
ATOM      6  H   UNL     1       6.460  -0.844  22.348  0.00  0.00    +0.166 HD
ENDROOT
BRANCH   1   7
ATOM      7  C   UNL     1       9.150  -0.547  21.528  0.00  0.00    +0.080 C 
BRANCH   7   8
ATOM      8  C   UNL     1      10.015   0.421  22.340  0.00  0.00    +0.072 C 
BRANCH   8   9
ATOM      9  C   UNL     1       9.372   0.928  23.646  0.00  0.00    +0.153 C 
BRANCH   9  10
ATOM     10  C   UNL     1      10.172   0.450  24.884  0.00  0.00    +0.259 C 
ATOM     11  O   UNL     1      11.387   0.589  24.991  0.00  0.00    -0.270 OA
ATOM     12  N   UNL     1       9.462  -0.119  25.906  0.00  0.00    -0.325 N 
ATOM     13  H   UNL     1      10.003  -0.528  26.663  0.00  0.00    +0.145 HD
ATOM     14  H   UNL     1       8.539  -0.544  25.770  0.00  0.00    +0.145 HD
ENDBRANCH   9  10
BRANCH   9  16
ATOM     15  C   UNL     1       8.212   2.922  22.465  0.00  0.00    +0.192 C 
ATOM     16  N   UNL     1       9.167   2.528  23.587  0.00  0.00    +0.246 N 
ATOM     17  C   UNL     1       8.538   2.976  24.913  0.00  0.00    +0.192 C 
ATOM     18  C   UNL     1      10.479   3.291  23.398  0.00  0.00    +0.192 C 
ENDBRANCH   9  16
ENDBRANCH   8   9
ENDBRANCH   7   8
ENDBRANCH   1   7
BRANCH   3  19
ATOM     19  C   UNL     1       8.248  -4.756  23.955  0.00  0.00    +0.086 C 
BRANCH  19  20
ATOM     20  CA  UNL     1       8.696  -4.852  25.419  0.00  0.00    +0.166 C 
BRANCH  20  21
ATOM     21  N   UNL     1       9.922  -5.673  25.638  0.00  0.00    -0.318 NA
ATOM     22  H1  UNL     1       9.722  -6.340  26.388  0.00  0.00    +0.119 HD
ATOM     23  H2  UNL     1      10.655  -5.081  26.045  0.00  0.00    +0.119 HD
ENDBRANCH  20  21
BRANCH  20  24
ATOM     24  C   UNL     1       7.561  -5.417  26.287  0.00  0.00    +0.322 C 
ATOM     25  OXT UNL     1       6.402  -5.555  25.938  0.00  0.00    -0.249 OA
BRANCH  24  26
ATOM     26  O   UNL     1       8.014  -5.799  27.509  0.00  0.00    -0.480 OA
ATOM     27  H   UNL     1       8.427  -5.049  27.985  0.00  0.00    +0.295 HD
ENDBRANCH  24  26
ENDBRANCH  20  24
ENDBRANCH  19  20
ENDBRANCH   3  19
TORSDOF 10
ENDMDL
MODEL 3
REMARK VINA RESULT:      -5.8      2.501      6.887
REMARK  Name = 
REMARK  13 active torsions:
REMARK  status: ('A' for Active; 'I' for Inactive)
REMARK    1  A    between atoms: C_1  and  N_2
REMARK    2  A    between atoms: N_2  and  C_3
REMARK    3  A    between atoms: N_2  and  C_4
REMARK    4  A    between atoms: N_2  and  C_5
REMARK    5  A    between atoms: C_5  and  C_7
REMARK    6  A    between atoms: C_5  and  C_21
REMARK    7  A    between atoms: C_7  and  C_8
REMARK    8  A    between atoms: C_8  and  C_9
REMARK    9  A    between atoms: C_12  and  C_13
REMARK   10  A    between atoms: C_13  and  CA_14
REMARK   11  A    between atoms: CA_14  and  N_16
REMARK   12  A    between atoms: CA_14  and  C_17
REMARK   13  A    between atoms: C_17  and  O_18
REMARK                            x       y       z     vdW  Elec       q    Type
REMARK                         _______ _______ _______ _____ _____    ______ ____
ROOT
ATOM      1  C   UNL     1       9.294  -1.736  22.447  0.00  0.00    +0.108 A 
ATOM      2  N   UNL     1       8.134  -2.362  22.496  0.00  0.00    -0.237 NA
ATOM      3  C   UNL     1       8.181  -3.149  23.626  0.00  0.00    +0.061 A 
ATOM      4  C   UNL     1       9.460  -3.140  24.147  0.00  0.00    +0.107 A 
ATOM      5  N   UNL     1      10.147  -2.219  23.407  0.00  0.00    -0.348 N 
ATOM      6  H   UNL     1      11.095  -1.907  23.582  0.00  0.00    +0.166 HD
ENDROOT
BRANCH   1   7
ATOM      7  C   UNL     1       9.663  -0.663  21.486  0.00  0.00    +0.080 C 
BRANCH   7   8
ATOM      8  C   UNL     1       9.170   0.723  21.911  0.00  0.00    +0.072 C 
BRANCH   8   9
ATOM      9  C   UNL     1       8.999   0.913  23.432  0.00  0.00    +0.153 C 
BRANCH   9  10
ATOM     10  C   UNL     1      10.311   1.419  24.082  0.00  0.00    +0.259 C 
ATOM     11  O   UNL     1      10.886   2.442  23.723  0.00  0.00    -0.270 OA
ATOM     12  N   UNL     1      10.811   0.693  25.128  0.00  0.00    -0.325 N 
ATOM     13  H   UNL     1      11.725   0.968  25.476  0.00  0.00    +0.145 HD
ATOM     14  H   UNL     1      10.584  -0.296  25.274  0.00  0.00    +0.145 HD
ENDBRANCH   9  10
BRANCH   9  16
ATOM     15  C   UNL     1       7.543   2.915  22.663  0.00  0.00    +0.192 C 
ATOM     16  N   UNL     1       7.720   1.849  23.740  0.00  0.00    +0.246 N 
ATOM     17  C   UNL     1       6.468   0.962  23.728  0.00  0.00    +0.192 C 
ATOM     18  C   UNL     1       7.802   2.543  25.100  0.00  0.00    +0.192 C 
ENDBRANCH   9  16
ENDBRANCH   8   9
ENDBRANCH   7   8
ENDBRANCH   1   7
BRANCH   3  19
ATOM     19  C   UNL     1       6.953  -3.794  24.182  0.00  0.00    +0.086 C 
BRANCH  19  20
ATOM     20  CA  UNL     1       6.358  -4.889  23.287  0.00  0.00    +0.166 C 
BRANCH  20  21
ATOM     21  N   UNL     1       7.303  -5.439  22.272  0.00  0.00    -0.318 NA
ATOM     22  H1  UNL     1       8.163  -5.706  22.760  0.00  0.00    +0.119 HD
ATOM     23  H2  UNL     1       7.614  -4.680  21.655  0.00  0.00    +0.119 HD
ENDBRANCH  20  21
BRANCH  20  24
ATOM     24  C   UNL     1       5.107  -4.365  22.566  0.00  0.00    +0.322 C 
ATOM     25  OXT UNL     1       3.954  -4.586  22.894  0.00  0.00    -0.249 OA
BRANCH  24  26
ATOM     26  O   UNL     1       5.436  -3.568  21.517  0.00  0.00    -0.480 OA
ATOM     27  H   UNL     1       4.869  -2.770  21.486  0.00  0.00    +0.295 HD
ENDBRANCH  24  26
ENDBRANCH  20  24
ENDBRANCH  19  20
ENDBRANCH   3  19
TORSDOF 10
ENDMDL
MODEL 4
REMARK VINA RESULT:      -5.8      2.716      7.722
REMARK  Name = 
REMARK  13 active torsions:
REMARK  status: ('A' for Active; 'I' for Inactive)
REMARK    1  A    between atoms: C_1  and  N_2
REMARK    2  A    between atoms: N_2  and  C_3
REMARK    3  A    between atoms: N_2  and  C_4
REMARK    4  A    between atoms: N_2  and  C_5
REMARK    5  A    between atoms: C_5  and  C_7
REMARK    6  A    between atoms: C_5  and  C_21
REMARK    7  A    between atoms: C_7  and  C_8
REMARK    8  A    between atoms: C_8  and  C_9
REMARK    9  A    between atoms: C_12  and  C_13
REMARK   10  A    between atoms: C_13  and  CA_14
REMARK   11  A    between atoms: CA_14  and  N_16
REMARK   12  A    between atoms: CA_14  and  C_17
REMARK   13  A    between atoms: C_17  and  O_18
REMARK                            x       y       z     vdW  Elec       q    Type
REMARK                         _______ _______ _______ _____ _____    ______ ____
ROOT
ATOM      1  C   UNL     1       9.733  -0.105  25.019  0.00  0.00    +0.108 A 
ATOM      2  N   UNL     1       9.845  -1.301  24.474  0.00  0.00    -0.237 NA
ATOM      3  C   UNL     1       9.085  -2.141  25.260  0.00  0.00    +0.061 A 
ATOM      4  C   UNL     1       8.677  -1.473  26.396  0.00  0.00    +0.107 A 
ATOM      5  N   UNL     1       9.071  -0.177  26.218  0.00  0.00    -0.348 N 
ATOM      6  H   UNL     1       8.853   0.599  26.832  0.00  0.00    +0.166 HD
ENDROOT
BRANCH   1   7
ATOM      7  C   UNL     1      10.257   1.163  24.444  0.00  0.00    +0.080 C 
BRANCH   7   8
ATOM      8  C   UNL     1       9.256   2.319  24.521  0.00  0.00    +0.072 C 
BRANCH   8   9
ATOM      9  C   UNL     1       8.851   2.918  23.159  0.00  0.00    +0.153 C 
BRANCH   9  10
ATOM     10  C   UNL     1       8.158   1.858  22.267  0.00  0.00    +0.259 C 
ATOM     11  O   UNL     1       7.098   1.318  22.569  0.00  0.00    -0.270 OA
ATOM     12  N   UNL     1       8.758   1.555  21.075  0.00  0.00    -0.325 N 
ATOM     13  H   UNL     1       8.358   0.783  20.549  0.00  0.00    +0.145 HD
ATOM     14  H   UNL     1       9.756   1.711  20.902  0.00  0.00    +0.145 HD
ENDBRANCH   9  10
BRANCH   9  16
ATOM     15  C   UNL     1       7.032   4.116  24.564  0.00  0.00    +0.192 C 
ATOM     16  N   UNL     1       7.975   4.257  23.374  0.00  0.00    +0.246 N 
ATOM     17  C   UNL     1       8.939   5.412  23.677  0.00  0.00    +0.192 C 
ATOM     18  C   UNL     1       7.149   4.634  22.142  0.00  0.00    +0.192 C 
ENDBRANCH   9  16
ENDBRANCH   8   9
ENDBRANCH   7   8
ENDBRANCH   1   7
BRANCH   3  19
ATOM     19  C   UNL     1       8.728  -3.521  24.811  0.00  0.00    +0.086 C 
BRANCH  19  20
ATOM     20  CA  UNL     1       9.064  -4.620  25.828  0.00  0.00    +0.166 C 
BRANCH  20  21
ATOM     21  N   UNL     1      10.040  -5.637  25.340  0.00  0.00    -0.318 NA
ATOM     22  H1  UNL     1      10.699  -5.162  24.716  0.00  0.00    +0.119 HD
ATOM     23  H2  UNL     1       9.559  -6.291  24.712  0.00  0.00    +0.119 HD
ENDBRANCH  20  21
BRANCH  20  24
ATOM     24  C   UNL     1       7.783  -5.339  26.277  0.00  0.00    +0.322 C 
ATOM     25  OXT UNL     1       6.754  -5.428  25.630  0.00  0.00    -0.249 OA
BRANCH  24  26
ATOM     26  O   UNL     1       7.942  -5.921  27.495  0.00  0.00    -0.480 OA
ATOM     27  H   UNL     1       7.302  -6.652  27.625  0.00  0.00    +0.295 HD
ENDBRANCH  24  26
ENDBRANCH  20  24
ENDBRANCH  19  20
ENDBRANCH   3  19
TORSDOF 10
ENDMDL
MODEL 5
REMARK VINA RESULT:      -5.8      2.496      7.073
REMARK  Name = 
REMARK  13 active torsions:
REMARK  status: ('A' for Active; 'I' for Inactive)
REMARK    1  A    between atoms: C_1  and  N_2
REMARK    2  A    between atoms: N_2  and  C_3
REMARK    3  A    between atoms: N_2  and  C_4
REMARK    4  A    between atoms: N_2  and  C_5
REMARK    5  A    between atoms: C_5  and  C_7
REMARK    6  A    between atoms: C_5  and  C_21
REMARK    7  A    between atoms: C_7  and  C_8
REMARK    8  A    between atoms: C_8  and  C_9
REMARK    9  A    between atoms: C_12  and  C_13
REMARK   10  A    between atoms: C_13  and  CA_14
REMARK   11  A    between atoms: CA_14  and  N_16
REMARK   12  A    between atoms: CA_14  and  C_17
REMARK   13  A    between atoms: C_17  and  O_18
REMARK                            x       y       z     vdW  Elec       q    Type
REMARK                         _______ _______ _______ _____ _____    ______ ____
ROOT
ATOM      1  C   UNL     1       6.440  -1.875  23.318  0.00  0.00    +0.108 A 
ATOM      2  N   UNL     1       6.989  -2.791  24.092  0.00  0.00    -0.237 NA
ATOM      3  C   UNL     1       6.829  -3.988  23.426  0.00  0.00    +0.061 A 
ATOM      4  C   UNL     1       6.000  -3.807  22.338  0.00  0.00    +0.107 A 
ATOM      5  N   UNL     1       5.784  -2.460  22.264  0.00  0.00    -0.348 N 
ATOM      6  H   UNL     1       5.283  -1.979  21.526  0.00  0.00    +0.166 HD
ENDROOT
BRANCH   1   7
ATOM      7  C   UNL     1       6.492  -0.406  23.540  0.00  0.00    +0.080 C 
BRANCH   7   8
ATOM      8  C   UNL     1       7.649   0.274  22.803  0.00  0.00    +0.072 C 
BRANCH   8   9
ATOM      9  C   UNL     1       9.056  -0.126  23.293  0.00  0.00    +0.153 C 
BRANCH   9  10
ATOM     10  C   UNL     1       9.785  -0.999  22.240  0.00  0.00    +0.259 C 
ATOM     11  O   UNL     1      10.606  -1.862  22.538  0.00  0.00    -0.270 OA
ATOM     12  N   UNL     1       9.453  -0.803  20.928  0.00  0.00    -0.325 N 
ATOM     13  H   UNL     1      10.012  -1.300  20.239  0.00  0.00    +0.145 HD
ATOM     14  H   UNL     1       9.040   0.070  20.585  0.00  0.00    +0.145 HD
ENDBRANCH   9  10
BRANCH   9  16
ATOM     15  C   UNL     1      10.253   2.043  22.531  0.00  0.00    +0.192 C 
ATOM     16  N   UNL     1       9.889   1.183  23.737  0.00  0.00    +0.246 N 
ATOM     17  C   UNL     1       8.994   2.026  24.656  0.00  0.00    +0.192 C 
ATOM     18  C   UNL     1      11.172   0.845  24.498  0.00  0.00    +0.192 C 
ENDBRANCH   9  16
ENDBRANCH   8   9
ENDBRANCH   7   8
ENDBRANCH   1   7
BRANCH   3  19
ATOM     19  C   UNL     1       7.566  -5.220  23.843  0.00  0.00    +0.086 C 
BRANCH  19  20
ATOM     20  CA  UNL     1       8.418  -5.045  25.107  0.00  0.00    +0.166 C 
BRANCH  20  21
ATOM     21  N   UNL     1       9.678  -5.843  25.119  0.00  0.00    -0.318 NA
ATOM     22  H1  UNL     1      10.079  -5.779  26.059  0.00  0.00    +0.119 HD
ATOM     23  H2  UNL     1      10.380  -5.372  24.536  0.00  0.00    +0.119 HD
ENDBRANCH  20  21
BRANCH  20  24
ATOM     24  C   UNL     1       7.596  -5.399  26.356  0.00  0.00    +0.322 C 
ATOM     25  OXT UNL     1       7.839  -5.036  27.493  0.00  0.00    -0.249 OA
BRANCH  24  26
ATOM     26  O   UNL     1       6.509  -6.149  26.037  0.00  0.00    -0.480 OA
ATOM     27  H   UNL     1       6.348  -6.148  25.071  0.00  0.00    +0.295 HD
ENDBRANCH  24  26
ENDBRANCH  20  24
ENDBRANCH  19  20
ENDBRANCH   3  19
TORSDOF 10
ENDMDL
MODEL 6
REMARK VINA RESULT:      -5.8      2.542      3.532
REMARK  Name = 
REMARK  13 active torsions:
REMARK  status: ('A' for Active; 'I' for Inactive)
REMARK    1  A    between atoms: C_1  and  N_2
REMARK    2  A    between atoms: N_2  and  C_3
REMARK    3  A    between atoms: N_2  and  C_4
REMARK    4  A    between atoms: N_2  and  C_5
REMARK    5  A    between atoms: C_5  and  C_7
REMARK    6  A    between atoms: C_5  and  C_21
REMARK    7  A    between atoms: C_7  and  C_8
REMARK    8  A    between atoms: C_8  and  C_9
REMARK    9  A    between atoms: C_12  and  C_13
REMARK   10  A    between atoms: C_13  and  CA_14
REMARK   11  A    between atoms: CA_14  and  N_16
REMARK   12  A    between atoms: CA_14  and  C_17
REMARK   13  A    between atoms: C_17  and  O_18
REMARK                            x       y       z     vdW  Elec       q    Type
REMARK                         _______ _______ _______ _____ _____    ______ ____
ROOT
ATOM      1  C   UNL     1       6.459  -0.375  23.848  0.00  0.00    +0.108 A 
ATOM      2  N   UNL     1       7.408  -0.640  22.970  0.00  0.00    -0.237 NA
ATOM      3  C   UNL     1       7.745   0.573  22.407  0.00  0.00    +0.061 A 
ATOM      4  C   UNL     1       6.849   1.540  22.813  0.00  0.00    +0.107 A 
ATOM      5  N   UNL     1       6.056   0.933  23.747  0.00  0.00    -0.348 N 
ATOM      6  H   UNL     1       5.346   1.389  24.308  0.00  0.00    +0.166 HD
ENDROOT
BRANCH   1   7
ATOM      7  C   UNL     1       5.875  -1.342  24.814  0.00  0.00    +0.080 C 
BRANCH   7   8
ATOM      8  C   UNL     1       6.895  -2.352  25.348  0.00  0.00    +0.072 C 
BRANCH   8   9
ATOM      9  C   UNL     1       6.672  -3.806  24.884  0.00  0.00    +0.153 C 
BRANCH   9  10
ATOM     10  C   UNL     1       7.748  -4.234  23.855  0.00  0.00    +0.259 C 
ATOM     11  O   UNL     1       7.632  -5.223  23.136  0.00  0.00    -0.270 OA
ATOM     12  N   UNL     1       8.852  -3.435  23.736  0.00  0.00    -0.325 N 
ATOM     13  H   UNL     1       9.600  -3.780  23.140  0.00  0.00    +0.145 HD
ATOM     14  H   UNL     1       9.163  -2.805  24.482  0.00  0.00    +0.145 HD
ENDBRANCH   9  10
BRANCH   9  16
ATOM     15  C   UNL     1       7.948  -5.267  26.605  0.00  0.00    +0.192 C 
ATOM     16  N   UNL     1       6.569  -4.791  26.160  0.00  0.00    +0.246 N 
ATOM     17  C   UNL     1       5.952  -4.000  27.321  0.00  0.00    +0.192 C 
ATOM     18  C   UNL     1       5.693  -6.017  25.897  0.00  0.00    +0.192 C 
ENDBRANCH   9  16
ENDBRANCH   8   9
ENDBRANCH   7   8
ENDBRANCH   1   7
BRANCH   3  19
ATOM     19  C   UNL     1       8.976   0.733  21.574  0.00  0.00    +0.086 C 
BRANCH  19  20
ATOM     20  CA  UNL     1      10.193  -0.044  22.095  0.00  0.00    +0.166 C 
BRANCH  20  21
ATOM     21  N   UNL     1      10.127  -1.517  21.874  0.00  0.00    -0.318 NA
ATOM     22  H1  UNL     1      10.341  -1.695  20.889  0.00  0.00    +0.119 HD
ATOM     23  H2  UNL     1       9.152  -1.827  21.958  0.00  0.00    +0.119 HD
ENDBRANCH  20  21
BRANCH  20  24
ATOM     24  C   UNL     1      10.392   0.224  23.595  0.00  0.00    +0.322 C 
ATOM     25  OXT UNL     1      10.674   1.300  24.093  0.00  0.00    -0.249 OA
BRANCH  24  26
ATOM     26  O   UNL     1      10.169  -0.895  24.332  0.00  0.00    -0.480 OA
ATOM     27  H   UNL     1       9.253  -1.223  24.211  0.00  0.00    +0.295 HD
ENDBRANCH  24  26
ENDBRANCH  20  24
ENDBRANCH  19  20
ENDBRANCH   3  19
TORSDOF 10
ENDMDL
MODEL 7
REMARK VINA RESULT:      -5.7      2.665      7.115
REMARK  Name = 
REMARK  13 active torsions:
REMARK  status: ('A' for Active; 'I' for Inactive)
REMARK    1  A    between atoms: C_1  and  N_2
REMARK    2  A    between atoms: N_2  and  C_3
REMARK    3  A    between atoms: N_2  and  C_4
REMARK    4  A    between atoms: N_2  and  C_5
REMARK    5  A    between atoms: C_5  and  C_7
REMARK    6  A    between atoms: C_5  and  C_21
REMARK    7  A    between atoms: C_7  and  C_8
REMARK    8  A    between atoms: C_8  and  C_9
REMARK    9  A    between atoms: C_12  and  C_13
REMARK   10  A    between atoms: C_13  and  CA_14
REMARK   11  A    between atoms: CA_14  and  N_16
REMARK   12  A    between atoms: CA_14  and  C_17
REMARK   13  A    between atoms: C_17  and  O_18
REMARK                            x       y       z     vdW  Elec       q    Type
REMARK                         _______ _______ _______ _____ _____    ______ ____
ROOT
ATOM      1  C   UNL     1       8.199  -3.099  25.904  0.00  0.00    +0.108 A 
ATOM      2  N   UNL     1       7.362  -3.544  24.985  0.00  0.00    -0.237 NA
ATOM      3  C   UNL     1       7.107  -4.857  25.317  0.00  0.00    +0.061 A 
ATOM      4  C   UNL     1       7.955  -5.255  26.330  0.00  0.00    +0.107 A 
ATOM      5  N   UNL     1       8.622  -4.124  26.712  0.00  0.00    -0.348 N 
ATOM      6  H   UNL     1       9.262  -4.049  27.494  0.00  0.00    +0.166 HD
ENDROOT
BRANCH   1   7
ATOM      7  C   UNL     1       8.652  -1.692  26.057  0.00  0.00    +0.080 C 
BRANCH   7   8
ATOM      8  C   UNL     1       8.336  -0.820  24.839  0.00  0.00    +0.072 C 
BRANCH   8   9
ATOM      9  C   UNL     1       9.542  -0.518  23.926  0.00  0.00    +0.153 C 
BRANCH   9  10
ATOM     10  C   UNL     1       9.691  -1.598  22.825  0.00  0.00    +0.259 C 
ATOM     11  O   UNL     1      10.775  -1.924  22.348  0.00  0.00    -0.270 OA
ATOM     12  N   UNL     1       8.550  -2.227  22.408  0.00  0.00    -0.325 N 
ATOM     13  H   UNL     1       8.642  -2.853  21.612  0.00  0.00    +0.145 HD
ATOM     14  H   UNL     1       7.619  -1.813  22.514  0.00  0.00    +0.145 HD
ENDBRANCH   9  10
BRANCH   9  16
ATOM     15  C   UNL     1       8.115   1.636  23.718  0.00  0.00    +0.192 C 
ATOM     16  N   UNL     1       9.445   0.986  23.348  0.00  0.00    +0.246 N 
ATOM     17  C   UNL     1      10.564   1.815  23.993  0.00  0.00    +0.192 C 
ATOM     18  C   UNL     1       9.613   1.054  21.830  0.00  0.00    +0.192 C 
ENDBRANCH   9  16
ENDBRANCH   8   9
ENDBRANCH   7   8
ENDBRANCH   1   7
BRANCH   3  19
ATOM     19  C   UNL     1       5.989  -5.621  24.683  0.00  0.00    +0.086 C 
BRANCH  19  20
ATOM     20  CA  UNL     1       6.038  -5.651  23.150  0.00  0.00    +0.166 C 
BRANCH  20  21
ATOM     21  N   UNL     1       7.351  -5.253  22.566  0.00  0.00    -0.318 NA
ATOM     22  H1  UNL     1       8.073  -5.840  22.993  0.00  0.00    +0.119 HD
ATOM     23  H2  UNL     1       7.595  -4.312  22.894  0.00  0.00    +0.119 HD
ENDBRANCH  20  21
BRANCH  20  24
ATOM     24  C   UNL     1       4.942  -4.747  22.565  0.00  0.00    +0.322 C 
ATOM     25  OXT UNL     1       3.769  -4.747  22.897  0.00  0.00    -0.249 OA
BRANCH  24  26
ATOM     26  O   UNL     1       5.446  -3.891  21.640  0.00  0.00    -0.480 OA
ATOM     27  H   UNL     1       5.434  -4.288  20.744  0.00  0.00    +0.295 HD
ENDBRANCH  24  26
ENDBRANCH  20  24
ENDBRANCH  19  20
ENDBRANCH   3  19
TORSDOF 10
ENDMDL
MODEL 8
REMARK VINA RESULT:      -5.7      2.539      3.617
REMARK  Name = 
REMARK  13 active torsions:
REMARK  status: ('A' for Active; 'I' for Inactive)
REMARK    1  A    between atoms: C_1  and  N_2
REMARK    2  A    between atoms: N_2  and  C_3
REMARK    3  A    between atoms: N_2  and  C_4
REMARK    4  A    between atoms: N_2  and  C_5
REMARK    5  A    between atoms: C_5  and  C_7
REMARK    6  A    between atoms: C_5  and  C_21
REMARK    7  A    between atoms: C_7  and  C_8
REMARK    8  A    between atoms: C_8  and  C_9
REMARK    9  A    between atoms: C_12  and  C_13
REMARK   10  A    between atoms: C_13  and  CA_14
REMARK   11  A    between atoms: CA_14  and  N_16
REMARK   12  A    between atoms: CA_14  and  C_17
REMARK   13  A    between atoms: C_17  and  O_18
REMARK                            x       y       z     vdW  Elec       q    Type
REMARK                         _______ _______ _______ _____ _____    ______ ____
ROOT
ATOM      1  C   UNL     1       8.784  -3.197  24.883  0.00  0.00    +0.108 A 
ATOM      2  N   UNL     1       9.173  -2.211  24.098  0.00  0.00    -0.237 NA
ATOM      3  C   UNL     1       9.297  -1.108  24.916  0.00  0.00    +0.061 A 
ATOM      4  C   UNL     1       8.787  -1.397  26.166  0.00  0.00    +0.107 A 
ATOM      5  N   UNL     1       8.491  -2.730  26.140  0.00  0.00    -0.348 N 
ATOM      6  H   UNL     1       8.175  -3.283  26.928  0.00  0.00    +0.166 HD
ENDROOT
BRANCH   1   7
ATOM      7  C   UNL     1       8.656  -4.625  24.486  0.00  0.00    +0.080 C 
BRANCH   7   8
ATOM      8  C   UNL     1       7.468  -4.888  23.558  0.00  0.00    +0.072 C 
BRANCH   8   9
ATOM      9  C   UNL     1       6.217  -4.032  23.845  0.00  0.00    +0.153 C 
BRANCH   9  10
ATOM     10  C   UNL     1       5.885  -3.110  22.646  0.00  0.00    +0.259 C 
ATOM     11  O   UNL     1       5.457  -3.531  21.575  0.00  0.00    -0.270 OA
ATOM     12  N   UNL     1       6.051  -1.764  22.828  0.00  0.00    -0.325 N 
ATOM     13  H   UNL     1       5.937  -1.177  22.006  0.00  0.00    +0.145 HD
ATOM     14  H   UNL     1       6.676  -1.374  23.541  0.00  0.00    +0.145 HD
ENDBRANCH   9  10
BRANCH   9  16
ATOM     15  C   UNL     1       4.920  -6.243  23.456  0.00  0.00    +0.192 C 
ATOM     16  N   UNL     1       4.986  -4.974  24.299  0.00  0.00    +0.246 N 
ATOM     17  C   UNL     1       5.222  -5.394  25.756  0.00  0.00    +0.192 C 
ATOM     18  C   UNL     1       3.633  -4.266  24.218  0.00  0.00    +0.192 C 
ENDBRANCH   9  16
ENDBRANCH   8   9
ENDBRANCH   7   8
ENDBRANCH   1   7
BRANCH   3  19
ATOM     19  C   UNL     1       9.988   0.134  24.455  0.00  0.00    +0.086 C 
BRANCH  19  20
ATOM     20  CA  UNL     1       9.160   0.992  23.489  0.00  0.00    +0.166 C 
BRANCH  20  21
ATOM     21  N   UNL     1       7.703   0.671  23.471  0.00  0.00    -0.318 NA
ATOM     22  H1  UNL     1       7.242   1.277  24.156  0.00  0.00    +0.119 HD
ATOM     23  H2  UNL     1       7.561  -0.267  23.860  0.00  0.00    +0.119 HD
ENDBRANCH  20  21
BRANCH  20  24
ATOM     24  C   UNL     1       9.712   0.868  22.061  0.00  0.00    +0.322 C 
ATOM     25  OXT UNL     1       9.888  -0.175  21.455  0.00  0.00    -0.249 OA
BRANCH  24  26
ATOM     26  O   UNL     1       9.948   2.088  21.512  0.00  0.00    -0.480 OA
ATOM     27  H   UNL     1       9.225   2.717  21.720  0.00  0.00    +0.295 HD
ENDBRANCH  24  26
ENDBRANCH  20  24
ENDBRANCH  19  20
ENDBRANCH   3  19
TORSDOF 10
ENDMDL
MODEL 9
REMARK VINA RESULT:      -5.7      1.704      2.220
REMARK  Name = 
REMARK  13 active torsions:
REMARK  status: ('A' for Active; 'I' for Inactive)
REMARK    1  A    between atoms: C_1  and  N_2
REMARK    2  A    between atoms: N_2  and  C_3
REMARK    3  A    between atoms: N_2  and  C_4
REMARK    4  A    between atoms: N_2  and  C_5
REMARK    5  A    between atoms: C_5  and  C_7
REMARK    6  A    between atoms: C_5  and  C_21
REMARK    7  A    between atoms: C_7  and  C_8
REMARK    8  A    between atoms: C_8  and  C_9
REMARK    9  A    between atoms: C_12  and  C_13
REMARK   10  A    between atoms: C_13  and  CA_14
REMARK   11  A    between atoms: CA_14  and  N_16
REMARK   12  A    between atoms: CA_14  and  C_17
REMARK   13  A    between atoms: C_17  and  O_18
REMARK                            x       y       z     vdW  Elec       q    Type
REMARK                         _______ _______ _______ _____ _____    ______ ____
ROOT
ATOM      1  C   UNL     1       8.919  -2.340  24.761  0.00  0.00    +0.108 A 
ATOM      2  N   UNL     1       9.483  -1.373  24.063  0.00  0.00    -0.237 NA
ATOM      3  C   UNL     1       9.688  -0.340  24.953  0.00  0.00    +0.061 A 
ATOM      4  C   UNL     1       9.059  -0.624  26.148  0.00  0.00    +0.107 A 
ATOM      5  N   UNL     1       8.600  -1.905  26.023  0.00  0.00    -0.348 N 
ATOM      6  H   UNL     1       8.162  -2.452  26.755  0.00  0.00    +0.166 HD
ENDROOT
BRANCH   1   7
ATOM      7  C   UNL     1       8.640  -3.716  24.272  0.00  0.00    +0.080 C 
BRANCH   7   8
ATOM      8  C   UNL     1       7.151  -4.071  24.285  0.00  0.00    +0.072 C 
BRANCH   8   9
ATOM      9  C   UNL     1       6.781  -5.289  25.155  0.00  0.00    +0.153 C 
BRANCH   9  10
ATOM     10  C   UNL     1       7.158  -5.049  26.639  0.00  0.00    +0.259 C 
ATOM     11  O   UNL     1       6.744  -4.094  27.290  0.00  0.00    -0.270 OA
ATOM     12  N   UNL     1       7.961  -5.981  27.238  0.00  0.00    -0.325 N 
ATOM     13  H   UNL     1       8.292  -5.761  28.174  0.00  0.00    +0.145 HD
ATOM     14  H   UNL     1       8.580  -6.602  26.707  0.00  0.00    +0.145 HD
ENDBRANCH   9  10
BRANCH   9  16
ATOM     15  C   UNL     1       4.334  -4.452  24.984  0.00  0.00    +0.192 C 
ATOM     16  N   UNL     1       5.231  -5.684  24.936  0.00  0.00    +0.246 N 
ATOM     17  C   UNL     1       5.093  -6.308  23.541  0.00  0.00    +0.192 C 
ATOM     18  C   UNL     1       4.723  -6.696  25.965  0.00  0.00    +0.192 C 
ENDBRANCH   9  16
ENDBRANCH   8   9
ENDBRANCH   7   8
ENDBRANCH   1   7
BRANCH   3  19
ATOM     19  C   UNL     1      10.560   0.825  24.611  0.00  0.00    +0.086 C 
BRANCH  19  20
ATOM     20  CA  UNL     1       9.794   2.063  24.127  0.00  0.00    +0.166 C 
BRANCH  20  21
ATOM     21  N   UNL     1       8.446   1.773  23.559  0.00  0.00    -0.318 NA
ATOM     22  H1  UNL     1       7.818   2.530  23.843  0.00  0.00    +0.119 HD
ATOM     23  H2  UNL     1       8.050   0.954  24.033  0.00  0.00    +0.119 HD
ENDBRANCH  20  21
BRANCH  20  24
ATOM     24  C   UNL     1      10.621   2.824  23.080  0.00  0.00    +0.322 C 
ATOM     25  OXT UNL     1      11.450   3.685  23.317  0.00  0.00    -0.249 OA
BRANCH  24  26
ATOM     26  O   UNL     1      10.351   2.387  21.822  0.00  0.00    -0.480 OA
ATOM     27  H   UNL     1       9.765   1.601  21.837  0.00  0.00    +0.295 HD
ENDBRANCH  24  26
ENDBRANCH  20  24
ENDBRANCH  19  20
ENDBRANCH   3  19
TORSDOF 10
ENDMDL
