MODEL 1
REMARK VINA RESULT:      -6.8      0.000      0.000
REMARK  Name = 
REMARK  14 active torsions:
REMARK  status: ('A' for Active; 'I' for Inactive)
REMARK    1  A    between atoms: CA_2  and  CB_3
REMARK    2  A    between atoms: CA_2  and  N_7
REMARK    3  A    between atoms: CA_2  and  C_35
REMARK    4  A    between atoms: CB_3  and  CG_4
REMARK    5  A    between atoms: CG_4  and  OD1_5
REMARK    6  A    between atoms: C_8  and  C_10
REMARK    7  A    between atoms: C_10  and  C_12
REMARK    8  A    between atoms: C_10  and  C_30
REMARK    9  A    between atoms: C_12  and  C_13
REMARK   10  A    between atoms: C_13  and  C_14
REMARK   11  A    between atoms: C_14  and  C_15
REMARK   12  A    between atoms: C_15  and  N_16
REMARK   13  A    between atoms: C_17  and  C_19
REMARK   14  A    between atoms: C_26  and  O_27
REMARK                            x       y       z     vdW  Elec       q    Type
REMARK                         _______ _______ _______ _____ _____    ______ ____
ROOT
ATOM      1  C   UNK A   0       5.043  -6.295  23.134  0.00  0.00    +0.018 C 
ENDROOT
BRANCH   1   2
ATOM      2  C   UNK A   0       3.659  -5.658  23.365  0.00  0.00    +0.112 C 
BRANCH   2   3
ATOM      3  C   UNK A   0       2.563  -6.692  23.399  0.00  0.00    +0.002 A 
ATOM      4  S   UNK A   0       2.538  -7.841  24.679  0.00  0.00    -0.101 S 
ATOM      5  C   UNK A   0       1.049  -8.491  24.154  0.00  0.00    +0.045 A 
ATOM      6  C   UNK A   0       0.597  -7.884  23.006  0.00  0.00    +0.008 A 
ATOM      7  C   UNK A   0       1.476  -6.854  22.563  0.00  0.00    +0.012 A 
ENDBRANCH   2   3
BRANCH   2  10
ATOM      8  N   ASP A   1       4.849  -4.661  25.276  0.00  0.00    -0.305 N 
ATOM      9  H   ASP A   1       5.666  -4.765  24.675  0.00  0.00    +0.149 HD
ATOM     10  C   UNK A   0       3.634  -4.772  24.619  0.00  0.00    +0.221 C 
ATOM     11  O   UNK A   0       2.632  -4.228  25.072  0.00  0.00    -0.275 OA
BRANCH   8  12
ATOM     12  CA  ASP A   1       4.992  -3.706  26.380  0.00  0.00    +0.146 C 
BRANCH  12  13
ATOM     13  C   ASP A   1       5.637  -2.444  25.828  0.00  0.00    +0.246 C 
ATOM     14  O   ASP A   1       5.702  -2.191  24.627  0.00  0.00    -0.299 OA
ENDBRANCH  12  13
BRANCH  12  15
ATOM     15  CB  ASP A   1       5.863  -4.256  27.496  0.00  0.00    +0.150 C 
BRANCH  15  16
ATOM     16  CG  ASP A   1       6.537  -5.581  27.239  0.00  0.00    +0.307 C 
ATOM     17  OD2 ASP A   1       5.887  -6.596  27.017  0.00  0.00    -0.251 OA
BRANCH  16  18
ATOM     18  OD1 ASP A   1       7.881  -5.612  27.282  0.00  0.00    -0.481 OA
ATOM     19  HD1 ASP A   1       8.312  -6.383  26.863  0.00  0.00    +0.295 HD
ENDBRANCH  16  18
ENDBRANCH  15  16
ENDBRANCH  12  15
ENDBRANCH   8  12
ENDBRANCH   2  10
ENDBRANCH   1   2
BRANCH   1  20
ATOM     20  C   UNK A   0       5.705  -6.013  21.776  0.00  0.00    +0.003 C 
BRANCH  20  21
ATOM     21  C   UNK A   0       7.215  -5.788  21.882  0.00  0.00    +0.019 C 
BRANCH  21  22
ATOM     22  C   UNK A   0       7.664  -5.496  23.311  0.00  0.00    +0.104 C 
BRANCH  22  23
ATOM     23  N   UNK A   0       7.985  -4.105  23.502  0.00  0.00    -0.310 N 
ATOM     24  H   UNK A   0       7.561  -3.383  22.925  0.00  0.00    +0.149 HD
ATOM     25  C   UNK A   0       8.913  -3.689  24.425  0.00  0.00    +0.262 C 
ATOM     26  O   UNK A   0       9.540  -4.438  25.164  0.00  0.00    -0.269 OA
BRANCH  25  27
ATOM     27  C   UNK A   0       9.128  -2.209  24.452  0.00  0.00    +0.126 A 
ATOM     28  C   UNK A   0       9.194  -1.553  25.667  0.00  0.00    +0.033 A 
ATOM     29  C   UNK A   0       9.442  -0.189  25.649  0.00  0.00    +0.012 A 
ATOM     30  C   UNK A   0       9.620   0.473  24.427  0.00  0.00    +0.004 A 
ATOM     31  C   UNK A   0       9.912   1.845  24.398  0.00  0.00    +0.010 A 
ATOM     32  C   UNK A   0      10.104   2.503  23.185  0.00  0.00    +0.004 A 
ATOM     33  C   UNK A   0       9.982   1.799  21.993  0.00  0.00    +0.047 A 
ATOM     34  C   UNK A   0       9.678   0.434  22.025  0.00  0.00    +0.143 A 
ATOM     35  C   UNK A   0       9.511  -0.269  23.226  0.00  0.00    +0.113 A 
ATOM     36  N   UNK A   0       9.263  -1.597  23.242  0.00  0.00    -0.238 NA
BRANCH  34  37
ATOM     37  O   UNK A   0       9.541  -0.242  20.833  0.00  0.00    -0.505 OA
ATOM     38  H   UNK A   0       9.030   0.305  20.216  0.00  0.00    +0.292 HD
ENDBRANCH  34  37
ENDBRANCH  25  27
ENDBRANCH  22  23
ENDBRANCH  21  22
ENDBRANCH  20  21
ENDBRANCH   1  20
TORSDOF 14
ENDMDL
MODEL 2
REMARK VINA RESULT:      -6.8      3.533      8.484
REMARK  Name = 
REMARK  14 active torsions:
REMARK  status: ('A' for Active; 'I' for Inactive)
REMARK    1  A    between atoms: CA_2  and  CB_3
REMARK    2  A    between atoms: CA_2  and  N_7
REMARK    3  A    between atoms: CA_2  and  C_35
REMARK    4  A    between atoms: CB_3  and  CG_4
REMARK    5  A    between atoms: CG_4  and  OD1_5
REMARK    6  A    between atoms: C_8  and  C_10
REMARK    7  A    between atoms: C_10  and  C_12
REMARK    8  A    between atoms: C_10  and  C_30
REMARK    9  A    between atoms: C_12  and  C_13
REMARK   10  A    between atoms: C_13  and  C_14
REMARK   11  A    between atoms: C_14  and  C_15
REMARK   12  A    between atoms: C_15  and  N_16
REMARK   13  A    between atoms: C_17  and  C_19
REMARK   14  A    between atoms: C_26  and  O_27
REMARK                            x       y       z     vdW  Elec       q    Type
REMARK                         _______ _______ _______ _____ _____    ______ ____
ROOT
ATOM      1  C   UNK A   0       8.584   2.083  22.339  0.00  0.00    +0.018 C 
ENDROOT
BRANCH   1   2
ATOM      2  C   UNK A   0       8.767   3.057  23.519  0.00  0.00    +0.112 C 
BRANCH   2   3
ATOM      3  C   UNK A   0       8.299   4.448  23.177  0.00  0.00    +0.002 A 
ATOM      4  S   UNK A   0       9.154   5.798  23.815  0.00  0.00    -0.101 S 
ATOM      5  C   UNK A   0       8.207   6.903  22.924  0.00  0.00    +0.045 A 
ATOM      6  C   UNK A   0       7.230   6.271  22.188  0.00  0.00    +0.008 A 
ATOM      7  C   UNK A   0       7.275   4.855  22.343  0.00  0.00    +0.012 A 
ENDBRANCH   2   3
BRANCH   2  10
ATOM      8  N   ASP A   1       7.731   1.206  24.767  0.00  0.00    -0.305 N 
ATOM      9  H   ASP A   1       8.302   0.624  24.155  0.00  0.00    +0.149 HD
ATOM     10  C   UNK A   0       8.101   2.540  24.802  0.00  0.00    +0.221 C 
ATOM     11  O   UNK A   0       7.849   3.228  25.786  0.00  0.00    -0.275 OA
BRANCH   8  12
ATOM     12  CA  ASP A   1       7.249   0.554  25.990  0.00  0.00    +0.146 C 
BRANCH  12  13
ATOM     13  C   ASP A   1       8.205  -0.581  26.325  0.00  0.00    +0.246 C 
ATOM     14  O   ASP A   1       9.376  -0.608  25.951  0.00  0.00    -0.299 OA
ENDBRANCH  12  13
BRANCH  12  15
ATOM     15  CB  ASP A   1       5.851  -0.015  25.816  0.00  0.00    +0.150 C 
BRANCH  15  16
ATOM     16  CG  ASP A   1       5.669  -1.046  24.730  0.00  0.00    +0.307 C 
ATOM     17  OD2 ASP A   1       5.075  -2.097  24.940  0.00  0.00    -0.251 OA
BRANCH  16  18
ATOM     18  OD1 ASP A   1       6.201  -0.778  23.524  0.00  0.00    -0.481 OA
ATOM     19  HD1 ASP A   1       5.946   0.072  23.116  0.00  0.00    +0.295 HD
ENDBRANCH  16  18
ENDBRANCH  15  16
ENDBRANCH  12  15
ENDBRANCH   8  12
ENDBRANCH   2  10
ENDBRANCH   1   2
BRANCH   1  20
ATOM     20  C   UNK A   0       9.838   1.318  21.885  0.00  0.00    +0.003 C 
BRANCH  20  21
ATOM     21  C   UNK A   0       9.551  -0.143  21.532  0.00  0.00    +0.019 C 
BRANCH  21  22
ATOM     22  C   UNK A   0       9.954  -1.103  22.648  0.00  0.00    +0.104 C 
BRANCH  22  23
ATOM     23  N   UNK A   0       8.899  -2.029  22.969  0.00  0.00    -0.310 N 
ATOM     24  H   UNK A   0       7.940  -1.855  22.681  0.00  0.00    +0.149 HD
ATOM     25  C   UNK A   0       9.119  -3.157  23.722  0.00  0.00    +0.262 C 
ATOM     26  O   UNK A   0      10.208  -3.483  24.179  0.00  0.00    -0.269 OA
BRANCH  25  27
ATOM     27  C   UNK A   0       7.893  -3.975  23.971  0.00  0.00    +0.126 A 
ATOM     28  C   UNK A   0       7.059  -4.290  22.915  0.00  0.00    +0.033 A 
ATOM     29  C   UNK A   0       5.958  -5.090  23.180  0.00  0.00    +0.012 A 
ATOM     30  C   UNK A   0       5.728  -5.552  24.482  0.00  0.00    +0.004 A 
ATOM     31  C   UNK A   0       4.641  -6.396  24.755  0.00  0.00    +0.010 A 
ATOM     32  C   UNK A   0       4.418  -6.870  26.046  0.00  0.00    +0.004 A 
ATOM     33  C   UNK A   0       5.267  -6.485  27.077  0.00  0.00    +0.047 A 
ATOM     34  C   UNK A   0       6.342  -5.632  26.804  0.00  0.00    +0.143 A 
ATOM     35  C   UNK A   0       6.617  -5.163  25.513  0.00  0.00    +0.113 A 
ATOM     36  N   UNK A   0       7.686  -4.378  25.256  0.00  0.00    -0.238 NA
BRANCH  34  37
ATOM     37  O   UNK A   0       7.160  -5.245  27.842  0.00  0.00    -0.505 OA
ATOM     38  H   UNK A   0       6.836  -5.644  28.666  0.00  0.00    +0.292 HD
ENDBRANCH  34  37
ENDBRANCH  25  27
ENDBRANCH  22  23
ENDBRANCH  21  22
ENDBRANCH  20  21
ENDBRANCH   1  20
TORSDOF 14
ENDMDL
MODEL 3
REMARK VINA RESULT:      -6.8      3.585      8.980
REMARK  Name = 
REMARK  14 active torsions:
REMARK  status: ('A' for Active; 'I' for Inactive)
REMARK    1  A    between atoms: CA_2  and  CB_3
REMARK    2  A    between atoms: CA_2  and  N_7
REMARK    3  A    between atoms: CA_2  and  C_35
REMARK    4  A    between atoms: CB_3  and  CG_4
REMARK    5  A    between atoms: CG_4  and  OD1_5
REMARK    6  A    between atoms: C_8  and  C_10
REMARK    7  A    between atoms: C_10  and  C_12
REMARK    8  A    between atoms: C_10  and  C_30
REMARK    9  A    between atoms: C_12  and  C_13
REMARK   10  A    between atoms: C_13  and  C_14
REMARK   11  A    between atoms: C_14  and  C_15
REMARK   12  A    between atoms: C_15  and  N_16
REMARK   13  A    between atoms: C_17  and  C_19
REMARK   14  A    between atoms: C_26  and  O_27
REMARK                            x       y       z     vdW  Elec       q    Type
REMARK                         _______ _______ _______ _____ _____    ______ ____
ROOT
ATOM      1  C   UNK A   0      10.147   1.700  23.375  0.00  0.00    +0.018 C 
ENDROOT
BRANCH   1   2
ATOM      2  C   UNK A   0       8.787   1.885  24.075  0.00  0.00    +0.112 C 
BRANCH   2   3
ATOM      3  C   UNK A   0       8.521   0.798  25.085  0.00  0.00    +0.002 A 
ATOM      4  S   UNK A   0       6.897   0.319  25.388  0.00  0.00    -0.101 S 
ATOM      5  C   UNK A   0       7.394  -0.946  26.422  0.00  0.00    +0.045 A 
ATOM      6  C   UNK A   0       8.762  -0.981  26.574  0.00  0.00    +0.008 A 
ATOM      7  C   UNK A   0       9.412   0.032  25.812  0.00  0.00    +0.012 A 
ENDBRANCH   2   3
BRANCH   2  10
ATOM      8  N   ASP A   1       9.392   4.271  24.086  0.00  0.00    -0.305 N 
ATOM      9  H   ASP A   1       9.568   4.114  23.093  0.00  0.00    +0.149 HD
ATOM     10  C   UNK A   0       8.646   3.280  24.702  0.00  0.00    +0.221 C 
ATOM     11  O   UNK A   0       7.979   3.535  25.699  0.00  0.00    -0.275 OA
BRANCH   8  12
ATOM     12  CA  ASP A   1       9.206   5.672  24.481  0.00  0.00    +0.146 C 
BRANCH  12  13
ATOM     13  C   ASP A   1       8.678   6.433  23.275  0.00  0.00    +0.246 C 
ATOM     14  O   ASP A   1       7.507   6.380  22.904  0.00  0.00    -0.299 OA
ENDBRANCH  12  13
BRANCH  12  15
ATOM     15  CB  ASP A   1      10.507   6.310  24.936  0.00  0.00    +0.150 C 
BRANCH  15  16
ATOM     16  CG  ASP A   1      11.733   6.014  24.109  0.00  0.00    +0.307 C 
ATOM     17  OD2 ASP A   1      11.646   5.520  22.991  0.00  0.00    -0.251 OA
BRANCH  16  18
ATOM     18  OD1 ASP A   1      12.931   6.297  24.652  0.00  0.00    -0.481 OA
ATOM     19  HD1 ASP A   1      13.397   5.556  25.086  0.00  0.00    +0.295 HD
ENDBRANCH  16  18
ENDBRANCH  15  16
ENDBRANCH  12  15
ENDBRANCH   8  12
ENDBRANCH   2  10
ENDBRANCH   1   2
BRANCH   1  20
ATOM     20  C   UNK A   0      10.104   1.416  21.865  0.00  0.00    +0.003 C 
BRANCH  20  21
ATOM     21  C   UNK A   0       9.266   0.185  21.513  0.00  0.00    +0.019 C 
BRANCH  21  22
ATOM     22  C   UNK A   0       9.857  -1.105  22.074  0.00  0.00    +0.104 C 
BRANCH  22  23
ATOM     23  N   UNK A   0       8.834  -2.035  22.477  0.00  0.00    -0.310 N 
ATOM     24  H   UNK A   0       7.900  -1.996  22.078  0.00  0.00    +0.149 HD
ATOM     25  C   UNK A   0       9.048  -2.980  23.452  0.00  0.00    +0.262 C 
ATOM     26  O   UNK A   0      10.103  -3.126  24.056  0.00  0.00    -0.269 OA
BRANCH  25  27
ATOM     27  C   UNK A   0       7.856  -3.832  23.749  0.00  0.00    +0.126 A 
ATOM     28  C   UNK A   0       6.997  -4.182  22.723  0.00  0.00    +0.033 A 
ATOM     29  C   UNK A   0       5.931  -5.013  23.031  0.00  0.00    +0.012 A 
ATOM     30  C   UNK A   0       5.758  -5.470  24.344  0.00  0.00    +0.004 A 
ATOM     31  C   UNK A   0       4.707  -6.344  24.660  0.00  0.00    +0.010 A 
ATOM     32  C   UNK A   0       4.541  -6.812  25.962  0.00  0.00    +0.004 A 
ATOM     33  C   UNK A   0       5.411  -6.392  26.960  0.00  0.00    +0.047 A 
ATOM     34  C   UNK A   0       6.451  -5.510  26.645  0.00  0.00    +0.143 A 
ATOM     35  C   UNK A   0       6.668  -5.044  25.341  0.00  0.00    +0.113 A 
ATOM     36  N   UNK A   0       7.704  -4.230  25.043  0.00  0.00    -0.238 NA
BRANCH  34  37
ATOM     37  O   UNK A   0       7.290  -5.089  27.652  0.00  0.00    -0.505 OA
ATOM     38  H   UNK A   0       6.783  -4.554  28.284  0.00  0.00    +0.292 HD
ENDBRANCH  34  37
ENDBRANCH  25  27
ENDBRANCH  22  23
ENDBRANCH  21  22
ENDBRANCH  20  21
ENDBRANCH   1  20
TORSDOF 14
ENDMDL
MODEL 4
REMARK VINA RESULT:      -6.7      3.500      6.466
REMARK  Name = 
REMARK  14 active torsions:
REMARK  status: ('A' for Active; 'I' for Inactive)
REMARK    1  A    between atoms: CA_2  and  CB_3
REMARK    2  A    between atoms: CA_2  and  N_7
REMARK    3  A    between atoms: CA_2  and  C_35
REMARK    4  A    between atoms: CB_3  and  CG_4
REMARK    5  A    between atoms: CG_4  and  OD1_5
REMARK    6  A    between atoms: C_8  and  C_10
REMARK    7  A    between atoms: C_10  and  C_12
REMARK    8  A    between atoms: C_10  and  C_30
REMARK    9  A    between atoms: C_12  and  C_13
REMARK   10  A    between atoms: C_13  and  C_14
REMARK   11  A    between atoms: C_14  and  C_15
REMARK   12  A    between atoms: C_15  and  N_16
REMARK   13  A    between atoms: C_17  and  C_19
REMARK   14  A    between atoms: C_26  and  O_27
REMARK                            x       y       z     vdW  Elec       q    Type
REMARK                         _______ _______ _______ _____ _____    ______ ____
ROOT
ATOM      1  C   UNK A   0       6.404  -2.121  24.690  0.00  0.00    +0.018 C 
ENDROOT
BRANCH   1   2
ATOM      2  C   UNK A   0       7.450  -3.201  24.354  0.00  0.00    +0.112 C 
BRANCH   2   3
ATOM      3  C   UNK A   0       6.931  -4.193  23.346  0.00  0.00    +0.002 A 
ATOM      4  S   UNK A   0       6.289  -3.615  21.858  0.00  0.00    -0.101 S 
ATOM      5  C   UNK A   0       6.089  -5.199  21.253  0.00  0.00    +0.045 A 
ATOM      6  C   UNK A   0       6.457  -6.154  22.173  0.00  0.00    +0.008 A 
ATOM      7  C   UNK A   0       6.932  -5.574  23.385  0.00  0.00    +0.012 A 
ENDBRANCH   2   3
BRANCH   2  10
ATOM      8  N   ASP A   1       8.690  -1.315  23.373  0.00  0.00    -0.305 N 
ATOM      9  H   ASP A   1       7.910  -0.764  23.731  0.00  0.00    +0.149 HD
ATOM     10  C   UNK A   0       8.785  -2.590  23.904  0.00  0.00    +0.221 C 
ATOM     11  O   UNK A   0       9.868  -3.166  23.944  0.00  0.00    -0.275 OA
BRANCH   8  12
ATOM     12  CA  ASP A   1       9.912  -0.560  23.071  0.00  0.00    +0.146 C 
BRANCH  12  13
ATOM     13  C   ASP A   1      10.246   0.295  24.284  0.00  0.00    +0.246 C 
ATOM     14  O   ASP A   1      11.196   1.074  24.317  0.00  0.00    -0.299 OA
ENDBRANCH  12  13
BRANCH  12  15
ATOM     15  CB  ASP A   1       9.736   0.344  21.864  0.00  0.00    +0.150 C 
BRANCH  15  16
ATOM     16  CG  ASP A   1       8.590   1.324  21.911  0.00  0.00    +0.307 C 
ATOM     17  OD2 ASP A   1       7.457   0.968  22.213  0.00  0.00    -0.251 OA
BRANCH  16  18
ATOM     18  OD1 ASP A   1       8.854   2.604  21.591  0.00  0.00    -0.481 OA
ATOM     19  HD1 ASP A   1       8.458   3.286  22.168  0.00  0.00    +0.295 HD
ENDBRANCH  16  18
ENDBRANCH  15  16
ENDBRANCH  12  15
ENDBRANCH   8  12
ENDBRANCH   2  10
ENDBRANCH   1   2
BRANCH   1  20
ATOM     20  C   UNK A   0       6.254  -1.756  26.176  0.00  0.00    +0.003 C 
BRANCH  20  21
ATOM     21  C   UNK A   0       6.591  -0.292  26.468  0.00  0.00    +0.019 C 
BRANCH  21  22
ATOM     22  C   UNK A   0       6.320   0.619  25.275  0.00  0.00    +0.104 C 
BRANCH  22  23
ATOM     23  N   UNK A   0       7.189   1.768  25.267  0.00  0.00    -0.310 N 
ATOM     24  H   UNK A   0       8.187   1.674  25.436  0.00  0.00    +0.149 HD
ATOM     25  C   UNK A   0       6.713   3.044  25.085  0.00  0.00    +0.262 C 
ATOM     26  O   UNK A   0       5.534   3.326  24.912  0.00  0.00    -0.269 OA
BRANCH  25  27
ATOM     27  C   UNK A   0       7.768   4.103  25.137  0.00  0.00    +0.126 A 
ATOM     28  C   UNK A   0       7.590   5.201  25.957  0.00  0.00    +0.033 A 
ATOM     29  C   UNK A   0       8.612   6.136  26.013  0.00  0.00    +0.012 A 
ATOM     30  C   UNK A   0       9.776   5.943  25.257  0.00  0.00    +0.004 A 
ATOM     31  C   UNK A   0      10.835   6.861  25.337  0.00  0.00    +0.010 A 
ATOM     32  C   UNK A   0      12.000   6.665  24.599  0.00  0.00    +0.004 A 
ATOM     33  C   UNK A   0      12.105   5.563  23.758  0.00  0.00    +0.047 A 
ATOM     34  C   UNK A   0      11.042   4.657  23.670  0.00  0.00    +0.143 A 
ATOM     35  C   UNK A   0       9.869   4.803  24.423  0.00  0.00    +0.113 A 
ATOM     36  N   UNK A   0       8.871   3.895  24.363  0.00  0.00    -0.238 NA
BRANCH  34  37
ATOM     37  O   UNK A   0      11.157   3.583  22.817  0.00  0.00    -0.505 OA
ATOM     38  H   UNK A   0      11.332   2.782  23.337  0.00  0.00    +0.292 HD
ENDBRANCH  34  37
ENDBRANCH  25  27
ENDBRANCH  22  23
ENDBRANCH  21  22
ENDBRANCH  20  21
ENDBRANCH   1  20
TORSDOF 14
ENDMDL
MODEL 5
REMARK VINA RESULT:      -6.7      3.801      8.281
REMARK  Name = 
REMARK  14 active torsions:
REMARK  status: ('A' for Active; 'I' for Inactive)
REMARK    1  A    between atoms: CA_2  and  CB_3
REMARK    2  A    between atoms: CA_2  and  N_7
REMARK    3  A    between atoms: CA_2  and  C_35
REMARK    4  A    between atoms: CB_3  and  CG_4
REMARK    5  A    between atoms: CG_4  and  OD1_5
REMARK    6  A    between atoms: C_8  and  C_10
REMARK    7  A    between atoms: C_10  and  C_12
REMARK    8  A    between atoms: C_10  and  C_30
REMARK    9  A    between atoms: C_12  and  C_13
REMARK   10  A    between atoms: C_13  and  C_14
REMARK   11  A    between atoms: C_14  and  C_15
REMARK   12  A    between atoms: C_15  and  N_16
REMARK   13  A    between atoms: C_17  and  C_19
REMARK   14  A    between atoms: C_26  and  O_27
REMARK                            x       y       z     vdW  Elec       q    Type
REMARK                         _______ _______ _______ _____ _____    ______ ____
ROOT
ATOM      1  C   UNK A   0      10.275   1.541  23.682  0.00  0.00    +0.018 C 
ENDROOT
BRANCH   1   2
ATOM      2  C   UNK A   0       9.244   2.219  24.605  0.00  0.00    +0.112 C 
BRANCH   2   3
ATOM      3  C   UNK A   0       8.584   3.399  23.940  0.00  0.00    +0.002 A 
ATOM      4  S   UNK A   0       9.356   4.935  24.005  0.00  0.00    -0.101 S 
ATOM      5  C   UNK A   0       8.186   5.640  22.982  0.00  0.00    +0.045 A 
ATOM      6  C   UNK A   0       7.201   4.746  22.630  0.00  0.00    +0.008 A 
ATOM      7  C   UNK A   0       7.424   3.456  23.192  0.00  0.00    +0.012 A 
ENDBRANCH   2   3
BRANCH   2  10
ATOM      8  N   ASP A   1       7.597   1.598  26.325  0.00  0.00    -0.305 N 
ATOM      9  H   ASP A   1       7.538   2.606  26.470  0.00  0.00    +0.149 HD
ATOM     10  C   UNK A   0       8.206   1.222  25.139  0.00  0.00    +0.221 C 
ATOM     11  O   UNK A   0       7.939   0.143  24.621  0.00  0.00    -0.275 OA
BRANCH   8  12
ATOM     12  CA  ASP A   1       6.466   0.818  26.840  0.00  0.00    +0.146 C 
BRANCH  12  13
ATOM     13  C   ASP A   1       5.184   1.458  26.332  0.00  0.00    +0.246 C 
ATOM     14  O   ASP A   1       4.612   1.097  25.305  0.00  0.00    -0.299 OA
ENDBRANCH  12  13
BRANCH  12  15
ATOM     15  CB  ASP A   1       6.437   0.796  28.359  0.00  0.00    +0.150 C 
BRANCH  15  16
ATOM     16  CG  ASP A   1       7.453   1.657  29.069  0.00  0.00    +0.307 C 
ATOM     17  OD2 ASP A   1       7.391   2.880  29.032  0.00  0.00    -0.251 OA
BRANCH  16  18
ATOM     18  OD1 ASP A   1       8.442   1.031  29.730  0.00  0.00    -0.481 OA
ATOM     19  HD1 ASP A   1       8.844   0.260  29.284  0.00  0.00    +0.295 HD
ENDBRANCH  16  18
ENDBRANCH  15  16
ENDBRANCH  12  15
ENDBRANCH   8  12
ENDBRANCH   2  10
ENDBRANCH   1   2
BRANCH   1  20
ATOM     20  C   UNK A   0      10.054   1.713  22.170  0.00  0.00    +0.003 C 
BRANCH  20  21
ATOM     21  C   UNK A   0       9.296   0.542  21.541  0.00  0.00    +0.019 C 
BRANCH  21  22
ATOM     22  C   UNK A   0       9.912  -0.809  21.893  0.00  0.00    +0.104 C 
BRANCH  22  23
ATOM     23  N   UNK A   0       8.914  -1.769  22.291  0.00  0.00    -0.310 N 
ATOM     24  H   UNK A   0       7.970  -1.734  21.914  0.00  0.00    +0.149 HD
ATOM     25  C   UNK A   0       9.164  -2.738  23.232  0.00  0.00    +0.262 C 
ATOM     26  O   UNK A   0      10.235  -2.883  23.809  0.00  0.00    -0.269 OA
BRANCH  25  27
ATOM     27  C   UNK A   0       7.993  -3.619  23.529  0.00  0.00    +0.126 A 
ATOM     28  C   UNK A   0       7.143  -3.989  22.504  0.00  0.00    +0.033 A 
ATOM     29  C   UNK A   0       6.098  -4.846  22.812  0.00  0.00    +0.012 A 
ATOM     30  C   UNK A   0       5.937  -5.307  24.125  0.00  0.00    +0.004 A 
ATOM     31  C   UNK A   0       4.907  -6.206  24.442  0.00  0.00    +0.010 A 
ATOM     32  C   UNK A   0       4.753  -6.678  25.743  0.00  0.00    +0.004 A 
ATOM     33  C   UNK A   0       5.613  -6.237  26.742  0.00  0.00    +0.047 A 
ATOM     34  C   UNK A   0       6.631  -5.330  26.426  0.00  0.00    +0.143 A 
ATOM     35  C   UNK A   0       6.837  -4.859  25.122  0.00  0.00    +0.113 A 
ATOM     36  N   UNK A   0       7.852  -4.020  24.824  0.00  0.00    -0.238 NA
BRANCH  34  37
ATOM     37  O   UNK A   0       7.460  -4.889  27.433  0.00  0.00    -0.505 OA
ATOM     38  H   UNK A   0       7.336  -5.450  28.214  0.00  0.00    +0.292 HD
ENDBRANCH  34  37
ENDBRANCH  25  27
ENDBRANCH  22  23
ENDBRANCH  21  22
ENDBRANCH  20  21
ENDBRANCH   1  20
TORSDOF 14
ENDMDL
MODEL 6
REMARK VINA RESULT:      -6.6      4.083      9.055
REMARK  Name = 
REMARK  14 active torsions:
REMARK  status: ('A' for Active; 'I' for Inactive)
REMARK    1  A    between atoms: CA_2  and  CB_3
REMARK    2  A    between atoms: CA_2  and  N_7
REMARK    3  A    between atoms: CA_2  and  C_35
REMARK    4  A    between atoms: CB_3  and  CG_4
REMARK    5  A    between atoms: CG_4  and  OD1_5
REMARK    6  A    between atoms: C_8  and  C_10
REMARK    7  A    between atoms: C_10  and  C_12
REMARK    8  A    between atoms: C_10  and  C_30
REMARK    9  A    between atoms: C_12  and  C_13
REMARK   10  A    between atoms: C_13  and  C_14
REMARK   11  A    between atoms: C_14  and  C_15
REMARK   12  A    between atoms: C_15  and  N_16
REMARK   13  A    between atoms: C_17  and  C_19
REMARK   14  A    between atoms: C_26  and  O_27
REMARK                            x       y       z     vdW  Elec       q    Type
REMARK                         _______ _______ _______ _____ _____    ______ ____
ROOT
ATOM      1  C   UNK A   0       8.192   2.069  21.870  0.00  0.00    +0.018 C 
ENDROOT
BRANCH   1   2
ATOM      2  C   UNK A   0       7.802   3.454  22.422  0.00  0.00    +0.112 C 
BRANCH   2   3
ATOM      3  C   UNK A   0       6.371   3.490  22.892  0.00  0.00    +0.002 A 
ATOM      4  S   UNK A   0       5.720   2.115  23.695  0.00  0.00    -0.101 S 
ATOM      5  C   UNK A   0       4.253   2.922  24.028  0.00  0.00    +0.045 A 
ATOM      6  C   UNK A   0       4.233   4.194  23.504  0.00  0.00    +0.008 A 
ATOM      7  C   UNK A   0       5.450   4.519  22.839  0.00  0.00    +0.012 A 
ENDBRANCH   2   3
BRANCH   2  10
ATOM      8  N   ASP A   1       9.492   5.066  23.202  0.00  0.00    -0.305 N 
ATOM      9  H   ASP A   1       9.029   5.695  22.547  0.00  0.00    +0.149 HD
ATOM     10  C   UNK A   0       8.765   3.930  23.520  0.00  0.00    +0.221 C 
ATOM     11  O   UNK A   0       8.950   3.354  24.587  0.00  0.00    -0.275 OA
BRANCH   8  12
ATOM     12  CA  ASP A   1      10.311   5.715  24.232  0.00  0.00    +0.146 C 
BRANCH  12  13
ATOM     13  C   ASP A   1       9.630   7.019  24.619  0.00  0.00    +0.246 C 
ATOM     14  O   ASP A   1       8.468   7.081  25.016  0.00  0.00    -0.299 OA
ENDBRANCH  12  13
BRANCH  12  15
ATOM     15  CB  ASP A   1      11.713   6.020  23.733  0.00  0.00    +0.150 C 
BRANCH  15  16
ATOM     16  CG  ASP A   1      12.591   4.836  23.415  0.00  0.00    +0.307 C 
ATOM     17  OD2 ASP A   1      12.137   3.699  23.363  0.00  0.00    -0.251 OA
BRANCH  16  18
ATOM     18  OD1 ASP A   1      13.899   5.072  23.208  0.00  0.00    -0.481 OA
ATOM     19  HD1 ASP A   1      14.387   4.397  22.697  0.00  0.00    +0.295 HD
ENDBRANCH  16  18
ENDBRANCH  15  16
ENDBRANCH  12  15
ENDBRANCH   8  12
ENDBRANCH   2  10
ENDBRANCH   1   2
BRANCH   1  20
ATOM     20  C   UNK A   0       9.697   1.761  21.803  0.00  0.00    +0.003 C 
BRANCH  20  21
ATOM     21  C   UNK A   0      10.020   0.297  22.111  0.00  0.00    +0.019 C 
BRANCH  21  22
ATOM     22  C   UNK A   0       9.973  -0.011  23.604  0.00  0.00    +0.104 C 
BRANCH  22  23
ATOM     23  N   UNK A   0       9.099  -1.118  23.898  0.00  0.00    -0.310 N 
ATOM     24  H   UNK A   0       8.170  -0.967  24.282  0.00  0.00    +0.149 HD
ATOM     25  C   UNK A   0       9.491  -2.424  23.730  0.00  0.00    +0.262 C 
ATOM     26  O   UNK A   0      10.591  -2.770  23.318  0.00  0.00    -0.269 OA
BRANCH  25  27
ATOM     27  C   UNK A   0       8.453  -3.428  24.117  0.00  0.00    +0.126 A 
ATOM     28  C   UNK A   0       8.569  -4.096  25.322  0.00  0.00    +0.033 A 
ATOM     29  C   UNK A   0       7.560  -4.983  25.666  0.00  0.00    +0.012 A 
ATOM     30  C   UNK A   0       6.472  -5.171  24.805  0.00  0.00    +0.004 A 
ATOM     31  C   UNK A   0       5.425  -6.036  25.160  0.00  0.00    +0.010 A 
ATOM     32  C   UNK A   0       4.333  -6.213  24.313  0.00  0.00    +0.004 A 
ATOM     33  C   UNK A   0       4.292  -5.546  23.094  0.00  0.00    +0.047 A 
ATOM     34  C   UNK A   0       5.344  -4.696  22.736  0.00  0.00    +0.143 A 
ATOM     35  C   UNK A   0       6.441  -4.466  23.577  0.00  0.00    +0.113 A 
ATOM     36  N   UNK A   0       7.427  -3.606  23.239  0.00  0.00    -0.238 NA
BRANCH  34  37
ATOM     37  O   UNK A   0       5.295  -4.060  21.516  0.00  0.00    -0.505 OA
ATOM     38  H   UNK A   0       5.869  -3.278  21.543  0.00  0.00    +0.292 HD
ENDBRANCH  34  37
ENDBRANCH  25  27
ENDBRANCH  22  23
ENDBRANCH  21  22
ENDBRANCH  20  21
ENDBRANCH   1  20
TORSDOF 14
ENDMDL
MODEL 7
REMARK VINA RESULT:      -6.6      3.591      8.639
REMARK  Name = 
REMARK  14 active torsions:
REMARK  status: ('A' for Active; 'I' for Inactive)
REMARK    1  A    between atoms: CA_2  and  CB_3
REMARK    2  A    between atoms: CA_2  and  N_7
REMARK    3  A    between atoms: CA_2  and  C_35
REMARK    4  A    between atoms: CB_3  and  CG_4
REMARK    5  A    between atoms: CG_4  and  OD1_5
REMARK    6  A    between atoms: C_8  and  C_10
REMARK    7  A    between atoms: C_10  and  C_12
REMARK    8  A    between atoms: C_10  and  C_30
REMARK    9  A    between atoms: C_12  and  C_13
REMARK   10  A    between atoms: C_13  and  C_14
REMARK   11  A    between atoms: C_14  and  C_15
REMARK   12  A    between atoms: C_15  and  N_16
REMARK   13  A    between atoms: C_17  and  C_19
REMARK   14  A    between atoms: C_26  and  O_27
REMARK                            x       y       z     vdW  Elec       q    Type
REMARK                         _______ _______ _______ _____ _____    ______ ____
ROOT
ATOM      1  C   UNK A   0      10.118   1.548  22.234  0.00  0.00    +0.018 C 
ENDROOT
BRANCH   1   2
ATOM      2  C   UNK A   0       9.973   2.240  23.603  0.00  0.00    +0.112 C 
BRANCH   2   3
ATOM      3  C   UNK A   0      10.481   3.659  23.573  0.00  0.00    +0.002 A 
ATOM      4  S   UNK A   0       9.409   4.939  23.988  0.00  0.00    -0.101 S 
ATOM      5  C   UNK A   0      10.653   6.103  23.886  0.00  0.00    +0.045 A 
ATOM      6  C   UNK A   0      11.851   5.545  23.501  0.00  0.00    +0.008 A 
ATOM      7  C   UNK A   0      11.750   4.137  23.309  0.00  0.00    +0.012 A 
ENDBRANCH   2   3
BRANCH   2  10
ATOM      8  N   ASP A   1       8.431   1.922  25.495  0.00  0.00    -0.305 N 
ATOM      9  H   ASP A   1       9.222   2.253  26.048  0.00  0.00    +0.149 HD
ATOM     10  C   UNK A   0       8.535   2.170  24.136  0.00  0.00    +0.221 C 
ATOM     11  O   UNK A   0       7.526   2.267  23.445  0.00  0.00    -0.275 OA
BRANCH   8  12
ATOM     12  CA  ASP A   1       7.122   2.007  26.151  0.00  0.00    +0.146 C 
BRANCH  12  13
ATOM     13  C   ASP A   1       7.135   3.219  27.070  0.00  0.00    +0.246 C 
ATOM     14  O   ASP A   1       7.265   3.138  28.290  0.00  0.00    -0.299 OA
ENDBRANCH  12  13
BRANCH  12  15
ATOM     15  CB  ASP A   1       6.818   0.767  26.975  0.00  0.00    +0.150 C 
BRANCH  15  16
ATOM     16  CG  ASP A   1       7.878  -0.306  27.000  0.00  0.00    +0.307 C 
ATOM     17  OD2 ASP A   1       7.831  -1.269  26.244  0.00  0.00    -0.251 OA
BRANCH  16  18
ATOM     18  OD1 ASP A   1       8.871  -0.176  27.899  0.00  0.00    -0.481 OA
ATOM     19  HD1 ASP A   1       8.835  -0.767  28.675  0.00  0.00    +0.295 HD
ENDBRANCH  16  18
ENDBRANCH  15  16
ENDBRANCH  12  15
ENDBRANCH   8  12
ENDBRANCH   2  10
ENDBRANCH   1   2
BRANCH   1  20
ATOM     20  C   UNK A   0       9.839   0.037  22.202  0.00  0.00    +0.003 C 
BRANCH  20  21
ATOM     21  C   UNK A   0      10.177  -0.661  23.521  0.00  0.00    +0.019 C 
BRANCH  21  22
ATOM     22  C   UNK A   0      10.303  -2.174  23.367  0.00  0.00    +0.104 C 
BRANCH  22  23
ATOM     23  N   UNK A   0       9.105  -2.859  23.779  0.00  0.00    -0.310 N 
ATOM     24  H   UNK A   0       8.185  -2.462  23.605  0.00  0.00    +0.149 HD
ATOM     25  C   UNK A   0       9.142  -4.046  24.470  0.00  0.00    +0.262 C 
ATOM     26  O   UNK A   0      10.171  -4.628  24.793  0.00  0.00    -0.269 OA
BRANCH  25  27
ATOM     27  C   UNK A   0       7.795  -4.585  24.833  0.00  0.00    +0.126 A 
ATOM     28  C   UNK A   0       7.615  -5.195  26.060  0.00  0.00    +0.033 A 
ATOM     29  C   UNK A   0       6.339  -5.637  26.378  0.00  0.00    +0.012 A 
ATOM     30  C   UNK A   0       5.290  -5.454  25.468  0.00  0.00    +0.004 A 
ATOM     31  C   UNK A   0       3.987  -5.861  25.794  0.00  0.00    +0.010 A 
ATOM     32  C   UNK A   0       2.938  -5.665  24.898  0.00  0.00    +0.004 A 
ATOM     33  C   UNK A   0       3.189  -5.084  23.661  0.00  0.00    +0.047 A 
ATOM     34  C   UNK A   0       4.492  -4.692  23.333  0.00  0.00    +0.143 A 
ATOM     35  C   UNK A   0       5.565  -4.842  24.221  0.00  0.00    +0.113 A 
ATOM     36  N   UNK A   0       6.808  -4.416  23.909  0.00  0.00    -0.238 NA
BRANCH  34  37
ATOM     37  O   UNK A   0       4.724  -4.137  22.094  0.00  0.00    -0.505 OA
ATOM     38  H   UNK A   0       5.640  -4.320  21.832  0.00  0.00    +0.292 HD
ENDBRANCH  34  37
ENDBRANCH  25  27
ENDBRANCH  22  23
ENDBRANCH  21  22
ENDBRANCH  20  21
ENDBRANCH   1  20
TORSDOF 14
ENDMDL
MODEL 8
REMARK VINA RESULT:      -6.5      1.832      2.364
REMARK  Name = 
REMARK  14 active torsions:
REMARK  status: ('A' for Active; 'I' for Inactive)
REMARK    1  A    between atoms: CA_2  and  CB_3
REMARK    2  A    between atoms: CA_2  and  N_7
REMARK    3  A    between atoms: CA_2  and  C_35
REMARK    4  A    between atoms: CB_3  and  CG_4
REMARK    5  A    between atoms: CG_4  and  OD1_5
REMARK    6  A    between atoms: C_8  and  C_10
REMARK    7  A    between atoms: C_10  and  C_12
REMARK    8  A    between atoms: C_10  and  C_30
REMARK    9  A    between atoms: C_12  and  C_13
REMARK   10  A    between atoms: C_13  and  C_14
REMARK   11  A    between atoms: C_14  and  C_15
REMARK   12  A    between atoms: C_15  and  N_16
REMARK   13  A    between atoms: C_17  and  C_19
REMARK   14  A    between atoms: C_26  and  O_27
REMARK                            x       y       z     vdW  Elec       q    Type
REMARK                         _______ _______ _______ _____ _____    ______ ____
ROOT
ATOM      1  C   UNK A   0       5.188  -6.034  23.589  0.00  0.00    +0.018 C 
ENDROOT
BRANCH   1   2
ATOM      2  C   UNK A   0       4.145  -5.165  24.316  0.00  0.00    +0.112 C 
BRANCH   2   3
ATOM      3  C   UNK A   0       2.860  -5.914  24.559  0.00  0.00    +0.002 A 
ATOM      4  S   UNK A   0       2.933  -7.552  25.079  0.00  0.00    -0.101 S 
ATOM      5  C   UNK A   0       1.239  -7.634  25.276  0.00  0.00    +0.045 A 
ATOM      6  C   UNK A   0       0.620  -6.460  24.914  0.00  0.00    +0.008 A 
ATOM      7  C   UNK A   0       1.553  -5.471  24.489  0.00  0.00    +0.012 A 
ENDBRANCH   2   3
BRANCH   2  10
ATOM      8  N   ASP A   1       5.951  -3.983  25.498  0.00  0.00    -0.305 N 
ATOM      9  H   ASP A   1       6.161  -3.613  24.571  0.00  0.00    +0.149 HD
ATOM     10  C   UNK A   0       4.699  -4.564  25.615  0.00  0.00    +0.221 C 
ATOM     11  O   UNK A   0       4.139  -4.615  26.706  0.00  0.00    -0.275 OA
BRANCH   8  12
ATOM     12  CA  ASP A   1       6.507  -3.223  26.623  0.00  0.00    +0.146 C 
BRANCH  12  13
ATOM     13  C   ASP A   1       6.295  -1.744  26.342  0.00  0.00    +0.246 C 
ATOM     14  O   ASP A   1       5.197  -1.260  26.074  0.00  0.00    -0.299 OA
ENDBRANCH  12  13
BRANCH  12  15
ATOM     15  CB  ASP A   1       7.993  -3.482  26.803  0.00  0.00    +0.150 C 
BRANCH  15  16
ATOM     16  CG  ASP A   1       8.463  -4.901  26.602  0.00  0.00    +0.307 C 
ATOM     17  OD2 ASP A   1       7.725  -5.855  26.818  0.00  0.00    -0.251 OA
BRANCH  16  18
ATOM     18  OD1 ASP A   1       9.731  -5.082  26.192  0.00  0.00    -0.481 OA
ATOM     19  HD1 ASP A   1       9.980  -5.992  25.936  0.00  0.00    +0.295 HD
ENDBRANCH  16  18
ENDBRANCH  15  16
ENDBRANCH  12  15
ENDBRANCH   8  12
ENDBRANCH   2  10
ENDBRANCH   1   2
BRANCH   1  20
ATOM     20  C   UNK A   0       5.465  -5.681  22.118  0.00  0.00    +0.003 C 
BRANCH  20  21
ATOM     21  C   UNK A   0       6.959  -5.604  21.794  0.00  0.00    +0.019 C 
BRANCH  21  22
ATOM     22  C   UNK A   0       7.760  -4.907  22.889  0.00  0.00    +0.104 C 
BRANCH  22  23
ATOM     23  N   UNK A   0       7.821  -3.482  22.688  0.00  0.00    -0.310 N 
ATOM     24  H   UNK A   0       7.112  -2.997  22.144  0.00  0.00    +0.149 HD
ATOM     25  C   UNK A   0       8.858  -2.720  23.168  0.00  0.00    +0.262 C 
ATOM     26  O   UNK A   0       9.807  -3.162  23.803  0.00  0.00    -0.269 OA
BRANCH  25  27
ATOM     27  C   UNK A   0       8.754  -1.266  22.832  0.00  0.00    +0.126 A 
ATOM     28  C   UNK A   0       9.757  -0.666  22.093  0.00  0.00    +0.033 A 
ATOM     29  C   UNK A   0       9.599   0.671  21.761  0.00  0.00    +0.012 A 
ATOM     30  C   UNK A   0       8.451   1.362  22.171  0.00  0.00    +0.004 A 
ATOM     31  C   UNK A   0       8.261   2.703  21.807  0.00  0.00    +0.010 A 
ATOM     32  C   UNK A   0       7.113   3.389  22.199  0.00  0.00    +0.004 A 
ATOM     33  C   UNK A   0       6.159   2.744  22.977  0.00  0.00    +0.047 A 
ATOM     34  C   UNK A   0       6.357   1.410  23.350  0.00  0.00    +0.143 A 
ATOM     35  C   UNK A   0       7.483   0.679  22.947  0.00  0.00    +0.113 A 
ATOM     36  N   UNK A   0       7.638  -0.622  23.275  0.00  0.00    -0.238 NA
BRANCH  34  37
ATOM     37  O   UNK A   0       5.411   0.795  24.139  0.00  0.00    -0.505 OA
ATOM     38  H   UNK A   0       5.145  -0.039  23.721  0.00  0.00    +0.292 HD
ENDBRANCH  34  37
ENDBRANCH  25  27
ENDBRANCH  22  23
ENDBRANCH  21  22
ENDBRANCH  20  21
ENDBRANCH   1  20
TORSDOF 14
ENDMDL
MODEL 9
REMARK VINA RESULT:      -6.4      2.797      7.813
REMARK  Name = 
REMARK  14 active torsions:
REMARK  status: ('A' for Active; 'I' for Inactive)
REMARK    1  A    between atoms: CA_2  and  CB_3
REMARK    2  A    between atoms: CA_2  and  N_7
REMARK    3  A    between atoms: CA_2  and  C_35
REMARK    4  A    between atoms: CB_3  and  CG_4
REMARK    5  A    between atoms: CG_4  and  OD1_5
REMARK    6  A    between atoms: C_8  and  C_10
REMARK    7  A    between atoms: C_10  and  C_12
REMARK    8  A    between atoms: C_10  and  C_30
REMARK    9  A    between atoms: C_12  and  C_13
REMARK   10  A    between atoms: C_13  and  C_14
REMARK   11  A    between atoms: C_14  and  C_15
REMARK   12  A    between atoms: C_15  and  N_16
REMARK   13  A    between atoms: C_17  and  C_19
REMARK   14  A    between atoms: C_26  and  O_27
REMARK                            x       y       z     vdW  Elec       q    Type
REMARK                         _______ _______ _______ _____ _____    ______ ____
ROOT
ATOM      1  C   UNK A   0       9.208  -0.452  25.979  0.00  0.00    +0.018 C 
ENDROOT
BRANCH   1   2
ATOM      2  C   UNK A   0       8.611  -0.637  24.570  0.00  0.00    +0.112 C 
BRANCH   2   3
ATOM      3  C   UNK A   0       9.077   0.434  23.617  0.00  0.00    +0.002 A 
ATOM      4  S   UNK A   0      10.292   1.537  24.129  0.00  0.00    -0.101 S 
ATOM      5  C   UNK A   0      10.382   2.258  22.584  0.00  0.00    +0.045 A 
ATOM      6  C   UNK A   0       9.478   1.707  21.705  0.00  0.00    +0.008 A 
ATOM      7  C   UNK A   0       8.717   0.663  22.303  0.00  0.00    +0.012 A 
ENDBRANCH   2   3
BRANCH   2  10
ATOM      8  N   ASP A   1       7.747  -2.823  23.838  0.00  0.00    -0.305 N 
ATOM      9  H   ASP A   1       6.893  -2.297  23.657  0.00  0.00    +0.149 HD
ATOM     10  C   UNK A   0       8.878  -2.042  24.010  0.00  0.00    +0.221 C 
ATOM     11  O   UNK A   0       9.991  -2.499  23.768  0.00  0.00    -0.275 OA
BRANCH   8  12
ATOM     12  CA  ASP A   1       7.854  -4.113  23.148  0.00  0.00    +0.146 C 
BRANCH  12  13
ATOM     13  C   ASP A   1       6.730  -4.193  22.127  0.00  0.00    +0.246 C 
ATOM     14  O   ASP A   1       6.316  -5.254  21.663  0.00  0.00    -0.299 OA
ENDBRANCH  12  13
BRANCH  12  15
ATOM     15  CB  ASP A   1       7.731  -5.282  24.110  0.00  0.00    +0.150 C 
BRANCH  15  16
ATOM     16  CG  ASP A   1       8.727  -5.337  25.241  0.00  0.00    +0.307 C 
ATOM     17  OD2 ASP A   1       8.366  -5.320  26.412  0.00  0.00    -0.251 OA
BRANCH  16  18
ATOM     18  OD1 ASP A   1      10.032  -5.387  24.917  0.00  0.00    -0.481 OA
ATOM     19  HD1 ASP A   1      10.251  -5.795  24.056  0.00  0.00    +0.295 HD
ENDBRANCH  16  18
ENDBRANCH  15  16
ENDBRANCH  12  15
ENDBRANCH   8  12
ENDBRANCH   2  10
ENDBRANCH   1   2
BRANCH   1  20
ATOM     20  C   UNK A   0       8.202  -0.285  27.129  0.00  0.00    +0.003 C 
BRANCH  20  21
ATOM     21  C   UNK A   0       7.347   0.978  26.995  0.00  0.00    +0.019 C 
BRANCH  21  22
ATOM     22  C   UNK A   0       5.853   0.686  27.098  0.00  0.00    +0.104 C 
BRANCH  22  23
ATOM     23  N   UNK A   0       5.575  -0.726  27.052  0.00  0.00    -0.310 N 
ATOM     24  H   UNK A   0       5.631  -1.301  27.889  0.00  0.00    +0.149 HD
ATOM     25  C   UNK A   0       5.278  -1.376  25.879  0.00  0.00    +0.262 C 
ATOM     26  O   UNK A   0       5.216  -0.833  24.783  0.00  0.00    -0.269 OA
BRANCH  25  27
ATOM     27  C   UNK A   0       5.050  -2.846  26.035  0.00  0.00    +0.126 A 
ATOM     28  C   UNK A   0       5.353  -3.458  27.236  0.00  0.00    +0.033 A 
ATOM     29  C   UNK A   0       5.081  -4.812  27.356  0.00  0.00    +0.012 A 
ATOM     30  C   UNK A   0       4.514  -5.508  26.280  0.00  0.00    +0.004 A 
ATOM     31  C   UNK A   0       4.197  -6.869  26.403  0.00  0.00    +0.010 A 
ATOM     32  C   UNK A   0       3.619  -7.561  25.341  0.00  0.00    +0.004 A 
ATOM     33  C   UNK A   0       3.376  -6.902  24.141  0.00  0.00    +0.047 A 
ATOM     34  C   UNK A   0       3.706  -5.548  24.017  0.00  0.00    +0.143 A 
ATOM     35  C   UNK A   0       4.257  -4.812  25.075  0.00  0.00    +0.113 A 
ATOM     36  N   UNK A   0       4.527  -3.493  24.956  0.00  0.00    -0.238 NA
BRANCH  34  37
ATOM     37  O   UNK A   0       3.476  -4.918  22.815  0.00  0.00    -0.505 OA
ATOM     38  H   UNK A   0       3.244  -3.991  22.983  0.00  0.00    +0.292 HD
ENDBRANCH  34  37
ENDBRANCH  25  27
ENDBRANCH  22  23
ENDBRANCH  21  22
ENDBRANCH  20  21
ENDBRANCH   1  20
TORSDOF 14
ENDMDL
