MODEL 1
REMARK VINA RESULT:      -5.6      0.000      0.000
REMARK  Name = 
REMARK  10 active torsions:
REMARK  status: ('A' for Active; 'I' for Inactive)
REMARK    1  A    between atoms: C_1  and  C_2
REMARK    2  A    between atoms: C_2  and  O_3
REMARK    3  A    between atoms: O_3  and  P_4
REMARK    4  A    between atoms: P_4  and  O_5
REMARK    5  A    between atoms: P_4  and  O_6
REMARK    6  A    between atoms: C_9  and  C_11
REMARK    7  A    between atoms: C_11  and  O_12
REMARK    8  A    between atoms: C_13  and  O_15
REMARK    9  A    between atoms: C_16  and  O_18
REMARK   10  A    between atoms: C_19  and  O_21
REMARK                            x       y       z     vdW  Elec       q    Type
REMARK                         _______ _______ _______ _____ _____    ______ ____
ROOT
ATOM      1  C   UNL     1       5.201  -3.105  23.567  0.00  0.00    +0.077 C 
ATOM      2  C   UNL     1       6.289  -4.049  24.093  0.00  0.00    +0.207 C 
ATOM      3  C   UNL     1       7.680  -3.437  23.771  0.00  0.00    +0.205 C 
ATOM      4  C   UNL     1       8.797  -4.254  24.436  0.00  0.00    +0.179 C 
ATOM      5  C   UNL     1       8.513  -4.413  25.934  0.00  0.00    +0.177 C 
ATOM      6  C   UNL     1       7.113  -4.997  26.140  0.00  0.00    +0.178 C 
ATOM      7  O   UNL     1       6.108  -4.174  25.513  0.00  0.00    -0.338 OA
ENDROOT
BRANCH   3   8
ATOM      8  O   UNL     1       7.891  -3.326  22.359  0.00  0.00    -0.384 OA
ATOM      9  H   UNL     1       7.604  -4.164  21.949  0.00  0.00    +0.210 HD
ENDBRANCH   3   8
BRANCH   4  10
ATOM     10  O   UNL     1      10.061  -3.599  24.266  0.00  0.00    -0.386 OA
ATOM     11  H   UNL     1      10.420  -3.437  25.161  0.00  0.00    +0.210 HD
ENDBRANCH   4  10
BRANCH   5  12
ATOM     12  O   UNL     1       9.531  -5.232  26.522  0.00  0.00    -0.386 OA
ATOM     13  H   UNL     1       9.578  -5.040  27.477  0.00  0.00    +0.210 HD
ENDBRANCH   5  12
BRANCH   2  14
ATOM     14  O   UNL     1       6.172  -5.333  23.480  0.00  0.00    -0.251 OA
BRANCH  14  15
ATOM     15  P   UNL     1       4.532  -5.718  23.087  0.00  0.00    +0.475 P 
ATOM     16  O   UNL     1       3.064  -6.064  22.735  0.00  0.00    -0.227 OA
BRANCH  15  17
ATOM     17  O   UNL     1       4.849  -7.183  23.756  0.00  0.00    -0.303 OA
ATOM     18  H   UNL     1       4.596  -7.161  24.697  0.00  0.00    +0.222 HD
ENDBRANCH  15  17
BRANCH  15  19
ATOM     19  O   UNL     1       5.101  -6.129  21.612  0.00  0.00    -0.303 OA
ATOM     20  H   UNL     1       5.114  -7.103  21.574  0.00  0.00    +0.222 HD
ENDBRANCH  15  19
ENDBRANCH  14  15
ENDBRANCH   2  14
BRANCH   6  21
ATOM     21  C   UNL     1       6.752  -5.119  27.622  0.00  0.00    +0.190 C 
BRANCH  21  22
ATOM     22  O   UNL     1       7.357  -6.305  28.143  0.00  0.00    -0.392 OA
ATOM     23  H   UNL     1       6.631  -6.833  28.524  0.00  0.00    +0.210 HD
ENDBRANCH  21  22
ENDBRANCH   6  21
TORSDOF 9
ENDMDL
MODEL 2
REMARK VINA RESULT:      -5.4      2.114      4.454
REMARK  Name = 
REMARK  10 active torsions:
REMARK  status: ('A' for Active; 'I' for Inactive)
REMARK    1  A    between atoms: C_1  and  C_2
REMARK    2  A    between atoms: C_2  and  O_3
REMARK    3  A    between atoms: O_3  and  P_4
REMARK    4  A    between atoms: P_4  and  O_5
REMARK    5  A    between atoms: P_4  and  O_6
REMARK    6  A    between atoms: C_9  and  C_11
REMARK    7  A    between atoms: C_11  and  O_12
REMARK    8  A    between atoms: C_13  and  O_15
REMARK    9  A    between atoms: C_16  and  O_18
REMARK   10  A    between atoms: C_19  and  O_21
REMARK                            x       y       z     vdW  Elec       q    Type
REMARK                         _______ _______ _______ _____ _____    ______ ____
ROOT
ATOM      1  C   UNL     1       4.739  -3.991  26.659  0.00  0.00    +0.077 C 
ATOM      2  C   UNL     1       5.621  -4.925  25.821  0.00  0.00    +0.207 C 
ATOM      3  C   UNL     1       4.918  -5.186  24.459  0.00  0.00    +0.205 C 
ATOM      4  C   UNL     1       5.843  -5.967  23.516  0.00  0.00    +0.179 C 
ATOM      5  C   UNL     1       7.197  -5.258  23.398  0.00  0.00    +0.177 C 
ATOM      6  C   UNL     1       7.787  -5.026  24.791  0.00  0.00    +0.178 C 
ATOM      7  O   UNL     1       6.883  -4.269  25.621  0.00  0.00    -0.338 OA
ENDROOT
BRANCH   3   8
ATOM      8  O   UNL     1       3.667  -5.861  24.635  0.00  0.00    -0.384 OA
ATOM      9  H   UNL     1       3.001  -5.193  24.882  0.00  0.00    +0.210 HD
ENDBRANCH   3   8
BRANCH   4  10
ATOM     10  O   UNL     1       5.253  -6.070  22.213  0.00  0.00    -0.386 OA
ATOM     11  H   UNL     1       5.448  -6.970  21.884  0.00  0.00    +0.210 HD
ENDBRANCH   4  10
BRANCH   5  12
ATOM     12  O   UNL     1       8.065  -6.037  22.566  0.00  0.00    -0.386 OA
ATOM     13  H   UNL     1       8.909  -5.558  22.455  0.00  0.00    +0.210 HD
ENDBRANCH   5  12
BRANCH   2  14
ATOM     14  O   UNL     1       5.825  -6.161  26.505  0.00  0.00    -0.251 OA
BRANCH  14  15
ATOM     15  P   UNL     1       5.985  -5.941  28.213  0.00  0.00    +0.475 P 
ATOM     16  O   UNL     1       6.128  -5.744  29.742  0.00  0.00    -0.227 OA
BRANCH  15  17
ATOM     17  O   UNL     1       7.586  -6.208  27.970  0.00  0.00    -0.303 OA
ATOM     18  H   UNL     1       7.928  -6.758  28.699  0.00  0.00    +0.222 HD
ENDBRANCH  15  17
BRANCH  15  19
ATOM     19  O   UNL     1       5.612  -7.526  28.338  0.00  0.00    -0.303 OA
ATOM     20  H   UNL     1       5.746  -7.920  27.457  0.00  0.00    +0.222 HD
ENDBRANCH  15  19
ENDBRANCH  14  15
ENDBRANCH   2  14
BRANCH   6  21
ATOM     21  C   UNL     1       9.113  -4.264  24.735  0.00  0.00    +0.190 C 
BRANCH  21  22
ATOM     22  O   UNL     1      10.186  -5.207  24.794  0.00  0.00    -0.392 OA
ATOM     23  H   UNL     1      10.064  -5.800  24.030  0.00  0.00    +0.210 HD
ENDBRANCH  21  22
ENDBRANCH   6  21
TORSDOF 9
ENDMDL
MODEL 3
REMARK VINA RESULT:      -5.4      2.277      5.164
REMARK  Name = 
REMARK  10 active torsions:
REMARK  status: ('A' for Active; 'I' for Inactive)
REMARK    1  A    between atoms: C_1  and  C_2
REMARK    2  A    between atoms: C_2  and  O_3
REMARK    3  A    between atoms: O_3  and  P_4
REMARK    4  A    between atoms: P_4  and  O_5
REMARK    5  A    between atoms: P_4  and  O_6
REMARK    6  A    between atoms: C_9  and  C_11
REMARK    7  A    between atoms: C_11  and  O_12
REMARK    8  A    between atoms: C_13  and  O_15
REMARK    9  A    between atoms: C_16  and  O_18
REMARK   10  A    between atoms: C_19  and  O_21
REMARK                            x       y       z     vdW  Elec       q    Type
REMARK                         _______ _______ _______ _____ _____    ______ ____
ROOT
ATOM      1  C   UNL     1       6.971  -3.463  26.536  0.00  0.00    +0.077 C 
ATOM      2  C   UNL     1       6.515  -4.886  26.192  0.00  0.00    +0.207 C 
ATOM      3  C   UNL     1       5.738  -5.468  27.406  0.00  0.00    +0.205 C 
ATOM      4  C   UNL     1       5.106  -6.819  27.044  0.00  0.00    +0.179 C 
ATOM      5  C   UNL     1       4.267  -6.685  25.768  0.00  0.00    +0.177 C 
ATOM      6  C   UNL     1       5.117  -6.079  24.647  0.00  0.00    +0.178 C 
ATOM      7  O   UNL     1       5.663  -4.803  25.039  0.00  0.00    -0.338 OA
ENDROOT
BRANCH   3   8
ATOM      8  O   UNL     1       6.577  -5.582  28.561  0.00  0.00    -0.384 OA
ATOM      9  H   UNL     1       6.732  -4.682  28.906  0.00  0.00    +0.210 HD
ENDBRANCH   3   8
BRANCH   4  10
ATOM     10  O   UNL     1       4.264  -7.277  28.111  0.00  0.00    -0.386 OA
ATOM     11  H   UNL     1       3.815  -6.489  28.475  0.00  0.00    +0.210 HD
ENDBRANCH   4  10
BRANCH   5  12
ATOM     12  O   UNL     1       3.741  -7.969  25.412  0.00  0.00    -0.386 OA
ATOM     13  H   UNL     1       3.633  -8.008  24.443  0.00  0.00    +0.210 HD
ENDBRANCH   5  12
BRANCH   2  14
ATOM     14  O   UNL     1       7.642  -5.712  25.898  0.00  0.00    -0.251 OA
BRANCH  14  15
ATOM     15  P   UNL     1       8.928  -4.818  25.164  0.00  0.00    +0.475 P 
ATOM     16  O   UNL     1      10.080  -4.020  24.506  0.00  0.00    -0.227 OA
BRANCH  15  17
ATOM     17  O   UNL     1       8.385  -5.445  23.748  0.00  0.00    -0.303 OA
ATOM     18  H   UNL     1       8.941  -5.110  23.020  0.00  0.00    +0.222 HD
ENDBRANCH  15  17
BRANCH  15  19
ATOM     19  O   UNL     1       9.871  -6.105  25.515  0.00  0.00    -0.303 OA
ATOM     20  H   UNL     1       9.285  -6.882  25.562  0.00  0.00    +0.222 HD
ENDBRANCH  15  19
ENDBRANCH  14  15
ENDBRANCH   2  14
BRANCH   6  21
ATOM     21  C   UNL     1       4.310  -5.864  23.365  0.00  0.00    +0.190 C 
BRANCH  21  22
ATOM     22  O   UNL     1       5.064  -6.371  22.261  0.00  0.00    -0.392 OA
ATOM     23  H   UNL     1       4.419  -6.802  21.670  0.00  0.00    +0.210 HD
ENDBRANCH  21  22
ENDBRANCH   6  21
TORSDOF 9
ENDMDL
MODEL 4
REMARK VINA RESULT:      -5.3      1.426      2.100
REMARK  Name = 
REMARK  10 active torsions:
REMARK  status: ('A' for Active; 'I' for Inactive)
REMARK    1  A    between atoms: C_1  and  C_2
REMARK    2  A    between atoms: C_2  and  O_3
REMARK    3  A    between atoms: O_3  and  P_4
REMARK    4  A    between atoms: P_4  and  O_5
REMARK    5  A    between atoms: P_4  and  O_6
REMARK    6  A    between atoms: C_9  and  C_11
REMARK    7  A    between atoms: C_11  and  O_12
REMARK    8  A    between atoms: C_13  and  O_15
REMARK    9  A    between atoms: C_16  and  O_18
REMARK   10  A    between atoms: C_19  and  O_21
REMARK                            x       y       z     vdW  Elec       q    Type
REMARK                         _______ _______ _______ _____ _____    ______ ____
ROOT
ATOM      1  C   UNL     1       6.506  -2.954  23.601  0.00  0.00    +0.077 C 
ATOM      2  C   UNL     1       6.927  -4.171  24.433  0.00  0.00    +0.207 C 
ATOM      3  C   UNL     1       8.193  -3.800  25.254  0.00  0.00    +0.205 C 
ATOM      4  C   UNL     1       8.546  -4.925  26.238  0.00  0.00    +0.179 C 
ATOM      5  C   UNL     1       7.326  -5.280  27.094  0.00  0.00    +0.177 C 
ATOM      6  C   UNL     1       6.132  -5.600  26.191  0.00  0.00    +0.178 C 
ATOM      7  O   UNL     1       5.836  -4.500  25.307  0.00  0.00    -0.338 OA
ENDROOT
BRANCH   3   8
ATOM      8  O   UNL     1       9.301  -3.493  24.400  0.00  0.00    -0.384 OA
ATOM      9  H   UNL     1       8.997  -3.576  23.477  0.00  0.00    +0.210 HD
ENDBRANCH   3   8
BRANCH   4  10
ATOM     10  O   UNL     1       9.619  -4.515  27.098  0.00  0.00    -0.386 OA
ATOM     11  H   UNL     1       9.309  -3.721  27.579  0.00  0.00    +0.210 HD
ENDBRANCH   4  10
BRANCH   5  12
ATOM     12  O   UNL     1       7.658  -6.373  27.958  0.00  0.00    -0.386 OA
ATOM     13  H   UNL     1       7.295  -7.196  27.580  0.00  0.00    +0.210 HD
ENDBRANCH   5  12
BRANCH   2  14
ATOM     14  O   UNL     1       7.210  -5.281  23.581  0.00  0.00    -0.251 OA
BRANCH  14  15
ATOM     15  P   UNL     1       6.456  -5.121  22.033  0.00  0.00    +0.475 P 
ATOM     16  O   UNL     1       5.781  -4.979  20.647  0.00  0.00    -0.227 OA
BRANCH  15  17
ATOM     17  O   UNL     1       5.341  -6.179  22.608  0.00  0.00    -0.303 OA
ATOM     18  H   UNL     1       5.801  -6.970  22.945  0.00  0.00    +0.222 HD
ENDBRANCH  15  17
BRANCH  15  19
ATOM     19  O   UNL     1       7.488  -6.286  21.537  0.00  0.00    -0.303 OA
ATOM     20  H   UNL     1       8.119  -6.436  22.263  0.00  0.00    +0.222 HD
ENDBRANCH  15  19
ENDBRANCH  14  15
ENDBRANCH   2  14
BRANCH   6  21
ATOM     21  C   UNL     1       4.865  -5.902  26.996  0.00  0.00    +0.190 C 
BRANCH  21  22
ATOM     22  O   UNL     1       4.941  -7.245  27.480  0.00  0.00    -0.392 OA
ATOM     23  H   UNL     1       4.020  -7.558  27.547  0.00  0.00    +0.210 HD
ENDBRANCH  21  22
ENDBRANCH   6  21
TORSDOF 9
ENDMDL
MODEL 5
REMARK VINA RESULT:      -5.2      3.175      5.395
REMARK  Name = 
REMARK  10 active torsions:
REMARK  status: ('A' for Active; 'I' for Inactive)
REMARK    1  A    between atoms: C_1  and  C_2
REMARK    2  A    between atoms: C_2  and  O_3
REMARK    3  A    between atoms: O_3  and  P_4
REMARK    4  A    between atoms: P_4  and  O_5
REMARK    5  A    between atoms: P_4  and  O_6
REMARK    6  A    between atoms: C_9  and  C_11
REMARK    7  A    between atoms: C_11  and  O_12
REMARK    8  A    between atoms: C_13  and  O_15
REMARK    9  A    between atoms: C_16  and  O_18
REMARK   10  A    between atoms: C_19  and  O_21
REMARK                            x       y       z     vdW  Elec       q    Type
REMARK                         _______ _______ _______ _____ _____    ______ ____
ROOT
ATOM      1  C   UNL     1      10.536  -1.694  22.660  0.00  0.00    +0.077 C 
ATOM      2  C   UNL     1       9.389  -2.257  23.509  0.00  0.00    +0.207 C 
ATOM      3  C   UNL     1       8.139  -2.436  22.603  0.00  0.00    +0.205 C 
ATOM      4  C   UNL     1       7.022  -3.165  23.363  0.00  0.00    +0.179 C 
ATOM      5  C   UNL     1       7.556  -4.471  23.961  0.00  0.00    +0.177 C 
ATOM      6  C   UNL     1       8.797  -4.186  24.810  0.00  0.00    +0.178 C 
ATOM      7  O   UNL     1       9.817  -3.522  24.036  0.00  0.00    -0.338 OA
ENDROOT
BRANCH   3   8
ATOM      8  O   UNL     1       7.681  -1.181  22.086  0.00  0.00    -0.384 OA
ATOM      9  H   UNL     1       7.551  -1.285  21.125  0.00  0.00    +0.210 HD
ENDBRANCH   3   8
BRANCH   4  10
ATOM     10  O   UNL     1       5.933  -3.464  22.480  0.00  0.00    -0.386 OA
ATOM     11  H   UNL     1       6.209  -4.230  21.938  0.00  0.00    +0.210 HD
ENDBRANCH   4  10
BRANCH   5  12
ATOM     12  O   UNL     1       6.516  -5.101  24.720  0.00  0.00    -0.386 OA
ATOM     13  H   UNL     1       6.015  -4.414  25.199  0.00  0.00    +0.210 HD
ENDBRANCH   5  12
BRANCH   2  14
ATOM     14  O   UNL     1       9.084  -1.368  24.583  0.00  0.00    -0.251 OA
BRANCH  14  15
ATOM     15  P   UNL     1      10.021   0.084  24.511  0.00  0.00    +0.475 P 
ATOM     16  O   UNL     1      10.859   1.384  24.448  0.00  0.00    -0.227 OA
BRANCH  15  17
ATOM     17  O   UNL     1       9.795   0.160  26.135  0.00  0.00    -0.303 OA
ATOM     18  H   UNL     1      10.601  -0.162  26.581  0.00  0.00    +0.222 HD
ENDBRANCH  15  17
BRANCH  15  19
ATOM     19  O   UNL     1       8.617   0.838  24.155  0.00  0.00    -0.303 OA
ATOM     20  H   UNL     1       7.911   0.366  24.632  0.00  0.00    +0.222 HD
ENDBRANCH  15  19
ENDBRANCH  14  15
ENDBRANCH   2  14
BRANCH   6  21
ATOM     21  C   UNL     1       9.410  -5.466  25.382  0.00  0.00    +0.190 C 
BRANCH  21  22
ATOM     22  O   UNL     1       8.606  -5.907  26.479  0.00  0.00    -0.392 OA
ATOM     23  H   UNL     1       9.226  -6.268  27.139  0.00  0.00    +0.210 HD
ENDBRANCH  21  22
ENDBRANCH   6  21
TORSDOF 9
ENDMDL
MODEL 6
REMARK VINA RESULT:      -5.2      1.355      1.947
REMARK  Name = 
REMARK  10 active torsions:
REMARK  status: ('A' for Active; 'I' for Inactive)
REMARK    1  A    between atoms: C_1  and  C_2
REMARK    2  A    between atoms: C_2  and  O_3
REMARK    3  A    between atoms: O_3  and  P_4
REMARK    4  A    between atoms: P_4  and  O_5
REMARK    5  A    between atoms: P_4  and  O_6
REMARK    6  A    between atoms: C_9  and  C_11
REMARK    7  A    between atoms: C_11  and  O_12
REMARK    8  A    between atoms: C_13  and  O_15
REMARK    9  A    between atoms: C_16  and  O_18
REMARK   10  A    between atoms: C_19  and  O_21
REMARK                            x       y       z     vdW  Elec       q    Type
REMARK                         _______ _______ _______ _____ _____    ______ ____
ROOT
ATOM      1  C   UNL     1       4.608  -3.747  24.805  0.00  0.00    +0.077 C 
ATOM      2  C   UNL     1       6.027  -3.982  24.275  0.00  0.00    +0.207 C 
ATOM      3  C   UNL     1       6.474  -2.729  23.471  0.00  0.00    +0.205 C 
ATOM      4  C   UNL     1       7.953  -2.841  23.075  0.00  0.00    +0.179 C 
ATOM      5  C   UNL     1       8.810  -3.132  24.311  0.00  0.00    +0.177 C 
ATOM      6  C   UNL     1       8.271  -4.364  25.041  0.00  0.00    +0.178 C 
ATOM      7  O   UNL     1       6.886  -4.190  25.407  0.00  0.00    -0.338 OA
ENDROOT
BRANCH   3   8
ATOM      8  O   UNL     1       5.644  -2.518  22.323  0.00  0.00    -0.384 OA
ATOM      9  H   UNL     1       5.494  -1.558  22.237  0.00  0.00    +0.210 HD
ENDBRANCH   3   8
BRANCH   4  10
ATOM     10  O   UNL     1       8.400  -1.619  22.471  0.00  0.00    -0.386 OA
ATOM     11  H   UNL     1       9.318  -1.472  22.775  0.00  0.00    +0.210 HD
ENDBRANCH   4  10
BRANCH   5  12
ATOM     12  O   UNL     1      10.175  -3.297  23.910  0.00  0.00    -0.386 OA
ATOM     13  H   UNL     1      10.462  -4.203  24.133  0.00  0.00    +0.210 HD
ENDBRANCH   5  12
BRANCH   2  14
ATOM     14  O   UNL     1       6.059  -5.134  23.431  0.00  0.00    -0.251 OA
BRANCH  14  15
ATOM     15  P   UNL     1       4.471  -5.695  23.039  0.00  0.00    +0.475 P 
ATOM     16  O   UNL     1       3.049  -6.199  22.688  0.00  0.00    -0.227 OA
BRANCH  15  17
ATOM     17  O   UNL     1       4.934  -7.105  23.740  0.00  0.00    -0.303 OA
ATOM     18  H   UNL     1       4.252  -7.781  23.569  0.00  0.00    +0.222 HD
ENDBRANCH  15  17
BRANCH  15  19
ATOM     19  O   UNL     1       5.089  -6.075  21.576  0.00  0.00    -0.303 OA
ATOM     20  H   UNL     1       4.409  -6.589  21.105  0.00  0.00    +0.222 HD
ENDBRANCH  15  19
ENDBRANCH  14  15
ENDBRANCH   2  14
BRANCH   6  21
ATOM     21  C   UNL     1       9.053  -4.664  26.322  0.00  0.00    +0.190 C 
BRANCH  21  22
ATOM     22  O   UNL     1      10.214  -5.426  25.980  0.00  0.00    -0.392 OA
ATOM     23  H   UNL     1       9.930  -6.055  25.292  0.00  0.00    +0.210 HD
ENDBRANCH  21  22
ENDBRANCH   6  21
TORSDOF 9
ENDMDL
MODEL 7
REMARK VINA RESULT:      -5.1      4.563      6.812
REMARK  Name = 
REMARK  10 active torsions:
REMARK  status: ('A' for Active; 'I' for Inactive)
REMARK    1  A    between atoms: C_1  and  C_2
REMARK    2  A    between atoms: C_2  and  O_3
REMARK    3  A    between atoms: O_3  and  P_4
REMARK    4  A    between atoms: P_4  and  O_5
REMARK    5  A    between atoms: P_4  and  O_6
REMARK    6  A    between atoms: C_9  and  C_11
REMARK    7  A    between atoms: C_11  and  O_12
REMARK    8  A    between atoms: C_13  and  O_15
REMARK    9  A    between atoms: C_16  and  O_18
REMARK   10  A    between atoms: C_19  and  O_21
REMARK                            x       y       z     vdW  Elec       q    Type
REMARK                         _______ _______ _______ _____ _____    ______ ____
ROOT
ATOM      1  C   UNL     1      10.519   0.079  24.827  0.00  0.00    +0.077 C 
ATOM      2  C   UNL     1       9.325  -0.190  23.904  0.00  0.00    +0.207 C 
ATOM      3  C   UNL     1       9.381  -1.671  23.435  0.00  0.00    +0.205 C 
ATOM      4  C   UNL     1       8.110  -2.038  22.656  0.00  0.00    +0.179 C 
ATOM      5  C   UNL     1       6.866  -1.686  23.479  0.00  0.00    +0.177 C 
ATOM      6  C   UNL     1       6.924  -0.219  23.910  0.00  0.00    +0.178 C 
ATOM      7  O   UNL     1       8.127   0.058  24.656  0.00  0.00    -0.338 OA
ENDROOT
BRANCH   3   8
ATOM      8  O   UNL     1      10.557  -1.933  22.661  0.00  0.00    -0.384 OA
ATOM      9  H   UNL     1      10.277  -2.361  21.831  0.00  0.00    +0.210 HD
ENDBRANCH   3   8
BRANCH   4  10
ATOM     10  O   UNL     1       8.095  -3.441  22.361  0.00  0.00    -0.386 OA
ATOM     11  H   UNL     1       7.613  -3.879  23.090  0.00  0.00    +0.210 HD
ENDBRANCH   4  10
BRANCH   5  12
ATOM     12  O   UNL     1       5.694  -1.976  22.708  0.00  0.00    -0.386 OA
ATOM     13  H   UNL     1       4.994  -1.338  22.946  0.00  0.00    +0.210 HD
ENDBRANCH   5  12
BRANCH   2  14
ATOM     14  O   UNL     1       9.368   0.678  22.771  0.00  0.00    -0.251 OA
BRANCH  14  15
ATOM     15  P   UNL     1      10.186   2.161  23.119  0.00  0.00    +0.475 P 
ATOM     16  O   UNL     1      10.917   3.490  23.430  0.00  0.00    -0.227 OA
BRANCH  15  17
ATOM     17  O   UNL     1       8.684   2.804  23.280  0.00  0.00    -0.303 OA
ATOM     18  H   UNL     1       8.091   2.386  22.628  0.00  0.00    +0.222 HD
ENDBRANCH  15  17
BRANCH  15  19
ATOM     19  O   UNL     1      10.241   2.379  21.501  0.00  0.00    -0.303 OA
ATOM     20  H   UNL     1      11.055   2.880  21.310  0.00  0.00    +0.222 HD
ENDBRANCH  15  19
ENDBRANCH  14  15
ENDBRANCH   2  14
BRANCH   6  21
ATOM     21  C   UNL     1       5.734   0.171  24.790  0.00  0.00    +0.190 C 
BRANCH  21  22
ATOM     22  O   UNL     1       5.066  -1.021  25.209  0.00  0.00    -0.392 OA
ATOM     23  H   UNL     1       4.346  -1.166  24.567  0.00  0.00    +0.210 HD
ENDBRANCH  21  22
ENDBRANCH   6  21
TORSDOF 9
ENDMDL
MODEL 8
REMARK VINA RESULT:      -5.1      5.241      7.469
REMARK  Name = 
REMARK  10 active torsions:
REMARK  status: ('A' for Active; 'I' for Inactive)
REMARK    1  A    between atoms: C_1  and  C_2
REMARK    2  A    between atoms: C_2  and  O_3
REMARK    3  A    between atoms: O_3  and  P_4
REMARK    4  A    between atoms: P_4  and  O_5
REMARK    5  A    between atoms: P_4  and  O_6
REMARK    6  A    between atoms: C_9  and  C_11
REMARK    7  A    between atoms: C_11  and  O_12
REMARK    8  A    between atoms: C_13  and  O_15
REMARK    9  A    between atoms: C_16  and  O_18
REMARK   10  A    between atoms: C_19  and  O_21
REMARK                            x       y       z     vdW  Elec       q    Type
REMARK                         _______ _______ _______ _____ _____    ______ ____
ROOT
ATOM      1  C   UNL     1       8.530  -0.425  25.345  0.00  0.00    +0.077 C 
ATOM      2  C   UNL     1       8.450   0.465  24.098  0.00  0.00    +0.207 C 
ATOM      3  C   UNL     1       6.957   0.793  23.816  0.00  0.00    +0.205 C 
ATOM      4  C   UNL     1       6.836   1.827  22.687  0.00  0.00    +0.179 C 
ATOM      5  C   UNL     1       7.701   3.053  23.000  0.00  0.00    +0.177 C 
ATOM      6  C   UNL     1       9.139   2.617  23.288  0.00  0.00    +0.178 C 
ATOM      7  O   UNL     1       9.189   1.665  24.370  0.00  0.00    -0.338 OA
ENDROOT
BRANCH   3   8
ATOM      8  O   UNL     1       6.206  -0.389  23.518  0.00  0.00    -0.384 OA
ATOM      9  H   UNL     1       5.746  -0.663  24.333  0.00  0.00    +0.210 HD
ENDBRANCH   3   8
BRANCH   4  10
ATOM     10  O   UNL     1       5.472   2.242  22.536  0.00  0.00    -0.386 OA
ATOM     11  H   UNL     1       5.418   3.163  22.861  0.00  0.00    +0.210 HD
ENDBRANCH   4  10
BRANCH   5  12
ATOM     12  O   UNL     1       7.625   3.975  21.906  0.00  0.00    -0.386 OA
ATOM     13  H   UNL     1       7.127   3.558  21.177  0.00  0.00    +0.210 HD
ENDBRANCH   5  12
BRANCH   2  14
ATOM     14  O   UNL     1       9.018  -0.205  22.973  0.00  0.00    -0.251 OA
BRANCH  14  15
ATOM     15  P   UNL     1       9.668  -1.750  23.396  0.00  0.00    +0.475 P 
ATOM     16  O   UNL     1      10.250  -3.135  23.774  0.00  0.00    -0.227 OA
BRANCH  15  17
ATOM     17  O   UNL     1      10.524  -1.631  22.002  0.00  0.00    -0.303 OA
ATOM     18  H   UNL     1      11.288  -1.042  22.149  0.00  0.00    +0.222 HD
ENDBRANCH  15  17
BRANCH  15  19
ATOM     19  O   UNL     1       8.344  -2.378  22.675  0.00  0.00    -0.303 OA
ATOM     20  H   UNL     1       8.648  -3.114  22.114  0.00  0.00    +0.222 HD
ENDBRANCH  15  19
ENDBRANCH  14  15
ENDBRANCH   2  14
BRANCH   6  21
ATOM     21  C   UNL     1      10.034   3.799  23.669  0.00  0.00    +0.190 C 
BRANCH  21  22
ATOM     22  O   UNL     1      11.246   3.715  22.915  0.00  0.00    -0.392 OA
ATOM     23  H   UNL     1      11.235   2.841  22.483  0.00  0.00    +0.210 HD
ENDBRANCH  21  22
ENDBRANCH   6  21
TORSDOF 9
ENDMDL
MODEL 9
REMARK VINA RESULT:      -5.0      3.474      4.886
REMARK  Name = 
REMARK  10 active torsions:
REMARK  status: ('A' for Active; 'I' for Inactive)
REMARK    1  A    between atoms: C_1  and  C_2
REMARK    2  A    between atoms: C_2  and  O_3
REMARK    3  A    between atoms: O_3  and  P_4
REMARK    4  A    between atoms: P_4  and  O_5
REMARK    5  A    between atoms: P_4  and  O_6
REMARK    6  A    between atoms: C_9  and  C_11
REMARK    7  A    between atoms: C_11  and  O_12
REMARK    8  A    between atoms: C_13  and  O_15
REMARK    9  A    between atoms: C_16  and  O_18
REMARK   10  A    between atoms: C_19  and  O_21
REMARK                            x       y       z     vdW  Elec       q    Type
REMARK                         _______ _______ _______ _____ _____    ______ ____
ROOT
ATOM      1  C   UNL     1       7.533  -3.149  22.663  0.00  0.00    +0.077 C 
ATOM      2  C   UNL     1       8.422  -2.203  23.479  0.00  0.00    +0.207 C 
ATOM      3  C   UNL     1       9.087  -1.184  22.512  0.00  0.00    +0.205 C 
ATOM      4  C   UNL     1       9.842  -0.105  23.301  0.00  0.00    +0.179 C 
ATOM      5  C   UNL     1       8.915   0.532  24.343  0.00  0.00    +0.177 C 
ATOM      6  C   UNL     1       8.295  -0.556  25.222  0.00  0.00    +0.178 C 
ATOM      7  O   UNL     1       7.582  -1.526  24.427  0.00  0.00    -0.338 OA
ENDROOT
BRANCH   3   8
ATOM      8  O   UNL     1       9.949  -1.837  21.573  0.00  0.00    -0.384 OA
ATOM      9  H   UNL     1       9.665  -2.769  21.507  0.00  0.00    +0.210 HD
ENDBRANCH   3   8
BRANCH   4  10
ATOM     10  O   UNL     1      10.321   0.915  22.414  0.00  0.00    -0.386 OA
ATOM     11  H   UNL     1      10.586   1.674  22.972  0.00  0.00    +0.210 HD
ENDBRANCH   4  10
BRANCH   5  12
ATOM     12  O   UNL     1       9.657   1.488  25.110  0.00  0.00    -0.386 OA
ATOM     13  H   UNL     1       9.103   1.792  25.855  0.00  0.00    +0.210 HD
ENDBRANCH   5  12
BRANCH   2  14
ATOM     14  O   UNL     1       9.429  -2.941  24.172  0.00  0.00    -0.251 OA
BRANCH  14  15
ATOM     15  P   UNL     1       8.804  -4.393  24.873  0.00  0.00    +0.475 P 
ATOM     16  O   UNL     1       8.245  -5.692  25.503  0.00  0.00    -0.227 OA
BRANCH  15  17
ATOM     17  O   UNL     1       8.929  -3.603  26.307  0.00  0.00    -0.303 OA
ATOM     18  H   UNL     1       8.049  -3.266  26.559  0.00  0.00    +0.222 HD
ENDBRANCH  15  17
BRANCH  15  19
ATOM     19  O   UNL     1      10.350  -4.918  24.886  0.00  0.00    -0.303 OA
ATOM     20  H   UNL     1      10.352  -5.806  24.484  0.00  0.00    +0.222 HD
ENDBRANCH  15  19
ENDBRANCH  14  15
ENDBRANCH   2  14
BRANCH   6  21
ATOM     21  C   UNL     1       7.310   0.020  26.243  0.00  0.00    +0.190 C 
BRANCH  21  22
ATOM     22  O   UNL     1       8.041   0.439  27.397  0.00  0.00    -0.392 OA
ATOM     23  H   UNL     1       8.926   0.037  27.316  0.00  0.00    +0.210 HD
ENDBRANCH  21  22
ENDBRANCH   6  21
TORSDOF 9
ENDMDL
