MODEL 1
REMARK VINA RESULT:      -5.8      0.000      0.000
REMARK  Name = 
REMARK  1 active torsions:
REMARK  status: ('A' for Active; 'I' for Inactive)
REMARK    1  A    between atoms: C_1  and  C_2
REMARK                            x       y       z     vdW  Elec       q    Type
REMARK                         _______ _______ _______ _____ _____    ______ ____
ROOT
ATOM      1  C   UNL     1      10.399   2.581  23.774  0.00  0.00    +0.046 C 
ATOM      2  C   UNL     1       9.908   1.260  23.248  0.00  0.00    -0.026 A 
ATOM      3  C   UNL     1       9.550   0.210  24.111  0.00  0.00    +0.057 A 
ATOM      4  N   UNL     1       9.608   0.332  25.510  0.00  0.00    -0.327 N 
ATOM      5  H   UNL     1       9.451   1.263  25.870  0.00  0.00    +0.169 HD
ATOM      6  C   UNL     1       9.111  -0.686  26.263  0.00  0.00    +0.194 A 
ATOM      7  N   UNL     1       8.783  -1.867  25.859  0.00  0.00    -0.177 NA
ATOM      8  C   UNL     1       8.925  -2.151  24.516  0.00  0.00    +0.282 A 
ATOM      9  O   UNL     1       8.800  -3.286  24.066  0.00  0.00    -0.265 OA
ATOM     10  N   UNL     1       8.958  -0.343  27.566  0.00  0.00    -0.329 N 
ATOM     11  H   UNL     1       8.712  -1.161  28.117  0.00  0.00    +0.145 HD
ATOM     12  H   UNL     1       9.759   0.129  27.968  0.00  0.00    +0.145 HD
ATOM     13  C   UNL     1       9.220  -1.042  23.569  0.00  0.00    +0.065 A 
ATOM     14  C   UNL     1       9.156  -1.237  22.186  0.00  0.00    +0.015 A 
ATOM     15  C   UNL     1       9.438  -0.174  21.332  0.00  0.00    +0.001 A 
ATOM     16  C   UNL     1       9.823   1.060  21.859  0.00  0.00    +0.005 A 
ENDROOT
TORSDOF 0
ENDMDL
MODEL 2
REMARK VINA RESULT:      -5.6      3.569      5.335
REMARK  Name = 
REMARK  1 active torsions:
REMARK  status: ('A' for Active; 'I' for Inactive)
REMARK    1  A    between atoms: C_1  and  C_2
REMARK                            x       y       z     vdW  Elec       q    Type
REMARK                         _______ _______ _______ _____ _____    ______ ____
ROOT
ATOM      1  C   UNL     1       5.220  -5.994  24.730  0.00  0.00    +0.046 C 
ATOM      2  C   UNL     1       5.826  -4.891  23.908  0.00  0.00    -0.026 A 
ATOM      3  C   UNL     1       7.161  -4.488  24.085  0.00  0.00    +0.057 A 
ATOM      4  N   UNL     1       8.014  -5.099  25.021  0.00  0.00    -0.327 N 
ATOM      5  H   UNL     1       7.826  -6.074  25.206  0.00  0.00    +0.169 HD
ATOM      6  C   UNL     1       9.325  -4.737  25.024  0.00  0.00    +0.194 A 
ATOM      7  N   UNL     1       9.858  -3.731  24.416  0.00  0.00    -0.177 NA
ATOM      8  C   UNL     1       9.034  -2.926  23.656  0.00  0.00    +0.282 A 
ATOM      9  O   UNL     1       9.411  -1.860  23.180  0.00  0.00    -0.265 OA
ATOM     10  N   UNL     1      10.096  -5.579  25.756  0.00  0.00    -0.329 N 
ATOM     11  H   UNL     1      11.038  -5.206  25.842  0.00  0.00    +0.145 HD
ATOM     12  H   UNL     1       9.716  -5.804  26.667  0.00  0.00    +0.145 HD
ATOM     13  C   UNL     1       7.641  -3.372  23.382  0.00  0.00    +0.065 A 
ATOM     14  C   UNL     1       6.842  -2.709  22.446  0.00  0.00    +0.015 A 
ATOM     15  C   UNL     1       5.543  -3.156  22.217  0.00  0.00    +0.001 A 
ATOM     16  C   UNL     1       5.036  -4.231  22.951  0.00  0.00    +0.005 A 
ENDROOT
TORSDOF 0
ENDMDL
MODEL 3
REMARK VINA RESULT:      -5.4      2.671      3.259
REMARK  Name = 
REMARK  1 active torsions:
REMARK  status: ('A' for Active; 'I' for Inactive)
REMARK    1  A    between atoms: C_1  and  C_2
REMARK                            x       y       z     vdW  Elec       q    Type
REMARK                         _______ _______ _______ _____ _____    ______ ____
ROOT
ATOM      1  C   UNL     1       6.236   2.289  22.738  0.00  0.00    +0.046 C 
ATOM      2  C   UNL     1       7.536   1.579  22.479  0.00  0.00    -0.026 A 
ATOM      3  C   UNL     1       7.643   0.180  22.572  0.00  0.00    +0.057 A 
ATOM      4  N   UNL     1       6.546  -0.639  22.891  0.00  0.00    -0.327 N 
ATOM      5  H   UNL     1       5.645  -0.291  22.595  0.00  0.00    +0.169 HD
ATOM      6  C   UNL     1       6.713  -1.988  22.822  0.00  0.00    +0.194 A 
ATOM      7  N   UNL     1       7.826  -2.631  22.709  0.00  0.00    -0.177 NA
ATOM      8  C   UNL     1       8.991  -1.896  22.630  0.00  0.00    +0.282 A 
ATOM      9  O   UNL     1      10.102  -2.413  22.689  0.00  0.00    -0.265 OA
ATOM     10  N   UNL     1       5.537  -2.661  22.868  0.00  0.00    -0.329 N 
ATOM     11  H   UNL     1       5.708  -3.660  22.946  0.00  0.00    +0.145 HD
ATOM     12  H   UNL     1       4.908  -2.349  23.598  0.00  0.00    +0.145 HD
ATOM     13  C   UNL     1       8.904  -0.421  22.445  0.00  0.00    +0.065 A 
ATOM     14  C   UNL     1      10.039   0.336  22.141  0.00  0.00    +0.015 A 
ATOM     15  C   UNL     1       9.918   1.713  21.975  0.00  0.00    +0.001 A 
ATOM     16  C   UNL     1       8.678   2.330  22.154  0.00  0.00    +0.005 A 
ENDROOT
TORSDOF 0
ENDMDL
MODEL 4
REMARK VINA RESULT:      -5.4      5.386      6.792
REMARK  Name = 
REMARK  1 active torsions:
REMARK  status: ('A' for Active; 'I' for Inactive)
REMARK    1  A    between atoms: C_1  and  C_2
REMARK                            x       y       z     vdW  Elec       q    Type
REMARK                         _______ _______ _______ _____ _____    ______ ____
ROOT
ATOM      1  C   UNL     1       3.859  -6.355  23.907  0.00  0.00    +0.046 C 
ATOM      2  C   UNL     1       5.246  -5.808  24.105  0.00  0.00    -0.026 A 
ATOM      3  C   UNL     1       5.886  -5.854  25.356  0.00  0.00    +0.057 A 
ATOM      4  N   UNL     1       5.283  -6.429  26.488  0.00  0.00    -0.327 N 
ATOM      5  H   UNL     1       4.641  -7.187  26.300  0.00  0.00    +0.169 HD
ATOM      6  C   UNL     1       6.030  -6.553  27.618  0.00  0.00    +0.194 A 
ATOM      7  N   UNL     1       7.174  -6.008  27.860  0.00  0.00    -0.177 NA
ATOM      8  C   UNL     1       7.734  -5.219  26.875  0.00  0.00    +0.282 A 
ATOM      9  O   UNL     1       8.728  -4.528  27.071  0.00  0.00    -0.265 OA
ATOM     10  N   UNL     1       5.453  -7.366  28.538  0.00  0.00    -0.329 N 
ATOM     11  H   UNL     1       5.972  -7.330  29.411  0.00  0.00    +0.145 HD
ATOM     12  H   UNL     1       4.471  -7.179  28.698  0.00  0.00    +0.145 HD
ATOM     13  C   UNL     1       7.125  -5.218  25.517  0.00  0.00    +0.065 A 
ATOM     14  C   UNL     1       7.775  -4.615  24.436  0.00  0.00    +0.015 A 
ATOM     15  C   UNL     1       7.174  -4.635  23.180  0.00  0.00    +0.001 A 
ATOM     16  C   UNL     1       5.914  -5.216  23.019  0.00  0.00    +0.005 A 
ENDROOT
TORSDOF 0
ENDMDL
MODEL 5
REMARK VINA RESULT:      -5.3      4.199      6.244
REMARK  Name = 
REMARK  1 active torsions:
REMARK  status: ('A' for Active; 'I' for Inactive)
REMARK    1  A    between atoms: C_1  and  C_2
REMARK                            x       y       z     vdW  Elec       q    Type
REMARK                         _______ _______ _______ _____ _____    ______ ____
ROOT
ATOM      1  C   UNL     1       6.451  -5.601  21.588  0.00  0.00    +0.046 C 
ATOM      2  C   UNL     1       6.156  -5.674  23.061  0.00  0.00    -0.026 A 
ATOM      3  C   UNL     1       7.016  -5.102  24.014  0.00  0.00    +0.057 A 
ATOM      4  N   UNL     1       8.188  -4.413  23.654  0.00  0.00    -0.327 N 
ATOM      5  H   UNL     1       8.156  -3.943  22.759  0.00  0.00    +0.169 HD
ATOM      6  C   UNL     1       8.882  -3.774  24.634  0.00  0.00    +0.194 A 
ATOM      7  N   UNL     1       8.726  -3.898  25.908  0.00  0.00    -0.177 NA
ATOM      8  C   UNL     1       7.739  -4.754  26.357  0.00  0.00    +0.282 A 
ATOM      9  O   UNL     1       7.624  -5.065  27.537  0.00  0.00    -0.265 OA
ATOM     10  N   UNL     1       9.814  -2.921  24.140  0.00  0.00    -0.329 N 
ATOM     11  H   UNL     1      10.396  -2.564  24.893  0.00  0.00    +0.145 HD
ATOM     12  H   UNL     1      10.386  -3.312  23.401  0.00  0.00    +0.145 HD
ATOM     13  C   UNL     1       6.763  -5.306  25.379  0.00  0.00    +0.065 A 
ATOM     14  C   UNL     1       5.623  -5.994  25.807  0.00  0.00    +0.015 A 
ATOM     15  C   UNL     1       4.732  -6.496  24.862  0.00  0.00    +0.001 A 
ATOM     16  C   UNL     1       5.003  -6.347  23.501  0.00  0.00    +0.005 A 
ENDROOT
TORSDOF 0
ENDMDL
MODEL 6
REMARK VINA RESULT:      -5.2      5.225      6.763
REMARK  Name = 
REMARK  1 active torsions:
REMARK  status: ('A' for Active; 'I' for Inactive)
REMARK    1  A    between atoms: C_1  and  C_2
REMARK                            x       y       z     vdW  Elec       q    Type
REMARK                         _______ _______ _______ _____ _____    ______ ____
ROOT
ATOM      1  C   UNL     1       5.608  -6.189  27.947  0.00  0.00    +0.046 C 
ATOM      2  C   UNL     1       5.466  -5.939  26.471  0.00  0.00    -0.026 A 
ATOM      3  C   UNL     1       6.571  -5.604  25.670  0.00  0.00    +0.057 A 
ATOM      4  N   UNL     1       7.874  -5.503  26.190  0.00  0.00    -0.327 N 
ATOM      5  H   UNL     1       8.074  -6.103  26.978  0.00  0.00    +0.169 HD
ATOM      6  C   UNL     1       8.899  -5.312  25.316  0.00  0.00    +0.194 A 
ATOM      7  N   UNL     1       8.811  -4.990  24.069  0.00  0.00    -0.177 NA
ATOM      8  C   UNL     1       7.550  -4.832  23.531  0.00  0.00    +0.282 A 
ATOM      9  O   UNL     1       7.365  -4.367  22.411  0.00  0.00    -0.265 OA
ATOM     10  N   UNL     1      10.113  -5.514  25.885  0.00  0.00    -0.329 N 
ATOM     11  H   UNL     1      10.851  -5.237  25.243  0.00  0.00    +0.145 HD
ATOM     12  H   UNL     1      10.232  -5.060  26.782  0.00  0.00    +0.145 HD
ATOM     13  C   UNL     1       6.366  -5.258  24.326  0.00  0.00    +0.065 A 
ATOM     14  C   UNL     1       5.095  -5.324  23.749  0.00  0.00    +0.015 A 
ATOM     15  C   UNL     1       4.011  -5.728  24.525  0.00  0.00    +0.001 A 
ATOM     16  C   UNL     1       4.194  -6.021  25.878  0.00  0.00    +0.005 A 
ENDROOT
TORSDOF 0
ENDMDL
MODEL 7
REMARK VINA RESULT:      -5.1      1.606      2.049
REMARK  Name = 
REMARK  1 active torsions:
REMARK  status: ('A' for Active; 'I' for Inactive)
REMARK    1  A    between atoms: C_1  and  C_2
REMARK                            x       y       z     vdW  Elec       q    Type
REMARK                         _______ _______ _______ _____ _____    ______ ____
ROOT
ATOM      1  C   UNL     1       7.932   2.437  25.493  0.00  0.00    +0.046 C 
ATOM      2  C   UNL     1       8.561   1.796  24.288  0.00  0.00    -0.026 A 
ATOM      3  C   UNL     1       8.893   0.430  24.268  0.00  0.00    +0.057 A 
ATOM      4  N   UNL     1       8.642  -0.421  25.358  0.00  0.00    -0.327 N 
ATOM      5  H   UNL     1       7.840  -0.177  25.923  0.00  0.00    +0.169 HD
ATOM      6  C   UNL     1       8.869  -1.753  25.197  0.00  0.00    +0.194 A 
ATOM      7  N   UNL     1       9.501  -2.324  24.228  0.00  0.00    -0.177 NA
ATOM      8  C   UNL     1       9.997  -1.522  23.220  0.00  0.00    +0.282 A 
ATOM      9  O   UNL     1      10.750  -1.948  22.350  0.00  0.00    -0.265 OA
ATOM     10  N   UNL     1       8.331  -2.497  26.194  0.00  0.00    -0.329 N 
ATOM     11  H   UNL     1       8.631  -3.465  26.110  0.00  0.00    +0.145 HD
ATOM     12  H   UNL     1       8.521  -2.145  27.124  0.00  0.00    +0.145 HD
ATOM     13  C   UNL     1       9.592  -0.091  23.169  0.00  0.00    +0.065 A 
ATOM     14  C   UNL     1       9.886   0.703  22.057  0.00  0.00    +0.015 A 
ATOM     15  C   UNL     1       9.490   2.038  22.046  0.00  0.00    +0.001 A 
ATOM     16  C   UNL     1       8.844   2.582  23.157  0.00  0.00    +0.005 A 
ENDROOT
TORSDOF 0
ENDMDL
MODEL 8
REMARK VINA RESULT:      -5.1      5.269      6.547
REMARK  Name = 
REMARK  1 active torsions:
REMARK  status: ('A' for Active; 'I' for Inactive)
REMARK    1  A    between atoms: C_1  and  C_2
REMARK                            x       y       z     vdW  Elec       q    Type
REMARK                         _______ _______ _______ _____ _____    ______ ____
ROOT
ATOM      1  C   UNL     1       5.778  -4.562  22.249  0.00  0.00    +0.046 C 
ATOM      2  C   UNL     1       6.672  -4.654  23.454  0.00  0.00    -0.026 A 
ATOM      3  C   UNL     1       6.272  -5.331  24.619  0.00  0.00    +0.057 A 
ATOM      4  N   UNL     1       5.028  -5.977  24.724  0.00  0.00    -0.327 N 
ATOM      5  H   UNL     1       4.656  -6.344  23.859  0.00  0.00    +0.169 HD
ATOM      6  C   UNL     1       4.786  -6.722  25.836  0.00  0.00    +0.194 A 
ATOM      7  N   UNL     1       5.473  -6.741  26.928  0.00  0.00    -0.177 NA
ATOM      8  C   UNL     1       6.595  -5.940  26.997  0.00  0.00    +0.282 A 
ATOM      9  O   UNL     1       7.214  -5.762  28.041  0.00  0.00    -0.265 OA
ATOM     10  N   UNL     1       3.695  -7.517  25.703  0.00  0.00    -0.329 N 
ATOM     11  H   UNL     1       3.471  -7.956  26.592  0.00  0.00    +0.145 HD
ATOM     12  H   UNL     1       2.882  -7.047  25.323  0.00  0.00    +0.145 HD
ATOM     13  C   UNL     1       7.089  -5.279  25.758  0.00  0.00    +0.065 A 
ATOM     14  C   UNL     1       8.333  -4.642  25.727  0.00  0.00    +0.015 A 
ATOM     15  C   UNL     1       8.762  -4.036  24.549  0.00  0.00    +0.001 A 
ATOM     16  C   UNL     1       7.932  -4.032  23.426  0.00  0.00    +0.005 A 
ENDROOT
TORSDOF 0
ENDMDL
MODEL 9
REMARK VINA RESULT:      -5.0      3.014      3.810
REMARK  Name = 
REMARK  1 active torsions:
REMARK  status: ('A' for Active; 'I' for Inactive)
REMARK    1  A    between atoms: C_1  and  C_2
REMARK                            x       y       z     vdW  Elec       q    Type
REMARK                         _______ _______ _______ _____ _____    ______ ____
ROOT
ATOM      1  C   UNL     1      10.233  -1.504  22.782  0.00  0.00    +0.046 C 
ATOM      2  C   UNL     1       8.836  -1.806  23.250  0.00  0.00    -0.026 A 
ATOM      3  C   UNL     1       8.545  -2.951  24.012  0.00  0.00    +0.057 A 
ATOM      4  N   UNL     1       9.537  -3.869  24.399  0.00  0.00    -0.327 N 
ATOM      5  H   UNL     1      10.459  -3.479  24.536  0.00  0.00    +0.169 HD
ATOM      6  C   UNL     1       9.185  -4.871  25.251  0.00  0.00    +0.194 A 
ATOM      7  N   UNL     1       7.991  -5.225  25.588  0.00  0.00    -0.177 NA
ATOM      8  C   UNL     1       6.934  -4.515  25.054  0.00  0.00    +0.282 A 
ATOM      9  O   UNL     1       5.769  -4.876  25.180  0.00  0.00    -0.265 OA
ATOM     10  N   UNL     1      10.260  -5.512  25.773  0.00  0.00    -0.329 N 
ATOM     11  H   UNL     1       9.960  -6.329  26.297  0.00  0.00    +0.145 HD
ATOM     12  H   UNL     1      10.966  -5.763  25.091  0.00  0.00    +0.145 HD
ATOM     13  C   UNL     1       7.209  -3.253  24.316  0.00  0.00    +0.065 A 
ATOM     14  C   UNL     1       6.172  -2.390  23.949  0.00  0.00    +0.015 A 
ATOM     15  C   UNL     1       6.470  -1.217  23.260  0.00  0.00    +0.001 A 
ATOM     16  C   UNL     1       7.790  -0.935  22.903  0.00  0.00    +0.005 A 
ENDROOT
TORSDOF 0
ENDMDL
