MODEL 1
REMARK VINA RESULT:      -7.2      0.000      0.000
REMARK  Name = 
REMARK  8 active torsions:
REMARK  status: ('A' for Active; 'I' for Inactive)
REMARK    1  A    between atoms: O_1  and  C_2
REMARK    2  A    between atoms: C_4  and  C_6
REMARK    3  A    between atoms: C_6  and  O_7
REMARK    4  A    between atoms: O_7  and  P_8
REMARK    5  A    between atoms: P_8  and  O_9
REMARK    6  A    between atoms: P_8  and  O_10
REMARK    7  A    between atoms: C_13  and  C_18
REMARK    8  A    between atoms: C_15  and  O_17
REMARK                            x       y       z     vdW  Elec       q    Type
REMARK                         _______ _______ _______ _____ _____    ______ ____
ROOT
ATOM      1  C   UNL     1       8.222  -5.354  25.944  0.00  0.00    +0.164 C 
ATOM      2  C   UNL     1       9.431  -4.519  25.505  0.00  0.00    +0.166 C 
ATOM      3  C   UNL     1       8.892  -3.603  24.381  0.00  0.00    +0.119 C 
ATOM      4  N   UNL     1       7.465  -3.937  24.203  0.00  0.00    -0.300 NA
ATOM      5  H   UNL     1       6.931  -3.107  23.955  0.00  0.00    +0.123 HD
ATOM      6  C   UNL     1       7.024  -4.514  25.475  0.00  0.00    +0.112 C 
ENDROOT
BRANCH   3   7
ATOM      7  C   UNL     1       9.058  -2.139  24.705  0.00  0.00    +0.016 A 
ATOM      8  C   UNL     1       9.374  -1.114  23.783  0.00  0.00    +0.100 A 
ATOM      9  N   UNL     1       9.588  -1.238  22.406  0.00  0.00    -0.235 NA
ATOM     10  C   UNL     1       9.836  -0.104  21.825  0.00  0.00    +0.199 A 
ATOM     11  N   UNL     1       9.907   1.135  22.428  0.00  0.00    -0.312 N 
ATOM     12  H   UNL     1      10.107   1.966  21.892  0.00  0.00    +0.170 HD
ATOM     13  C   UNL     1       9.720   1.315  23.777  0.00  0.00    +0.275 A 
ATOM     14  O   UNL     1       9.792   2.409  24.321  0.00  0.00    -0.266 OA
ATOM     15  C   UNL     1       9.438   0.087  24.431  0.00  0.00    +0.130 A 
ATOM     16  N   UNL     1       9.196  -0.147  25.754  0.00  0.00    -0.355 N 
ATOM     17  H   UNL     1       9.189   0.563  26.477  0.00  0.00    +0.166 HD
ATOM     18  C   UNL     1       8.971  -1.492  25.934  0.00  0.00    +0.090 A 
ENDBRANCH   3   7
BRANCH   1  19
ATOM     19  O   UNL     1       8.241  -5.532  27.363  0.00  0.00    -0.388 OA
ATOM     20  H   UNL     1       7.945  -4.694  27.757  0.00  0.00    +0.210 HD
ENDBRANCH   1  19
BRANCH   2  21
ATOM     21  O   UNL     1      10.474  -5.389  25.041  0.00  0.00    -0.387 OA
ATOM     22  H   UNL     1      11.285  -4.851  25.017  0.00  0.00    +0.210 HD
ENDBRANCH   2  21
BRANCH   6  23
ATOM     23  C   UNL     1       5.744  -5.335  25.322  0.00  0.00    +0.193 C 
BRANCH  23  24
ATOM     24  O   UNL     1       5.822  -6.422  26.226  0.00  0.00    -0.285 OA
BRANCH  24  25
ATOM     25  P   UNL     1       4.709  -6.548  27.357  0.00  0.00    +0.472 P 
ATOM     26  O   UNL     1       4.252  -5.312  28.044  0.00  0.00    -0.228 OA
BRANCH  25  27
ATOM     27  O   UNL     1       5.414  -7.599  28.333  0.00  0.00    -0.303 OA
ATOM     28  H   UNL     1       5.750  -7.142  29.128  0.00  0.00    +0.222 HD
ENDBRANCH  25  27
BRANCH  25  29
ATOM     29  O   UNL     1       3.602  -7.490  26.707  0.00  0.00    -0.303 OA
ATOM     30  H   UNL     1       3.905  -8.415  26.691  0.00  0.00    +0.222 HD
ENDBRANCH  25  29
ENDBRANCH  24  25
ENDBRANCH  23  24
ENDBRANCH   6  23
TORSDOF 8
ENDMDL
MODEL 2
REMARK VINA RESULT:      -7.1      1.804      2.181
REMARK  Name = 
REMARK  8 active torsions:
REMARK  status: ('A' for Active; 'I' for Inactive)
REMARK    1  A    between atoms: O_1  and  C_2
REMARK    2  A    between atoms: C_4  and  C_6
REMARK    3  A    between atoms: C_6  and  O_7
REMARK    4  A    between atoms: O_7  and  P_8
REMARK    5  A    between atoms: P_8  and  O_9
REMARK    6  A    between atoms: P_8  and  O_10
REMARK    7  A    between atoms: C_13  and  C_18
REMARK    8  A    between atoms: C_15  and  O_17
REMARK                            x       y       z     vdW  Elec       q    Type
REMARK                         _______ _______ _______ _____ _____    ______ ____
ROOT
ATOM      1  C   UNL     1       7.986  -5.543  26.108  0.00  0.00    +0.164 C 
ATOM      2  C   UNL     1       9.227  -4.744  25.696  0.00  0.00    +0.166 C 
ATOM      3  C   UNL     1       8.757  -3.864  24.515  0.00  0.00    +0.119 C 
ATOM      4  N   UNL     1       7.334  -4.183  24.282  0.00  0.00    -0.300 NA
ATOM      5  H   UNL     1       6.826  -3.354  23.978  0.00  0.00    +0.123 HD
ATOM      6  C   UNL     1       6.825  -4.704  25.552  0.00  0.00    +0.112 C 
ENDROOT
BRANCH   3   7
ATOM      7  C   UNL     1       8.933  -2.390  24.792  0.00  0.00    +0.016 A 
ATOM      8  C   UNL     1       9.337  -1.411  23.855  0.00  0.00    +0.100 A 
ATOM      9  N   UNL     1       9.647  -1.596  22.503  0.00  0.00    -0.235 NA
ATOM     10  C   UNL     1       9.962  -0.492  21.897  0.00  0.00    +0.199 A 
ATOM     11  N   UNL     1      10.017   0.769  22.454  0.00  0.00    -0.312 N 
ATOM     12  H   UNL     1      10.275   1.573  21.901  0.00  0.00    +0.170 HD
ATOM     13  C   UNL     1       9.738   1.008  23.777  0.00  0.00    +0.275 A 
ATOM     14  O   UNL     1       9.795   2.122  24.282  0.00  0.00    -0.266 OA
ATOM     15  C   UNL     1       9.382  -0.186  24.458  0.00  0.00    +0.130 A 
ATOM     16  N   UNL     1       9.040  -0.360  25.767  0.00  0.00    -0.355 N 
ATOM     17  H   UNL     1       8.997   0.380  26.460  0.00  0.00    +0.166 HD
ATOM     18  C   UNL     1       8.772  -1.692  25.984  0.00  0.00    +0.090 A 
ENDBRANCH   3   7
BRANCH   1  19
ATOM     19  O   UNL     1       7.934  -5.667  27.532  0.00  0.00    -0.388 OA
ATOM     20  H   UNL     1       7.061  -5.346  27.813  0.00  0.00    +0.210 HD
ENDBRANCH   1  19
BRANCH   2  21
ATOM     21  O   UNL     1      10.276  -5.647  25.315  0.00  0.00    -0.387 OA
ATOM     22  H   UNL     1      10.998  -5.092  24.970  0.00  0.00    +0.210 HD
ENDBRANCH   2  21
BRANCH   6  23
ATOM     23  C   UNL     1       5.540  -5.510  25.369  0.00  0.00    +0.193 C 
BRANCH  23  24
ATOM     24  O   UNL     1       4.749  -4.841  24.404  0.00  0.00    -0.285 OA
BRANCH  24  25
ATOM     25  P   UNL     1       4.191  -5.677  23.170  0.00  0.00    +0.472 P 
ATOM     26  O   UNL     1       2.743  -5.587  22.848  0.00  0.00    -0.228 OA
BRANCH  25  27
ATOM     27  O   UNL     1       4.663  -7.146  23.586  0.00  0.00    -0.303 OA
ATOM     28  H   UNL     1       4.129  -7.467  24.337  0.00  0.00    +0.222 HD
ENDBRANCH  25  27
BRANCH  25  29
ATOM     29  O   UNL     1       5.232  -5.384  22.001  0.00  0.00    -0.303 OA
ATOM     30  H   UNL     1       4.780  -5.013  21.223  0.00  0.00    +0.222 HD
ENDBRANCH  25  29
ENDBRANCH  24  25
ENDBRANCH  23  24
ENDBRANCH   6  23
TORSDOF 8
ENDMDL
MODEL 3
REMARK VINA RESULT:      -7.1      2.039      2.315
REMARK  Name = 
REMARK  8 active torsions:
REMARK  status: ('A' for Active; 'I' for Inactive)
REMARK    1  A    between atoms: O_1  and  C_2
REMARK    2  A    between atoms: C_4  and  C_6
REMARK    3  A    between atoms: C_6  and  O_7
REMARK    4  A    between atoms: O_7  and  P_8
REMARK    5  A    between atoms: P_8  and  O_9
REMARK    6  A    between atoms: P_8  and  O_10
REMARK    7  A    between atoms: C_13  and  C_18
REMARK    8  A    between atoms: C_15  and  O_17
REMARK                            x       y       z     vdW  Elec       q    Type
REMARK                         _______ _______ _______ _____ _____    ______ ____
ROOT
ATOM      1  C   UNL     1       7.822  -4.302  24.520  0.00  0.00    +0.164 C 
ATOM      2  C   UNL     1       9.164  -3.603  24.767  0.00  0.00    +0.166 C 
ATOM      3  C   UNL     1       9.345  -2.657  23.558  0.00  0.00    +0.119 C 
ATOM      4  N   UNL     1       8.169  -2.847  22.685  0.00  0.00    -0.300 NA
ATOM      5  H   UNL     1       7.912  -1.971  22.234  0.00  0.00    +0.123 HD
ATOM      6  C   UNL     1       7.102  -3.353  23.550  0.00  0.00    +0.112 C 
ENDROOT
BRANCH   3   7
ATOM      7  C   UNL     1       9.470  -1.211  23.973  0.00  0.00    +0.016 A 
ATOM      8  C   UNL     1       9.382  -0.089  23.116  0.00  0.00    +0.100 A 
ATOM      9  N   UNL     1       9.161  -0.084  21.734  0.00  0.00    -0.235 NA
ATOM     10  C   UNL     1       9.107   1.113  21.232  0.00  0.00    +0.199 A 
ATOM     11  N   UNL     1       9.251   2.303  21.916  0.00  0.00    -0.312 N 
ATOM     12  H   UNL     1       9.194   3.190  21.438  0.00  0.00    +0.170 HD
ATOM     13  C   UNL     1       9.485   2.357  23.268  0.00  0.00    +0.275 A 
ATOM     14  O   UNL     1       9.624   3.408  23.880  0.00  0.00    -0.266 OA
ATOM     15  C   UNL     1       9.538   1.059  23.839  0.00  0.00    +0.130 A 
ATOM     16  N   UNL     1       9.749   0.699  25.139  0.00  0.00    -0.355 N 
ATOM     17  H   UNL     1       9.906   1.347  25.903  0.00  0.00    +0.166 HD
ATOM     18  C   UNL     1       9.717  -0.673  25.232  0.00  0.00    +0.090 A 
ENDBRANCH   3   7
BRANCH   1  19
ATOM     19  O   UNL     1       7.117  -4.456  25.755  0.00  0.00    -0.388 OA
ATOM     20  H   UNL     1       6.313  -4.966  25.560  0.00  0.00    +0.210 HD
ENDBRANCH   1  19
BRANCH   2  21
ATOM     21  O   UNL     1      10.209  -4.582  24.850  0.00  0.00    -0.387 OA
ATOM     22  H   UNL     1      10.585  -4.654  23.954  0.00  0.00    +0.210 HD
ENDBRANCH   2  21
BRANCH   6  23
ATOM     23  C   UNL     1       5.994  -4.042  22.754  0.00  0.00    +0.193 C 
BRANCH  23  24
ATOM     24  O   UNL     1       5.824  -5.340  23.294  0.00  0.00    -0.285 OA
BRANCH  24  25
ATOM     25  P   UNL     1       4.350  -5.826  23.649  0.00  0.00    +0.472 P 
ATOM     26  O   UNL     1       3.212  -5.269  22.871  0.00  0.00    -0.228 OA
BRANCH  25  27
ATOM     27  O   UNL     1       4.299  -5.463  25.205  0.00  0.00    -0.303 OA
ATOM     28  H   UNL     1       3.373  -5.438  25.511  0.00  0.00    +0.222 HD
ENDBRANCH  25  27
BRANCH  25  29
ATOM     29  O   UNL     1       4.478  -7.410  23.750  0.00  0.00    -0.303 OA
ATOM     30  H   UNL     1       4.172  -7.832  22.928  0.00  0.00    +0.222 HD
ENDBRANCH  25  29
ENDBRANCH  24  25
ENDBRANCH  23  24
ENDBRANCH   6  23
TORSDOF 8
ENDMDL
MODEL 4
REMARK VINA RESULT:      -6.8      2.365      3.326
REMARK  Name = 
REMARK  8 active torsions:
REMARK  status: ('A' for Active; 'I' for Inactive)
REMARK    1  A    between atoms: O_1  and  C_2
REMARK    2  A    between atoms: C_4  and  C_6
REMARK    3  A    between atoms: C_6  and  O_7
REMARK    4  A    between atoms: O_7  and  P_8
REMARK    5  A    between atoms: P_8  and  O_9
REMARK    6  A    between atoms: P_8  and  O_10
REMARK    7  A    between atoms: C_13  and  C_18
REMARK    8  A    between atoms: C_15  and  O_17
REMARK                            x       y       z     vdW  Elec       q    Type
REMARK                         _______ _______ _______ _____ _____    ______ ____
ROOT
ATOM      1  C   UNL     1       6.061  -5.133  22.678  0.00  0.00    +0.164 C 
ATOM      2  C   UNL     1       6.474  -3.864  21.926  0.00  0.00    +0.166 C 
ATOM      3  C   UNL     1       6.455  -2.746  22.994  0.00  0.00    +0.119 C 
ATOM      4  N   UNL     1       6.032  -3.374  24.263  0.00  0.00    -0.300 NA
ATOM      5  H   UNL     1       6.499  -2.934  25.053  0.00  0.00    +0.123 HD
ATOM      6  C   UNL     1       6.372  -4.793  24.143  0.00  0.00    +0.112 C 
ENDROOT
BRANCH   3   7
ATOM      7  C   UNL     1       7.800  -2.081  23.154  0.00  0.00    +0.016 A 
ATOM      8  C   UNL     1       8.135  -1.102  24.119  0.00  0.00    +0.100 A 
ATOM      9  N   UNL     1       7.309  -0.562  25.111  0.00  0.00    -0.235 NA
ATOM     10  C   UNL     1       7.917   0.303  25.865  0.00  0.00    +0.199 A 
ATOM     11  N   UNL     1       9.232   0.708  25.761  0.00  0.00    -0.312 N 
ATOM     12  H   UNL     1       9.619   1.391  26.395  0.00  0.00    +0.170 HD
ATOM     13  C   UNL     1      10.084   0.223  24.799  0.00  0.00    +0.275 A 
ATOM     14  O   UNL     1      11.248   0.586  24.693  0.00  0.00    -0.266 OA
ATOM     15  C   UNL     1       9.441  -0.732  23.969  0.00  0.00    +0.130 A 
ATOM     16  N   UNL     1       9.947  -1.432  22.912  0.00  0.00    -0.355 N 
ATOM     17  H   UNL     1      10.896  -1.353  22.564  0.00  0.00    +0.166 HD
ATOM     18  C   UNL     1       8.961  -2.247  22.406  0.00  0.00    +0.090 A 
ENDBRANCH   3   7
BRANCH   1  19
ATOM     19  O   UNL     1       6.819  -6.250  22.206  0.00  0.00    -0.388 OA
ATOM     20  H   UNL     1       7.036  -6.072  21.275  0.00  0.00    +0.210 HD
ENDBRANCH   1  19
BRANCH   2  21
ATOM     21  O   UNL     1       5.545  -3.611  20.861  0.00  0.00    -0.387 OA
ATOM     22  H   UNL     1       5.866  -2.811  20.406  0.00  0.00    +0.210 HD
ENDBRANCH   2  21
BRANCH   6  23
ATOM     23  C   UNL     1       5.593  -5.656  25.135  0.00  0.00    +0.193 C 
BRANCH  23  24
ATOM     24  O   UNL     1       6.520  -6.170  26.074  0.00  0.00    -0.285 OA
BRANCH  24  25
ATOM     25  P   UNL     1       6.945  -5.248  27.300  0.00  0.00    +0.472 P 
ATOM     26  O   UNL     1       6.299  -3.917  27.445  0.00  0.00    -0.228 OA
BRANCH  25  27
ATOM     27  O   UNL     1       8.523  -5.170  27.063  0.00  0.00    -0.303 OA
ATOM     28  H   UNL     1       8.955  -5.962  27.434  0.00  0.00    +0.222 HD
ENDBRANCH  25  27
BRANCH  25  29
ATOM     29  O   UNL     1       6.913  -6.230  28.553  0.00  0.00    -0.303 OA
ATOM     30  H   UNL     1       6.258  -5.931  29.208  0.00  0.00    +0.222 HD
ENDBRANCH  25  29
ENDBRANCH  24  25
ENDBRANCH  23  24
ENDBRANCH   6  23
TORSDOF 8
ENDMDL
MODEL 5
REMARK VINA RESULT:      -6.8      3.468      7.994
REMARK  Name = 
REMARK  8 active torsions:
REMARK  status: ('A' for Active; 'I' for Inactive)
REMARK    1  A    between atoms: O_1  and  C_2
REMARK    2  A    between atoms: C_4  and  C_6
REMARK    3  A    between atoms: C_6  and  O_7
REMARK    4  A    between atoms: O_7  and  P_8
REMARK    5  A    between atoms: P_8  and  O_9
REMARK    6  A    between atoms: P_8  and  O_10
REMARK    7  A    between atoms: C_13  and  C_18
REMARK    8  A    between atoms: C_15  and  O_17
REMARK                            x       y       z     vdW  Elec       q    Type
REMARK                         _______ _______ _______ _____ _____    ______ ____
ROOT
ATOM      1  C   UNL     1       9.419   0.514  22.362  0.00  0.00    +0.164 C 
ATOM      2  C   UNL     1       9.297  -0.994  22.603  0.00  0.00    +0.166 C 
ATOM      3  C   UNL     1      10.018  -1.240  23.948  0.00  0.00    +0.119 C 
ATOM      4  N   UNL     1      10.526   0.068  24.407  0.00  0.00    -0.300 NA
ATOM      5  H   UNL     1      10.493   0.129  25.423  0.00  0.00    +0.123 HD
ATOM      6  C   UNL     1       9.679   1.077  23.768  0.00  0.00    +0.112 C 
ENDROOT
BRANCH   3   7
ATOM      7  C   UNL     1       9.108  -1.850  24.986  0.00  0.00    +0.016 A 
ATOM      8  C   UNL     1       9.005  -3.226  25.297  0.00  0.00    +0.100 A 
ATOM      9  N   UNL     1       9.715  -4.287  24.725  0.00  0.00    -0.235 NA
ATOM     10  C   UNL     1       9.414  -5.439  25.244  0.00  0.00    +0.199 A 
ATOM     11  N   UNL     1       8.498  -5.678  26.249  0.00  0.00    -0.312 N 
ATOM     12  H   UNL     1       8.330  -6.613  26.589  0.00  0.00    +0.170 HD
ATOM     13  C   UNL     1       7.763  -4.678  26.836  0.00  0.00    +0.275 A 
ATOM     14  O   UNL     1       6.942  -4.883  27.720  0.00  0.00    -0.266 OA
ATOM     15  C   UNL     1       8.083  -3.407  26.289  0.00  0.00    +0.130 A 
ATOM     16  N   UNL     1       7.573  -2.182  26.605  0.00  0.00    -0.355 N 
ATOM     17  H   UNL     1       6.860  -2.012  27.305  0.00  0.00    +0.166 HD
ATOM     18  C   UNL     1       8.180  -1.231  25.818  0.00  0.00    +0.090 A 
ENDBRANCH   3   7
BRANCH   1  19
ATOM     19  O   UNL     1       8.209   1.018  21.790  0.00  0.00    -0.388 OA
ATOM     20  H   UNL     1       7.830   0.302  21.254  0.00  0.00    +0.210 HD
ENDBRANCH   1  19
BRANCH   2  21
ATOM     21  O   UNL     1       9.913  -1.706  21.520  0.00  0.00    -0.387 OA
ATOM     22  H   UNL     1      10.551  -1.089  21.119  0.00  0.00    +0.210 HD
ENDBRANCH   2  21
BRANCH   6  23
ATOM     23  C   UNL     1      10.340   2.455  23.747  0.00  0.00    +0.193 C 
BRANCH  23  24
ATOM     24  O   UNL     1       9.384   3.380  23.262  0.00  0.00    -0.285 OA
BRANCH  24  25
ATOM     25  P   UNL     1       9.439   4.877  23.799  0.00  0.00    +0.472 P 
ATOM     26  O   UNL     1       9.041   5.142  25.206  0.00  0.00    -0.228 OA
BRANCH  25  27
ATOM     27  O   UNL     1       8.503   5.599  22.723  0.00  0.00    -0.303 OA
ATOM     28  H   UNL     1       8.983   6.341  22.310  0.00  0.00    +0.222 HD
ENDBRANCH  25  27
BRANCH  25  29
ATOM     29  O   UNL     1      10.859   5.410  23.315  0.00  0.00    -0.303 OA
ATOM     30  H   UNL     1      11.128   6.190  23.832  0.00  0.00    +0.222 HD
ENDBRANCH  25  29
ENDBRANCH  24  25
ENDBRANCH  23  24
ENDBRANCH   6  23
TORSDOF 8
ENDMDL
MODEL 6
REMARK VINA RESULT:      -6.8      3.264      7.758
REMARK  Name = 
REMARK  8 active torsions:
REMARK  status: ('A' for Active; 'I' for Inactive)
REMARK    1  A    between atoms: O_1  and  C_2
REMARK    2  A    between atoms: C_4  and  C_6
REMARK    3  A    between atoms: C_6  and  O_7
REMARK    4  A    between atoms: O_7  and  P_8
REMARK    5  A    between atoms: P_8  and  O_9
REMARK    6  A    between atoms: P_8  and  O_10
REMARK    7  A    between atoms: C_13  and  C_18
REMARK    8  A    between atoms: C_15  and  O_17
REMARK                            x       y       z     vdW  Elec       q    Type
REMARK                         _______ _______ _______ _____ _____    ______ ____
ROOT
ATOM      1  C   UNL     1       9.311   0.093  22.648  0.00  0.00    +0.164 C 
ATOM      2  C   UNL     1       9.389  -1.394  22.283  0.00  0.00    +0.166 C 
ATOM      3  C   UNL     1       9.362  -2.137  23.639  0.00  0.00    +0.119 C 
ATOM      4  N   UNL     1       9.292  -1.103  24.692  0.00  0.00    -0.300 NA
ATOM      5  H   UNL     1       8.737  -1.431  25.480  0.00  0.00    +0.123 HD
ATOM      6  C   UNL     1       8.704   0.078  24.059  0.00  0.00    +0.112 C 
ENDROOT
BRANCH   3   7
ATOM      7  C   UNL     1       8.194  -3.087  23.750  0.00  0.00    +0.016 A 
ATOM      8  C   UNL     1       7.941  -3.970  24.825  0.00  0.00    +0.100 A 
ATOM      9  N   UNL     1       8.699  -4.141  25.989  0.00  0.00    -0.235 NA
ATOM     10  C   UNL     1       8.191  -5.015  26.804  0.00  0.00    +0.199 A 
ATOM     11  N   UNL     1       7.036  -5.746  26.615  0.00  0.00    -0.312 N 
ATOM     12  H   UNL     1       6.717  -6.406  27.309  0.00  0.00    +0.170 HD
ATOM     13  C   UNL     1       6.261  -5.630  25.488  0.00  0.00    +0.275 A 
ATOM     14  O   UNL     1       5.241  -6.283  25.308  0.00  0.00    -0.266 OA
ATOM     15  C   UNL     1       6.794  -4.672  24.586  0.00  0.00    +0.130 A 
ATOM     16  N   UNL     1       6.318  -4.278  23.369  0.00  0.00    -0.355 N 
ATOM     17  H   UNL     1       5.480  -4.640  22.928  0.00  0.00    +0.166 HD
ATOM     18  C   UNL     1       7.161  -3.323  22.849  0.00  0.00    +0.090 A 
ENDBRANCH   3   7
BRANCH   1  19
ATOM     19  O   UNL     1       8.485   0.784  21.707  0.00  0.00    -0.388 OA
ATOM     20  H   UNL     1       8.540   0.296  20.869  0.00  0.00    +0.210 HD
ENDBRANCH   1  19
BRANCH   2  21
ATOM     21  O   UNL     1      10.597  -1.647  21.551  0.00  0.00    -0.387 OA
ATOM     22  H   UNL     1      10.364  -2.289  20.857  0.00  0.00    +0.210 HD
ENDBRANCH   2  21
BRANCH   6  23
ATOM     23  C   UNL     1       8.992   1.357  24.846  0.00  0.00    +0.193 C 
BRANCH  23  24
ATOM     24  O   UNL     1       9.805   2.184  24.033  0.00  0.00    -0.285 OA
BRANCH  24  25
ATOM     25  P   UNL     1       9.397   3.714  23.863  0.00  0.00    +0.472 P 
ATOM     26  O   UNL     1       8.702   4.392  24.989  0.00  0.00    -0.228 OA
BRANCH  25  27
ATOM     27  O   UNL     1       8.522   3.628  22.529  0.00  0.00    -0.303 OA
ATOM     28  H   UNL     1       8.116   2.743  22.454  0.00  0.00    +0.222 HD
ENDBRANCH  25  27
BRANCH  25  29
ATOM     29  O   UNL     1      10.709   4.401  23.276  0.00  0.00    -0.303 OA
ATOM     30  H   UNL     1      11.246   4.782  23.993  0.00  0.00    +0.222 HD
ENDBRANCH  25  29
ENDBRANCH  24  25
ENDBRANCH  23  24
ENDBRANCH   6  23
TORSDOF 8
ENDMDL
MODEL 7
REMARK VINA RESULT:      -6.6      2.585      4.070
REMARK  Name = 
REMARK  8 active torsions:
REMARK  status: ('A' for Active; 'I' for Inactive)
REMARK    1  A    between atoms: O_1  and  C_2
REMARK    2  A    between atoms: C_4  and  C_6
REMARK    3  A    between atoms: C_6  and  O_7
REMARK    4  A    between atoms: O_7  and  P_8
REMARK    5  A    between atoms: P_8  and  O_9
REMARK    6  A    between atoms: P_8  and  O_10
REMARK    7  A    between atoms: C_13  and  C_18
REMARK    8  A    between atoms: C_15  and  O_17
REMARK                            x       y       z     vdW  Elec       q    Type
REMARK                         _______ _______ _______ _____ _____    ______ ____
ROOT
ATOM      1  C   UNL     1       9.250  -2.449  23.450  0.00  0.00    +0.164 C 
ATOM      2  C   UNL     1       9.617  -1.326  22.474  0.00  0.00    +0.166 C 
ATOM      3  C   UNL     1       8.645  -0.172  22.815  0.00  0.00    +0.119 C 
ATOM      4  N   UNL     1       7.778  -0.652  23.910  0.00  0.00    -0.300 NA
ATOM      5  H   UNL     1       7.539   0.112  24.539  0.00  0.00    +0.123 HD
ATOM      6  C   UNL     1       8.532  -1.708  24.588  0.00  0.00    +0.112 C 
ENDROOT
BRANCH   3   7
ATOM      7  C   UNL     1       9.369   1.087  23.224  0.00  0.00    +0.016 A 
ATOM      8  C   UNL     1       8.889   2.409  23.071  0.00  0.00    +0.100 A 
ATOM      9  N   UNL     1       7.667   2.818  22.526  0.00  0.00    -0.235 NA
ATOM     10  C   UNL     1       7.506   4.106  22.548  0.00  0.00    +0.199 A 
ATOM     11  N   UNL     1       8.397   5.042  23.031  0.00  0.00    -0.312 N 
ATOM     12  H   UNL     1       8.184   6.028  23.005  0.00  0.00    +0.170 HD
ATOM     13  C   UNL     1       9.616   4.700  23.563  0.00  0.00    +0.275 A 
ATOM     14  O   UNL     1      10.417   5.525  23.984  0.00  0.00    -0.266 OA
ATOM     15  C   UNL     1       9.809   3.294  23.558  0.00  0.00    +0.130 A 
ATOM     16  N   UNL     1      10.881   2.571  23.997  0.00  0.00    -0.355 N 
ATOM     17  H   UNL     1      11.722   2.967  24.402  0.00  0.00    +0.166 HD
ATOM     18  C   UNL     1      10.629   1.234  23.794  0.00  0.00    +0.090 A 
ENDBRANCH   3   7
BRANCH   1  19
ATOM     19  O   UNL     1      10.435  -3.114  23.897  0.00  0.00    -0.388 OA
ATOM     20  H   UNL     1      11.182  -2.708  23.427  0.00  0.00    +0.210 HD
ENDBRANCH   1  19
BRANCH   2  21
ATOM     21  O   UNL     1       9.456  -1.788  21.125  0.00  0.00    -0.387 OA
ATOM     22  H   UNL     1       8.506  -1.710  20.924  0.00  0.00    +0.210 HD
ENDBRANCH   2  21
BRANCH   6  23
ATOM     23  C   UNL     1       7.627  -2.620  25.417  0.00  0.00    +0.193 C 
BRANCH  23  24
ATOM     24  O   UNL     1       8.462  -3.420  26.234  0.00  0.00    -0.285 OA
BRANCH  24  25
ATOM     25  P   UNL     1       8.257  -4.999  26.209  0.00  0.00    +0.472 P 
ATOM     26  O   UNL     1       7.737  -5.667  27.430  0.00  0.00    -0.228 OA
BRANCH  25  27
ATOM     27  O   UNL     1       9.729  -5.469  25.801  0.00  0.00    -0.303 OA
ATOM     28  H   UNL     1      10.173  -5.877  26.569  0.00  0.00    +0.222 HD
ENDBRANCH  25  27
BRANCH  25  29
ATOM     29  O   UNL     1       7.502  -5.269  24.834  0.00  0.00    -0.303 OA
ATOM     30  H   UNL     1       6.587  -5.561  24.996  0.00  0.00    +0.222 HD
ENDBRANCH  25  29
ENDBRANCH  24  25
ENDBRANCH  23  24
ENDBRANCH   6  23
TORSDOF 8
ENDMDL
MODEL 8
REMARK VINA RESULT:      -6.6      3.355      7.765
REMARK  Name = 
REMARK  8 active torsions:
REMARK  status: ('A' for Active; 'I' for Inactive)
REMARK    1  A    between atoms: O_1  and  C_2
REMARK    2  A    between atoms: C_4  and  C_6
REMARK    3  A    between atoms: C_6  and  O_7
REMARK    4  A    between atoms: O_7  and  P_8
REMARK    5  A    between atoms: P_8  and  O_9
REMARK    6  A    between atoms: P_8  and  O_10
REMARK    7  A    between atoms: C_13  and  C_18
REMARK    8  A    between atoms: C_15  and  O_17
REMARK                            x       y       z     vdW  Elec       q    Type
REMARK                         _______ _______ _______ _____ _____    ______ ____
ROOT
ATOM      1  C   UNL     1       7.646   1.196  24.935  0.00  0.00    +0.164 C 
ATOM      2  C   UNL     1       6.406   0.306  25.065  0.00  0.00    +0.166 C 
ATOM      3  C   UNL     1       6.852  -1.075  24.531  0.00  0.00    +0.119 C 
ATOM      4  N   UNL     1       8.261  -0.937  24.111  0.00  0.00    -0.300 NA
ATOM      5  H   UNL     1       8.772  -1.800  24.284  0.00  0.00    +0.123 HD
ATOM      6  C   UNL     1       8.802   0.186  24.878  0.00  0.00    +0.112 C 
ENDROOT
BRANCH   3   7
ATOM      7  C   UNL     1       6.711  -2.165  25.565  0.00  0.00    +0.016 A 
ATOM      8  C   UNL     1       7.469  -3.357  25.626  0.00  0.00    +0.100 A 
ATOM      9  N   UNL     1       8.491  -3.766  24.761  0.00  0.00    -0.235 NA
ATOM     10  C   UNL     1       9.016  -4.905  25.097  0.00  0.00    +0.199 A 
ATOM     11  N   UNL     1       8.657  -5.696  26.169  0.00  0.00    -0.312 N 
ATOM     12  H   UNL     1       9.124  -6.572  26.351  0.00  0.00    +0.170 HD
ATOM     13  C   UNL     1       7.652  -5.353  27.040  0.00  0.00    +0.275 A 
ATOM     14  O   UNL     1       7.321  -6.054  27.987  0.00  0.00    -0.266 OA
ATOM     15  C   UNL     1       7.070  -4.105  26.697  0.00  0.00    +0.130 A 
ATOM     16  N   UNL     1       6.055  -3.431  27.313  0.00  0.00    -0.355 N 
ATOM     17  H   UNL     1       5.558  -3.754  28.135  0.00  0.00    +0.166 HD
ATOM     18  C   UNL     1       5.823  -2.258  26.633  0.00  0.00    +0.090 A 
ENDBRANCH   3   7
BRANCH   1  19
ATOM     19  O   UNL     1       7.742   2.070  26.063  0.00  0.00    -0.388 OA
ATOM     20  H   UNL     1       8.082   2.919  25.736  0.00  0.00    +0.210 HD
ENDBRANCH   1  19
BRANCH   2  21
ATOM     21  O   UNL     1       5.330   0.863  24.296  0.00  0.00    -0.387 OA
ATOM     22  H   UNL     1       5.746   1.332  23.550  0.00  0.00    +0.210 HD
ENDBRANCH   2  21
BRANCH   6  23
ATOM     23  C   UNL     1      10.067   0.761  24.242  0.00  0.00    +0.193 C 
BRANCH  23  24
ATOM     24  O   UNL     1      10.031   2.166  24.414  0.00  0.00    -0.285 OA
BRANCH  24  25
ATOM     25  P   UNL     1      10.502   3.090  23.207  0.00  0.00    +0.472 P 
ATOM     26  O   UNL     1      11.800   3.806  23.325  0.00  0.00    -0.228 OA
BRANCH  25  27
ATOM     27  O   UNL     1       9.242   4.065  23.087  0.00  0.00    -0.303 OA
ATOM     28  H   UNL     1       8.641   3.748  22.386  0.00  0.00    +0.222 HD
ENDBRANCH  25  27
BRANCH  25  29
ATOM     29  O   UNL     1      10.265   2.189  21.915  0.00  0.00    -0.303 OA
ATOM     30  H   UNL     1      10.163   1.254  22.163  0.00  0.00    +0.222 HD
ENDBRANCH  25  29
ENDBRANCH  24  25
ENDBRANCH  23  24
ENDBRANCH   6  23
TORSDOF 8
ENDMDL
MODEL 9
REMARK VINA RESULT:      -6.5      3.266      7.519
REMARK  Name = 
REMARK  8 active torsions:
REMARK  status: ('A' for Active; 'I' for Inactive)
REMARK    1  A    between atoms: O_1  and  C_2
REMARK    2  A    between atoms: C_4  and  C_6
REMARK    3  A    between atoms: C_6  and  O_7
REMARK    4  A    between atoms: O_7  and  P_8
REMARK    5  A    between atoms: P_8  and  O_9
REMARK    6  A    between atoms: P_8  and  O_10
REMARK    7  A    between atoms: C_13  and  C_18
REMARK    8  A    between atoms: C_15  and  O_17
REMARK                            x       y       z     vdW  Elec       q    Type
REMARK                         _______ _______ _______ _____ _____    ______ ____
ROOT
ATOM      1  C   UNL     1       7.737  -1.246  22.677  0.00  0.00    +0.164 C 
ATOM      2  C   UNL     1       7.080  -2.579  23.051  0.00  0.00    +0.166 C 
ATOM      3  C   UNL     1       8.261  -3.553  23.272  0.00  0.00    +0.119 C 
ATOM      4  N   UNL     1       9.499  -2.792  23.011  0.00  0.00    -0.300 NA
ATOM      5  H   UNL     1      10.249  -3.106  23.623  0.00  0.00    +0.123 HD
ATOM      6  C   UNL     1       9.161  -1.385  23.234  0.00  0.00    +0.112 C 
ENDROOT
BRANCH   3   7
ATOM      7  C   UNL     1       8.277  -4.130  24.667  0.00  0.00    +0.016 A 
ATOM      8  C   UNL     1       7.245  -4.891  25.264  0.00  0.00    +0.100 A 
ATOM      9  N   UNL     1       6.022  -5.268  24.697  0.00  0.00    -0.235 NA
ATOM     10  C   UNL     1       5.294  -5.991  25.492  0.00  0.00    +0.199 A 
ATOM     11  N   UNL     1       5.614  -6.385  26.775  0.00  0.00    -0.312 N 
ATOM     12  H   UNL     1       4.980  -6.949  27.321  0.00  0.00    +0.170 HD
ATOM     13  C   UNL     1       6.792  -6.033  27.387  0.00  0.00    +0.275 A 
ATOM     14  O   UNL     1       7.078  -6.369  28.529  0.00  0.00    -0.266 OA
ATOM     15  C   UNL     1       7.608  -5.248  26.531  0.00  0.00    +0.130 A 
ATOM     16  N   UNL     1       8.840  -4.712  26.772  0.00  0.00    -0.355 N 
ATOM     17  H   UNL     1       9.356  -4.807  27.639  0.00  0.00    +0.166 HD
ATOM     18  C   UNL     1       9.253  -4.026  25.653  0.00  0.00    +0.090 A 
ENDBRANCH   3   7
BRANCH   1  19
ATOM     19  O   UNL     1       7.021  -0.163  23.278  0.00  0.00    -0.388 OA
ATOM     20  H   UNL     1       6.319   0.092  22.656  0.00  0.00    +0.210 HD
ENDBRANCH   1  19
BRANCH   2  21
ATOM     21  O   UNL     1       6.218  -3.007  21.987  0.00  0.00    -0.387 OA
ATOM     22  H   UNL     1       6.604  -3.831  21.640  0.00  0.00    +0.210 HD
ENDBRANCH   2  21
BRANCH   6  23
ATOM     23  C   UNL     1      10.159  -0.440  22.563  0.00  0.00    +0.193 C 
BRANCH  23  24
ATOM     24  O   UNL     1      10.425   0.614  23.470  0.00  0.00    -0.285 OA
BRANCH  24  25
ATOM     25  P   UNL     1       9.876   2.068  23.124  0.00  0.00    +0.472 P 
ATOM     26  O   UNL     1       8.500   2.428  23.554  0.00  0.00    -0.228 OA
BRANCH  25  27
ATOM     27  O   UNL     1      10.072   2.074  21.538  0.00  0.00    -0.303 OA
ATOM     28  H   UNL     1      10.367   2.957  21.242  0.00  0.00    +0.222 HD
ENDBRANCH  25  27
BRANCH  25  29
ATOM     29  O   UNL     1      11.065   3.041  23.542  0.00  0.00    -0.303 OA
ATOM     30  H   UNL     1      10.784   3.971  23.486  0.00  0.00    +0.222 HD
ENDBRANCH  25  29
ENDBRANCH  24  25
ENDBRANCH  23  24
ENDBRANCH   6  23
TORSDOF 8
ENDMDL
