MODEL 1
REMARK VINA RESULT:      -6.4      0.000      0.000
REMARK  Name = 
REMARK  12 active torsions:
REMARK  status: ('A' for Active; 'I' for Inactive)
REMARK    1  A    between atoms: O_1  and  C_2
REMARK    2  A    between atoms: C_2  and  C_3
REMARK    3  A    between atoms: C_6  and  O_8
REMARK    4  A    between atoms: C_9  and  N_11
REMARK    5  A    between atoms: N_11  and  S_12
REMARK    6  A    between atoms: C_16  and  O_18
REMARK    7  A    between atoms: C_19  and  O_21
REMARK    8  A    between atoms: O_21  and  C_22
REMARK    9  A    between atoms: C_25  and  C_37
REMARK   10  A    between atoms: C_27  and  O_29
REMARK   11  A    between atoms: C_30  and  O_32
REMARK   12  A    between atoms: O_32  and  S_33
REMARK                            x       y       z     vdW  Elec       q    Type
REMARK                         _______ _______ _______ _____ _____    ______ ____
ROOT
ATOM      1  C   UNL     1       5.552  -1.237  25.929  0.00  0.00    +0.178 C 
ATOM      2  C   UNL     1       6.684  -2.192  25.481  0.00  0.00    +0.184 C 
ATOM      3  C   UNL     1       7.896  -1.342  24.994  0.00  0.00    +0.169 C 
ATOM      4  C   UNL     1       7.464  -0.215  24.046  0.00  0.00    +0.162 C 
ATOM      5  C   UNL     1       6.277   0.585  24.597  0.00  0.00    +0.269 C 
ATOM      6  O   UNL     1       5.193  -0.279  24.912  0.00  0.00    -0.342 OA
ENDROOT
BRANCH   3   7
ATOM      7  O   UNL     1       8.882  -2.070  24.234  0.00  0.00    -0.387 OA
ATOM      8  H   UNL     1       9.660  -2.246  24.825  0.00  0.00    +0.210 HD
ENDBRANCH   3   7
BRANCH   4   9
ATOM      9  N   UNL     1       8.655   0.605  23.611  0.00  0.00    -0.193 NA
ATOM     10  H   UNL     1       8.561   1.536  24.026  0.00  0.00    +0.147 HD
BRANCH   9  11
ATOM     11  S   UNL     1       8.977   0.833  21.968  0.00  0.00    -0.016 S 
ATOM     12  O   UNL     1       7.791   1.510  21.464  0.00  0.00    -0.169 OA
ATOM     13  O   UNL     1       9.139  -0.540  21.502  0.00  0.00    -0.169 OA
ATOM     14  O   UNL     1      10.187   1.635  21.943  0.00  0.00    -0.710 OA
ENDBRANCH   9  11
ENDBRANCH   4   9
BRANCH   5  15
ATOM     15  O   UNL     1       5.824   1.490  23.595  0.00  0.00    -0.366 OA
ATOM     16  H   UNL     1       4.897   1.261  23.427  0.00  0.00    +0.213 HD
ENDBRANCH   5  15
BRANCH   1  17
ATOM     17  C   UNL     1       4.262  -1.981  26.301  0.00  0.00    +0.190 C 
BRANCH  17  18
ATOM     18  O   UNL     1       4.284  -2.266  27.712  0.00  0.00    -0.392 OA
ATOM     19  H   UNL     1       3.714  -3.052  27.809  0.00  0.00    +0.210 HD
ENDBRANCH  17  18
ENDBRANCH   1  17
BRANCH   2  20
ATOM     20  O   UNL     1       7.011  -2.989  26.645  0.00  0.00    -0.331 OA
BRANCH  20  21
ATOM     21  C   UNL     1       7.171  -4.386  26.343  0.00  0.00    +0.342 C 
ATOM     22  C   UNL     1       5.983  -5.213  26.873  0.00  0.00    +0.248 C 
ATOM     23  C   UNL     1       5.004  -5.637  25.771  0.00  0.00    +0.178 C 
ATOM     24  C   UNL     1       5.556  -5.633  24.394  0.00  0.00    +0.054 C 
ATOM     25  C   UNL     1       6.750  -5.119  24.078  0.00  0.00    +0.145 C 
ATOM     26  O   UNL     1       7.594  -4.567  25.002  0.00  0.00    -0.459 OA
BRANCH  25  27
ATOM     27  C   UNL     1       7.267  -5.089  22.593  0.00  0.00    +0.106 C 
ATOM     28  O   UNL     1       7.285  -6.206  21.993  0.00  0.00    -0.542 OA
ATOM     29  O   UNL     1       7.580  -3.945  22.145  0.00  0.00    -0.542 OA
ENDBRANCH  25  27
BRANCH  23  30
ATOM     30  O   UNL     1       4.466  -6.942  26.026  0.00  0.00    -0.385 OA
ATOM     31  H   UNL     1       4.926  -7.521  25.383  0.00  0.00    +0.210 HD
ENDBRANCH  23  30
BRANCH  22  32
ATOM     32  O   UNL     1       6.462  -6.401  27.542  0.00  0.00    -0.242 OA
BRANCH  32  33
ATOM     33  S   UNL     1       6.005  -6.663  29.092  0.00  0.00    -0.000 S 
ATOM     34  O   UNL     1       4.669  -7.239  28.989  0.00  0.00    -0.345 OA
ATOM     35  O   UNL     1       6.033  -5.335  29.704  0.00  0.00    -0.345 OA
ATOM     36  O   UNL     1       7.024  -7.583  29.586  0.00  0.00    -0.268 OA
ENDBRANCH  32  33
ENDBRANCH  22  32
ENDBRANCH  20  21
ENDBRANCH   2  20
TORSDOF 12
ENDMDL
MODEL 2
REMARK VINA RESULT:      -6.4      2.644      7.251
REMARK  Name = 
REMARK  12 active torsions:
REMARK  status: ('A' for Active; 'I' for Inactive)
REMARK    1  A    between atoms: O_1  and  C_2
REMARK    2  A    between atoms: C_2  and  C_3
REMARK    3  A    between atoms: C_6  and  O_8
REMARK    4  A    between atoms: C_9  and  N_11
REMARK    5  A    between atoms: N_11  and  S_12
REMARK    6  A    between atoms: C_16  and  O_18
REMARK    7  A    between atoms: C_19  and  O_21
REMARK    8  A    between atoms: O_21  and  C_22
REMARK    9  A    between atoms: C_25  and  C_37
REMARK   10  A    between atoms: C_27  and  O_29
REMARK   11  A    between atoms: C_30  and  O_32
REMARK   12  A    between atoms: O_32  and  S_33
REMARK                            x       y       z     vdW  Elec       q    Type
REMARK                         _______ _______ _______ _____ _____    ______ ____
ROOT
ATOM      1  C   UNL     1       8.341  -4.400  26.497  0.00  0.00    +0.178 C 
ATOM      2  C   UNL     1       7.338  -3.342  25.979  0.00  0.00    +0.184 C 
ATOM      3  C   UNL     1       6.164  -3.222  26.996  0.00  0.00    +0.169 C 
ATOM      4  C   UNL     1       5.632  -4.595  27.426  0.00  0.00    +0.162 C 
ATOM      5  C   UNL     1       6.757  -5.556  27.829  0.00  0.00    +0.269 C 
ATOM      6  O   UNL     1       7.718  -5.668  26.787  0.00  0.00    -0.342 OA
ENDROOT
BRANCH   3   7
ATOM      7  O   UNL     1       4.995  -2.541  26.498  0.00  0.00    -0.387 OA
ATOM      8  H   UNL     1       5.019  -1.604  26.825  0.00  0.00    +0.210 HD
ENDBRANCH   3   7
BRANCH   4   9
ATOM      9  N   UNL     1       4.514  -4.446  28.429  0.00  0.00    -0.193 NA
ATOM     10  H   UNL     1       4.823  -4.871  29.307  0.00  0.00    +0.147 HD
BRANCH   9  11
ATOM     11  S   UNL     1       2.982  -5.077  28.096  0.00  0.00    -0.016 S 
ATOM     12  O   UNL     1       2.497  -4.269  26.986  0.00  0.00    -0.169 OA
ATOM     13  O   UNL     1       2.287  -4.855  29.360  0.00  0.00    -0.169 OA
ATOM     14  O   UNL     1       3.226  -6.470  27.769  0.00  0.00    -0.710 OA
ENDBRANCH   9  11
ENDBRANCH   4   9
BRANCH   5  15
ATOM     15  O   UNL     1       6.206  -6.851  28.043  0.00  0.00    -0.366 OA
ATOM     16  H   UNL     1       5.545  -6.749  28.744  0.00  0.00    +0.213 HD
ENDBRANCH   5  15
BRANCH   1  17
ATOM     17  C   UNL     1       9.468  -4.689  25.494  0.00  0.00    +0.190 C 
BRANCH  17  18
ATOM     18  O   UNL     1       9.838  -6.076  25.602  0.00  0.00    -0.392 OA
ATOM     19  H   UNL     1      10.787  -6.056  25.826  0.00  0.00    +0.210 HD
ENDBRANCH  17  18
ENDBRANCH   1  17
BRANCH   2  20
ATOM     20  O   UNL     1       8.089  -2.110  25.865  0.00  0.00    -0.331 OA
BRANCH  20  21
ATOM     21  C   UNL     1       7.846  -1.415  24.629  0.00  0.00    +0.342 C 
ATOM     22  C   UNL     1       9.155  -1.186  23.849  0.00  0.00    +0.248 C 
ATOM     23  C   UNL     1       9.323  -2.139  22.659  0.00  0.00    +0.178 C 
ATOM     24  C   UNL     1       8.070  -2.754  22.156  0.00  0.00    +0.054 C 
ATOM     25  C   UNL     1       6.895  -2.661  22.788  0.00  0.00    +0.145 C 
ATOM     26  O   UNL     1       6.727  -1.964  23.953  0.00  0.00    -0.459 OA
BRANCH  25  27
ATOM     27  C   UNL     1       5.607  -3.379  22.243  0.00  0.00    +0.106 C 
ATOM     28  O   UNL     1       5.610  -3.649  21.004  0.00  0.00    -0.542 OA
ATOM     29  O   UNL     1       4.717  -3.640  23.107  0.00  0.00    -0.542 OA
ENDBRANCH  25  27
BRANCH  23  30
ATOM     30  O   UNL     1       9.967  -1.486  21.555  0.00  0.00    -0.385 OA
ATOM     31  H   UNL     1      10.377  -2.218  21.049  0.00  0.00    +0.210 HD
ENDBRANCH  23  30
BRANCH  22  32
ATOM     32  O   UNL     1       9.212   0.173  23.360  0.00  0.00    -0.242 OA
BRANCH  32  33
ATOM     33  S   UNL     1      10.006   1.293  24.252  0.00  0.00    -0.000 S 
ATOM     34  O   UNL     1       8.963   1.951  25.030  0.00  0.00    -0.345 OA
ATOM     35  O   UNL     1      10.640   2.159  23.259  0.00  0.00    -0.345 OA
ATOM     36  O   UNL     1      10.933   0.490  25.041  0.00  0.00    -0.268 OA
ENDBRANCH  32  33
ENDBRANCH  22  32
ENDBRANCH  20  21
ENDBRANCH   2  20
TORSDOF 12
ENDMDL
MODEL 3
REMARK VINA RESULT:      -6.4      2.705      5.079
REMARK  Name = 
REMARK  12 active torsions:
REMARK  status: ('A' for Active; 'I' for Inactive)
REMARK    1  A    between atoms: O_1  and  C_2
REMARK    2  A    between atoms: C_2  and  C_3
REMARK    3  A    between atoms: C_6  and  O_8
REMARK    4  A    between atoms: C_9  and  N_11
REMARK    5  A    between atoms: N_11  and  S_12
REMARK    6  A    between atoms: C_16  and  O_18
REMARK    7  A    between atoms: C_19  and  O_21
REMARK    8  A    between atoms: O_21  and  C_22
REMARK    9  A    between atoms: C_25  and  C_37
REMARK   10  A    between atoms: C_27  and  O_29
REMARK   11  A    between atoms: C_30  and  O_32
REMARK   12  A    between atoms: O_32  and  S_33
REMARK                            x       y       z     vdW  Elec       q    Type
REMARK                         _______ _______ _______ _____ _____    ______ ____
ROOT
ATOM      1  C   UNL     1       9.349  -0.785  22.238  0.00  0.00    +0.178 C 
ATOM      2  C   UNL     1       7.993  -0.603  22.962  0.00  0.00    +0.184 C 
ATOM      3  C   UNL     1       7.308   0.689  22.425  0.00  0.00    +0.169 C 
ATOM      4  C   UNL     1       8.279   1.875  22.368  0.00  0.00    +0.162 C 
ATOM      5  C   UNL     1       9.608   1.508  21.697  0.00  0.00    +0.269 C 
ATOM      6  O   UNL     1      10.195   0.379  22.331  0.00  0.00    -0.342 OA
ENDROOT
BRANCH   3   7
ATOM      7  O   UNL     1       6.217   1.177  23.231  0.00  0.00    -0.387 OA
ATOM      8  H   UNL     1       5.692   1.820  22.687  0.00  0.00    +0.210 HD
ENDBRANCH   3   7
BRANCH   4   9
ATOM      9  N   UNL     1       7.593   3.104  21.822  0.00  0.00    -0.193 NA
ATOM     10  H   UNL     1       8.069   3.368  20.955  0.00  0.00    +0.147 HD
BRANCH   9  11
ATOM     11  S   UNL     1       7.479   4.504  22.761  0.00  0.00    -0.016 S 
ATOM     12  O   UNL     1       7.290   5.571  21.788  0.00  0.00    -0.169 OA
ATOM     13  O   UNL     1       8.774   4.517  23.435  0.00  0.00    -0.169 OA
ATOM     14  O   UNL     1       6.340   4.269  23.629  0.00  0.00    -0.710 OA
ENDBRANCH   9  11
ENDBRANCH   4   9
BRANCH   5  15
ATOM     15  O   UNL     1      10.515   2.596  21.838  0.00  0.00    -0.366 OA
ATOM     16  H   UNL     1      11.310   2.349  21.342  0.00  0.00    +0.213 HD
ENDBRANCH   5  15
BRANCH   1  17
ATOM     17  C   UNL     1      10.164  -1.961  22.796  0.00  0.00    +0.190 C 
BRANCH  17  18
ATOM     18  O   UNL     1       9.879  -2.095  24.201  0.00  0.00    -0.392 OA
ATOM     19  H   UNL     1      10.633  -1.663  24.643  0.00  0.00    +0.210 HD
ENDBRANCH  17  18
ENDBRANCH   1  17
BRANCH   2  20
ATOM     20  O   UNL     1       7.224  -1.792  22.664  0.00  0.00    -0.331 OA
BRANCH  20  21
ATOM     21  C   UNL     1       6.325  -2.161  23.723  0.00  0.00    +0.342 C 
ATOM     22  C   UNL     1       6.332  -3.684  23.960  0.00  0.00    +0.248 C 
ATOM     23  C   UNL     1       7.120  -4.097  25.209  0.00  0.00    +0.178 C 
ATOM     24  C   UNL     1       7.317  -3.028  26.218  0.00  0.00    +0.054 C 
ATOM     25  C   UNL     1       7.015  -1.743  26.002  0.00  0.00    +0.145 C 
ATOM     26  O   UNL     1       6.469  -1.290  24.833  0.00  0.00    -0.459 OA
BRANCH  25  27
ATOM     27  C   UNL     1       7.295  -0.637  27.085  0.00  0.00    +0.106 C 
ATOM     28  O   UNL     1       8.513  -0.463  27.392  0.00  0.00    -0.542 OA
ATOM     29  O   UNL     1       6.275  -0.016  27.512  0.00  0.00    -0.542 OA
ENDBRANCH  25  27
BRANCH  23  30
ATOM     30  O   UNL     1       6.506  -5.215  25.866  0.00  0.00    -0.385 OA
ATOM     31  H   UNL     1       6.814  -5.147  26.794  0.00  0.00    +0.210 HD
ENDBRANCH  23  30
BRANCH  22  32
ATOM     32  O   UNL     1       4.979  -4.174  24.088  0.00  0.00    -0.242 OA
BRANCH  32  33
ATOM     33  S   UNL     1       4.474  -5.353  23.070  0.00  0.00    -0.000 S 
ATOM     34  O   UNL     1       3.040  -5.131  22.930  0.00  0.00    -0.345 OA
ATOM     35  O   UNL     1       4.818  -6.595  23.761  0.00  0.00    -0.345 OA
ATOM     36  O   UNL     1       5.247  -5.097  21.859  0.00  0.00    -0.268 OA
ENDBRANCH  32  33
ENDBRANCH  22  32
ENDBRANCH  20  21
ENDBRANCH   2  20
TORSDOF 12
ENDMDL
MODEL 4
REMARK VINA RESULT:      -6.3      2.514      4.860
REMARK  Name = 
REMARK  12 active torsions:
REMARK  status: ('A' for Active; 'I' for Inactive)
REMARK    1  A    between atoms: O_1  and  C_2
REMARK    2  A    between atoms: C_2  and  C_3
REMARK    3  A    between atoms: C_6  and  O_8
REMARK    4  A    between atoms: C_9  and  N_11
REMARK    5  A    between atoms: N_11  and  S_12
REMARK    6  A    between atoms: C_16  and  O_18
REMARK    7  A    between atoms: C_19  and  O_21
REMARK    8  A    between atoms: O_21  and  C_22
REMARK    9  A    between atoms: C_25  and  C_37
REMARK   10  A    between atoms: C_27  and  O_29
REMARK   11  A    between atoms: C_30  and  O_32
REMARK   12  A    between atoms: O_32  and  S_33
REMARK                            x       y       z     vdW  Elec       q    Type
REMARK                         _______ _______ _______ _____ _____    ______ ____
ROOT
ATOM      1  C   UNL     1       9.015  -4.161  24.701  0.00  0.00    +0.178 C 
ATOM      2  C   UNL     1       7.857  -3.446  25.437  0.00  0.00    +0.184 C 
ATOM      3  C   UNL     1       7.200  -2.421  24.465  0.00  0.00    +0.169 C 
ATOM      4  C   UNL     1       8.246  -1.570  23.733  0.00  0.00    +0.162 C 
ATOM      5  C   UNL     1       9.371  -2.421  23.131  0.00  0.00    +0.269 C 
ATOM      6  O   UNL     1       9.966  -3.241  24.128  0.00  0.00    -0.342 OA
ENDROOT
BRANCH   3   7
ATOM      7  O   UNL     1       6.345  -1.447  25.096  0.00  0.00    -0.387 OA
ATOM      8  H   UNL     1       5.662  -1.933  25.628  0.00  0.00    +0.210 HD
ENDBRANCH   3   7
BRANCH   4   9
ATOM      9  N   UNL     1       7.579  -0.606  22.781  0.00  0.00    -0.193 NA
ATOM     10  H   UNL     1       7.517  -1.063  21.867  0.00  0.00    +0.147 HD
BRANCH   9  11
ATOM     11  S   UNL     1       8.245   0.925  22.515  0.00  0.00    -0.016 S 
ATOM     12  O   UNL     1       9.001   0.774  21.281  0.00  0.00    -0.169 OA
ATOM     13  O   UNL     1       9.061   1.106  23.711  0.00  0.00    -0.169 OA
ATOM     14  O   UNL     1       7.097   1.808  22.418  0.00  0.00    -0.710 OA
ENDBRANCH   9  11
ENDBRANCH   4   9
BRANCH   5  15
ATOM     15  O   UNL     1      10.385  -1.557  22.627  0.00  0.00    -0.366 OA
ATOM     16  H   UNL     1      10.640  -0.984  23.366  0.00  0.00    +0.213 HD
ENDBRANCH   5  15
BRANCH   1  17
ATOM     17  C   UNL     1       9.814  -5.096  25.621  0.00  0.00    +0.190 C 
BRANCH  17  18
ATOM     18  O   UNL     1       9.467  -4.806  26.988  0.00  0.00    -0.392 OA
ATOM     19  H   UNL     1       8.634  -5.292  27.134  0.00  0.00    +0.210 HD
ENDBRANCH  17  18
ENDBRANCH   1  17
BRANCH   2  20
ATOM     20  O   UNL     1       6.936  -4.491  25.832  0.00  0.00    -0.331 OA
BRANCH  20  21
ATOM     21  C   UNL     1       5.727  -4.499  25.054  0.00  0.00    +0.342 C 
ATOM     22  C   UNL     1       5.615  -5.780  24.206  0.00  0.00    +0.248 C 
ATOM     23  C   UNL     1       4.619  -6.798  24.778  0.00  0.00    +0.178 C 
ATOM     24  C   UNL     1       3.606  -6.242  25.707  0.00  0.00    +0.054 C 
ATOM     25  C   UNL     1       3.647  -4.992  26.185  0.00  0.00    +0.145 C 
ATOM     26  O   UNL     1       4.619  -4.093  25.841  0.00  0.00    -0.459 OA
BRANCH  25  27
ATOM     27  C   UNL     1       2.580  -4.468  27.213  0.00  0.00    +0.106 C 
ATOM     28  O   UNL     1       2.991  -3.597  28.038  0.00  0.00    -0.542 OA
ATOM     29  O   UNL     1       1.413  -4.948  27.086  0.00  0.00    -0.542 OA
ENDBRANCH  25  27
BRANCH  23  30
ATOM     30  O   UNL     1       3.924  -7.490  23.732  0.00  0.00    -0.385 OA
ATOM     31  H   UNL     1       3.213  -7.979  24.198  0.00  0.00    +0.210 HD
ENDBRANCH  23  30
BRANCH  22  32
ATOM     32  O   UNL     1       5.211  -5.451  22.858  0.00  0.00    -0.242 OA
BRANCH  32  33
ATOM     33  S   UNL     1       6.369  -5.292  21.711  0.00  0.00    -0.000 S 
ATOM     34  O   UNL     1       5.810  -5.940  20.531  0.00  0.00    -0.345 OA
ATOM     35  O   UNL     1       7.528  -5.982  22.275  0.00  0.00    -0.345 OA
ATOM     36  O   UNL     1       6.519  -3.845  21.593  0.00  0.00    -0.268 OA
ENDBRANCH  32  33
ENDBRANCH  22  32
ENDBRANCH  20  21
ENDBRANCH   2  20
TORSDOF 12
ENDMDL
MODEL 5
REMARK VINA RESULT:      -6.2      2.933      8.521
REMARK  Name = 
REMARK  12 active torsions:
REMARK  status: ('A' for Active; 'I' for Inactive)
REMARK    1  A    between atoms: O_1  and  C_2
REMARK    2  A    between atoms: C_2  and  C_3
REMARK    3  A    between atoms: C_6  and  O_8
REMARK    4  A    between atoms: C_9  and  N_11
REMARK    5  A    between atoms: N_11  and  S_12
REMARK    6  A    between atoms: C_16  and  O_18
REMARK    7  A    between atoms: C_19  and  O_21
REMARK    8  A    between atoms: O_21  and  C_22
REMARK    9  A    between atoms: C_25  and  C_37
REMARK   10  A    between atoms: C_27  and  O_29
REMARK   11  A    between atoms: C_30  and  O_32
REMARK   12  A    between atoms: O_32  and  S_33
REMARK                            x       y       z     vdW  Elec       q    Type
REMARK                         _______ _______ _______ _____ _____    ______ ____
ROOT
ATOM      1  C   UNL     1      10.028  -0.948  23.477  0.00  0.00    +0.178 C 
ATOM      2  C   UNL     1       9.129  -0.225  24.508  0.00  0.00    +0.184 C 
ATOM      3  C   UNL     1       8.930  -1.156  25.742  0.00  0.00    +0.169 C 
ATOM      4  C   UNL     1       8.573  -2.590  25.329  0.00  0.00    +0.162 C 
ATOM      5  C   UNL     1       9.506  -3.131  24.239  0.00  0.00    +0.269 C 
ATOM      6  O   UNL     1       9.532  -2.254  23.120  0.00  0.00    -0.342 OA
ENDROOT
BRANCH   3   7
ATOM      7  O   UNL     1       7.855  -0.774  26.624  0.00  0.00    -0.387 OA
ATOM      8  H   UNL     1       7.949  -1.289  27.467  0.00  0.00    +0.210 HD
ENDBRANCH   3   7
BRANCH   4   9
ATOM      9  N   UNL     1       8.412  -3.472  26.544  0.00  0.00    -0.193 NA
ATOM     10  H   UNL     1       9.158  -4.172  26.522  0.00  0.00    +0.147 HD
BRANCH   9  11
ATOM     11  S   UNL     1       6.966  -4.308  26.802  0.00  0.00    -0.016 S 
ATOM     12  O   UNL     1       6.697  -4.955  25.527  0.00  0.00    -0.169 OA
ATOM     13  O   UNL     1       6.051  -3.224  27.141  0.00  0.00    -0.169 OA
ATOM     14  O   UNL     1       7.265  -5.220  27.892  0.00  0.00    -0.710 OA
ENDBRANCH   9  11
ENDBRANCH   4   9
BRANCH   5  15
ATOM     15  O   UNL     1       9.009  -4.387  23.786  0.00  0.00    -0.366 OA
ATOM     16  H   UNL     1       9.613  -5.057  24.141  0.00  0.00    +0.213 HD
ENDBRANCH   5  15
BRANCH   1  17
ATOM     17  C   UNL     1      10.172  -0.164  22.164  0.00  0.00    +0.190 C 
BRANCH  17  18
ATOM     18  O   UNL     1       9.619  -0.951  21.093  0.00  0.00    -0.392 OA
ATOM     19  H   UNL     1       9.302  -0.292  20.448  0.00  0.00    +0.210 HD
ENDBRANCH  17  18
ENDBRANCH   1  17
BRANCH   2  20
ATOM     20  O   UNL     1       9.827   0.995  24.853  0.00  0.00    -0.331 OA
BRANCH  20  21
ATOM     21  C   UNL     1       8.952   2.129  24.978  0.00  0.00    +0.342 C 
ATOM     22  C   UNL     1       9.190   3.149  23.849  0.00  0.00    +0.248 C 
ATOM     23  C   UNL     1       8.108   3.111  22.762  0.00  0.00    +0.178 C 
ATOM     24  C   UNL     1       6.817   2.507  23.173  0.00  0.00    +0.054 C 
ATOM     25  C   UNL     1       6.638   1.860  24.330  0.00  0.00    +0.145 C 
ATOM     26  O   UNL     1       7.626   1.713  25.264  0.00  0.00    -0.459 OA
BRANCH  25  27
ATOM     27  C   UNL     1       5.264   1.188  24.694  0.00  0.00    +0.106 C 
ATOM     28  O   UNL     1       5.308  -0.053  24.948  0.00  0.00    -0.542 OA
ATOM     29  O   UNL     1       4.264   1.967  24.727  0.00  0.00    -0.542 OA
ENDBRANCH  25  27
BRANCH  23  30
ATOM     30  O   UNL     1       7.837   4.424  22.250  0.00  0.00    -0.385 OA
ATOM     31  H   UNL     1       6.976   4.330  21.792  0.00  0.00    +0.210 HD
ENDBRANCH  23  30
BRANCH  22  32
ATOM     32  O   UNL     1       9.249   4.488  24.391  0.00  0.00    -0.242 OA
BRANCH  32  33
ATOM     33  S   UNL     1      10.465   5.474  23.910  0.00  0.00    -0.000 S 
ATOM     34  O   UNL     1      11.457   4.578  23.328  0.00  0.00    -0.345 OA
ATOM     35  O   UNL     1      10.904   6.127  25.142  0.00  0.00    -0.345 OA
ATOM     36  O   UNL     1       9.812   6.359  22.951  0.00  0.00    -0.268 OA
ENDBRANCH  32  33
ENDBRANCH  22  32
ENDBRANCH  20  21
ENDBRANCH   2  20
TORSDOF 12
ENDMDL
MODEL 6
REMARK VINA RESULT:      -6.1      2.314      7.606
REMARK  Name = 
REMARK  12 active torsions:
REMARK  status: ('A' for Active; 'I' for Inactive)
REMARK    1  A    between atoms: O_1  and  C_2
REMARK    2  A    between atoms: C_2  and  C_3
REMARK    3  A    between atoms: C_6  and  O_8
REMARK    4  A    between atoms: C_9  and  N_11
REMARK    5  A    between atoms: N_11  and  S_12
REMARK    6  A    between atoms: C_16  and  O_18
REMARK    7  A    between atoms: C_19  and  O_21
REMARK    8  A    between atoms: O_21  and  C_22
REMARK    9  A    between atoms: C_25  and  C_37
REMARK   10  A    between atoms: C_27  and  O_29
REMARK   11  A    between atoms: C_30  and  O_32
REMARK   12  A    between atoms: O_32  and  S_33
REMARK                            x       y       z     vdW  Elec       q    Type
REMARK                         _______ _______ _______ _____ _____    ______ ____
ROOT
ATOM      1  C   UNL     1       9.498  -2.511  23.769  0.00  0.00    +0.178 C 
ATOM      2  C   UNL     1       8.105  -2.848  23.185  0.00  0.00    +0.184 C 
ATOM      3  C   UNL     1       7.351  -3.772  24.187  0.00  0.00    +0.169 C 
ATOM      4  C   UNL     1       8.237  -4.919  24.691  0.00  0.00    +0.162 C 
ATOM      5  C   UNL     1       9.614  -4.430  25.156  0.00  0.00    +0.269 C 
ATOM      6  O   UNL     1      10.254  -3.686  24.128  0.00  0.00    -0.342 OA
ENDROOT
BRANCH   3   7
ATOM      7  O   UNL     1       6.197  -4.444  23.643  0.00  0.00    -0.387 OA
ATOM      8  H   UNL     1       5.618  -3.763  23.211  0.00  0.00    +0.210 HD
ENDBRANCH   3   7
BRANCH   4   9
ATOM      9  N   UNL     1       7.486  -5.781  25.677  0.00  0.00    -0.193 NA
ATOM     10  H   UNL     1       6.708  -6.222  25.178  0.00  0.00    +0.147 HD
BRANCH   9  11
ATOM     11  S   UNL     1       6.838  -5.101  27.082  0.00  0.00    -0.016 S 
ATOM     12  O   UNL     1       7.545  -3.836  27.224  0.00  0.00    -0.169 OA
ATOM     13  O   UNL     1       7.179  -6.105  28.084  0.00  0.00    -0.169 OA
ATOM     14  O   UNL     1       5.419  -4.972  26.803  0.00  0.00    -0.710 OA
ENDBRANCH   9  11
ENDBRANCH   4   9
BRANCH   5  15
ATOM     15  O   UNL     1      10.434  -5.558  25.440  0.00  0.00    -0.366 OA
ATOM     16  H   UNL     1      11.215  -5.213  25.898  0.00  0.00    +0.213 HD
ENDBRANCH   5  15
BRANCH   1  17
ATOM     17  C   UNL     1      10.373  -1.713  22.791  0.00  0.00    +0.190 C 
BRANCH  17  18
ATOM     18  O   UNL     1       9.745  -1.724  21.495  0.00  0.00    -0.392 OA
ATOM     19  H   UNL     1      10.343  -2.260  20.942  0.00  0.00    +0.210 HD
ENDBRANCH  17  18
ENDBRANCH   1  17
BRANCH   2  20
ATOM     20  O   UNL     1       7.436  -1.578  23.004  0.00  0.00    -0.331 OA
BRANCH  20  21
ATOM     21  C   UNL     1       7.611  -0.686  24.119  0.00  0.00    +0.342 C 
ATOM     22  C   UNL     1       7.750   0.776  23.650  0.00  0.00    +0.248 C 
ATOM     23  C   UNL     1       6.479   1.605  23.875  0.00  0.00    +0.178 C 
ATOM     24  C   UNL     1       5.545   1.071  24.896  0.00  0.00    +0.054 C 
ATOM     25  C   UNL     1       5.673  -0.137  25.456  0.00  0.00    +0.145 C 
ATOM     26  O   UNL     1       6.697  -0.993  25.159  0.00  0.00    -0.459 OA
BRANCH  25  27
ATOM     27  C   UNL     1       4.623  -0.680  26.493  0.00  0.00    +0.106 C 
ATOM     28  O   UNL     1       3.469  -0.157  26.434  0.00  0.00    -0.542 OA
ATOM     29  O   UNL     1       5.034  -1.606  27.256  0.00  0.00    -0.542 OA
ENDBRANCH  25  27
BRANCH  23  30
ATOM     30  O   UNL     1       6.796   2.957  24.233  0.00  0.00    -0.385 OA
ATOM     31  H   UNL     1       6.607   3.472  23.420  0.00  0.00    +0.210 HD
ENDBRANCH  23  30
BRANCH  22  32
ATOM     32  O   UNL     1       8.845   1.418  24.341  0.00  0.00    -0.242 OA
BRANCH  32  33
ATOM     33  S   UNL     1      10.068   2.048  23.452  0.00  0.00    -0.000 S 
ATOM     34  O   UNL     1       9.899   1.463  22.128  0.00  0.00    -0.345 OA
ATOM     35  O   UNL     1      11.278   1.608  24.146  0.00  0.00    -0.345 OA
ATOM     36  O   UNL     1       9.817   3.484  23.516  0.00  0.00    -0.268 OA
ENDBRANCH  32  33
ENDBRANCH  22  32
ENDBRANCH  20  21
ENDBRANCH   2  20
TORSDOF 12
ENDMDL
MODEL 7
REMARK VINA RESULT:      -6.0      2.735      4.894
REMARK  Name = 
REMARK  12 active torsions:
REMARK  status: ('A' for Active; 'I' for Inactive)
REMARK    1  A    between atoms: O_1  and  C_2
REMARK    2  A    between atoms: C_2  and  C_3
REMARK    3  A    between atoms: C_6  and  O_8
REMARK    4  A    between atoms: C_9  and  N_11
REMARK    5  A    between atoms: N_11  and  S_12
REMARK    6  A    between atoms: C_16  and  O_18
REMARK    7  A    between atoms: C_19  and  O_21
REMARK    8  A    between atoms: O_21  and  C_22
REMARK    9  A    between atoms: C_25  and  C_37
REMARK   10  A    between atoms: C_27  and  O_29
REMARK   11  A    between atoms: C_30  and  O_32
REMARK   12  A    between atoms: O_32  and  S_33
REMARK                            x       y       z     vdW  Elec       q    Type
REMARK                         _______ _______ _______ _____ _____    ______ ____
ROOT
ATOM      1  C   UNL     1       8.717  -0.498  22.371  0.00  0.00    +0.178 C 
ATOM      2  C   UNL     1       7.974  -0.074  23.660  0.00  0.00    +0.184 C 
ATOM      3  C   UNL     1       7.588   1.431  23.547  0.00  0.00    +0.169 C 
ATOM      4  C   UNL     1       8.760   2.290  23.055  0.00  0.00    +0.162 C 
ATOM      5  C   UNL     1       9.443   1.690  21.820  0.00  0.00    +0.269 C 
ATOM      6  O   UNL     1       9.844   0.349  22.070  0.00  0.00    -0.342 OA
ENDROOT
BRANCH   3   7
ATOM      7  O   UNL     1       7.202   2.055  24.788  0.00  0.00    -0.387 OA
ATOM      8  H   UNL     1       7.612   1.542  25.533  0.00  0.00    +0.210 HD
ENDBRANCH   3   7
BRANCH   4   9
ATOM      9  N   UNL     1       8.349   3.737  22.932  0.00  0.00    -0.193 NA
ATOM     10  H   UNL     1       8.440   4.005  21.947  0.00  0.00    +0.147 HD
BRANCH   9  11
ATOM     11  S   UNL     1       9.138   4.927  23.835  0.00  0.00    -0.016 S 
ATOM     12  O   UNL     1       8.775   6.173  23.177  0.00  0.00    -0.169 OA
ATOM     13  O   UNL     1      10.537   4.540  23.679  0.00  0.00    -0.169 OA
ATOM     14  O   UNL     1       8.608   4.775  25.178  0.00  0.00    -0.710 OA
ENDBRANCH   9  11
ENDBRANCH   4   9
BRANCH   5  15
ATOM     15  O   UNL     1      10.619   2.440  21.531  0.00  0.00    -0.366 OA
ATOM     16  H   UNL     1      11.363   1.901  21.841  0.00  0.00    +0.213 HD
ENDBRANCH   5  15
BRANCH   1  17
ATOM     17  C   UNL     1       9.258  -1.933  22.444  0.00  0.00    +0.190 C 
BRANCH  17  18
ATOM     18  O   UNL     1       8.162  -2.849  22.267  0.00  0.00    -0.392 OA
ATOM     19  H   UNL     1       8.589  -3.717  22.141  0.00  0.00    +0.210 HD
ENDBRANCH  17  18
ENDBRANCH   1  17
BRANCH   2  20
ATOM     20  O   UNL     1       6.809  -0.930  23.744  0.00  0.00    -0.331 OA
BRANCH  20  21
ATOM     21  C   UNL     1       6.623  -1.502  25.050  0.00  0.00    +0.342 C 
ATOM     22  C   UNL     1       5.128  -1.612  25.406  0.00  0.00    +0.248 C 
ATOM     23  C   UNL     1       4.583  -3.041  25.291  0.00  0.00    +0.178 C 
ATOM     24  C   UNL     1       5.604  -4.116  25.347  0.00  0.00    +0.054 C 
ATOM     25  C   UNL     1       6.922  -3.887  25.304  0.00  0.00    +0.145 C 
ATOM     26  O   UNL     1       7.460  -2.633  25.230  0.00  0.00    -0.459 OA
BRANCH  25  27
ATOM     27  C   UNL     1       7.962  -5.066  25.310  0.00  0.00    +0.106 C 
ATOM     28  O   UNL     1       8.761  -5.101  24.326  0.00  0.00    -0.542 OA
ATOM     29  O   UNL     1       7.913  -5.837  26.316  0.00  0.00    -0.542 OA
ENDBRANCH  25  27
BRANCH  23  30
ATOM     30  O   UNL     1       3.605  -3.309  26.305  0.00  0.00    -0.385 OA
ATOM     31  H   UNL     1       4.062  -3.915  26.925  0.00  0.00    +0.210 HD
ENDBRANCH  23  30
BRANCH  22  32
ATOM     32  O   UNL     1       4.901  -1.142  26.754  0.00  0.00    -0.242 OA
BRANCH  32  33
ATOM     33  S   UNL     1       3.951   0.174  26.974  0.00  0.00    -0.000 S 
ATOM     34  O   UNL     1       4.263   0.632  28.322  0.00  0.00    -0.345 OA
ATOM     35  O   UNL     1       2.589  -0.338  26.820  0.00  0.00    -0.345 OA
ATOM     36  O   UNL     1       4.385   1.076  25.912  0.00  0.00    -0.268 OA
ENDBRANCH  32  33
ENDBRANCH  22  32
ENDBRANCH  20  21
ENDBRANCH   2  20
TORSDOF 12
ENDMDL
MODEL 8
REMARK VINA RESULT:      -5.9      2.393      4.844
REMARK  Name = 
REMARK  12 active torsions:
REMARK  status: ('A' for Active; 'I' for Inactive)
REMARK    1  A    between atoms: O_1  and  C_2
REMARK    2  A    between atoms: C_2  and  C_3
REMARK    3  A    between atoms: C_6  and  O_8
REMARK    4  A    between atoms: C_9  and  N_11
REMARK    5  A    between atoms: N_11  and  S_12
REMARK    6  A    between atoms: C_16  and  O_18
REMARK    7  A    between atoms: C_19  and  O_21
REMARK    8  A    between atoms: O_21  and  C_22
REMARK    9  A    between atoms: C_25  and  C_37
REMARK   10  A    between atoms: C_27  and  O_29
REMARK   11  A    between atoms: C_30  and  O_32
REMARK   12  A    between atoms: O_32  and  S_33
REMARK                            x       y       z     vdW  Elec       q    Type
REMARK                         _______ _______ _______ _____ _____    ______ ____
ROOT
ATOM      1  C   UNL     1       8.872  -3.949  24.758  0.00  0.00    +0.178 C 
ATOM      2  C   UNL     1       7.795  -2.983  25.308  0.00  0.00    +0.184 C 
ATOM      3  C   UNL     1       7.380  -1.996  24.176  0.00  0.00    +0.169 C 
ATOM      4  C   UNL     1       8.598  -1.407  23.451  0.00  0.00    +0.162 C 
ATOM      5  C   UNL     1       9.611  -2.485  23.046  0.00  0.00    +0.269 C 
ATOM      6  O   UNL     1       9.996  -3.260  24.174  0.00  0.00    -0.342 OA
ENDROOT
BRANCH   3   7
ATOM      7  O   UNL     1       6.651  -0.834  24.620  0.00  0.00    -0.387 OA
ATOM      8  H   UNL     1       7.307  -0.152  24.919  0.00  0.00    +0.210 HD
ENDBRANCH   3   7
BRANCH   4   9
ATOM      9  N   UNL     1       8.163  -0.475  22.346  0.00  0.00    -0.193 NA
ATOM     10  H   UNL     1       8.449  -0.893  21.455  0.00  0.00    +0.147 HD
BRANCH   9  11
ATOM     11  S   UNL     1       8.697   1.128  22.325  0.00  0.00    -0.016 S 
ATOM     12  O   UNL     1      10.082   1.036  21.886  0.00  0.00    -0.169 OA
ATOM     13  O   UNL     1       8.525   1.517  23.721  0.00  0.00    -0.169 OA
ATOM     14  O   UNL     1       7.809   1.795  21.390  0.00  0.00    -0.710 OA
ENDBRANCH   9  11
ENDBRANCH   4   9
BRANCH   5  15
ATOM     15  O   UNL     1      10.783  -1.852  22.543  0.00  0.00    -0.366 OA
ATOM     16  H   UNL     1      10.728  -0.926  22.822  0.00  0.00    +0.213 HD
ENDBRANCH   5  15
BRANCH   1  17
ATOM     17  C   UNL     1       9.444  -4.876  25.840  0.00  0.00    +0.190 C 
BRANCH  17  18
ATOM     18  O   UNL     1       8.488  -5.920  26.106  0.00  0.00    -0.392 OA
ATOM     19  H   UNL     1       8.381  -6.373  25.249  0.00  0.00    +0.210 HD
ENDBRANCH  17  18
ENDBRANCH   1  17
BRANCH   2  20
ATOM     20  O   UNL     1       6.693  -3.821  25.731  0.00  0.00    -0.331 OA
BRANCH  20  21
ATOM     21  C   UNL     1       6.262  -3.549  27.076  0.00  0.00    +0.342 C 
ATOM     22  C   UNL     1       4.946  -2.748  27.091  0.00  0.00    +0.248 C 
ATOM     23  C   UNL     1       3.723  -3.603  27.443  0.00  0.00    +0.178 C 
ATOM     24  C   UNL     1       4.017  -4.866  28.163  0.00  0.00    +0.054 C 
ATOM     25  C   UNL     1       5.253  -5.348  28.336  0.00  0.00    +0.145 C 
ATOM     26  O   UNL     1       6.374  -4.708  27.885  0.00  0.00    -0.459 OA
BRANCH  25  27
ATOM     27  C   UNL     1       5.508  -6.721  29.058  0.00  0.00    +0.106 C 
ATOM     28  O   UNL     1       4.474  -7.325  29.476  0.00  0.00    -0.542 OA
ATOM     29  O   UNL     1       6.719  -7.094  29.117  0.00  0.00    -0.542 OA
ENDBRANCH  25  27
BRANCH  23  30
ATOM     30  O   UNL     1       2.776  -2.861  28.225  0.00  0.00    -0.385 OA
ATOM     31  H   UNL     1       3.224  -2.732  29.087  0.00  0.00    +0.210 HD
ENDBRANCH  23  30
BRANCH  22  32
ATOM     32  O   UNL     1       5.035  -1.662  28.041  0.00  0.00    -0.242 OA
BRANCH  32  33
ATOM     33  S   UNL     1       4.992  -0.125  27.478  0.00  0.00    -0.000 S 
ATOM     34  O   UNL     1       6.392   0.242  27.301  0.00  0.00    -0.345 OA
ATOM     35  O   UNL     1       4.311   0.624  28.533  0.00  0.00    -0.345 OA
ATOM     36  O   UNL     1       4.238  -0.249  26.235  0.00  0.00    -0.268 OA
ENDBRANCH  32  33
ENDBRANCH  22  32
ENDBRANCH  20  21
ENDBRANCH   2  20
TORSDOF 12
ENDMDL
MODEL 9
REMARK VINA RESULT:      -5.9      2.519      4.918
REMARK  Name = 
REMARK  12 active torsions:
REMARK  status: ('A' for Active; 'I' for Inactive)
REMARK    1  A    between atoms: O_1  and  C_2
REMARK    2  A    between atoms: C_2  and  C_3
REMARK    3  A    between atoms: C_6  and  O_8
REMARK    4  A    between atoms: C_9  and  N_11
REMARK    5  A    between atoms: N_11  and  S_12
REMARK    6  A    between atoms: C_16  and  O_18
REMARK    7  A    between atoms: C_19  and  O_21
REMARK    8  A    between atoms: O_21  and  C_22
REMARK    9  A    between atoms: C_25  and  C_37
REMARK   10  A    between atoms: C_27  and  O_29
REMARK   11  A    between atoms: C_30  and  O_32
REMARK   12  A    between atoms: O_32  and  S_33
REMARK                            x       y       z     vdW  Elec       q    Type
REMARK                         _______ _______ _______ _____ _____    ______ ____
ROOT
ATOM      1  C   UNL     1       9.079  -3.827  24.941  0.00  0.00    +0.178 C 
ATOM      2  C   UNL     1       8.605  -2.796  25.993  0.00  0.00    +0.184 C 
ATOM      3  C   UNL     1       8.133  -1.507  25.257  0.00  0.00    +0.169 C 
ATOM      4  C   UNL     1       9.133  -1.059  24.183  0.00  0.00    +0.162 C 
ATOM      5  C   UNL     1       9.568  -2.214  23.274  0.00  0.00    +0.269 C 
ATOM      6  O   UNL     1      10.076  -3.295  24.045  0.00  0.00    -0.342 OA
ENDROOT
BRANCH   3   7
ATOM      7  O   UNL     1       7.989  -0.345  26.098  0.00  0.00    -0.387 OA
ATOM      8  H   UNL     1       7.420   0.314  25.621  0.00  0.00    +0.210 HD
ENDBRANCH   3   7
BRANCH   4   9
ATOM      9  N   UNL     1       8.636   0.177  23.471  0.00  0.00    -0.193 NA
ATOM     10  H   UNL     1       8.333  -0.104  22.534  0.00  0.00    +0.147 HD
BRANCH   9  11
ATOM     11  S   UNL     1       9.652   1.513  23.275  0.00  0.00    -0.016 S 
ATOM     12  O   UNL     1       8.754   2.656  23.349  0.00  0.00    -0.169 OA
ATOM     13  O   UNL     1      10.217   1.266  21.952  0.00  0.00    -0.169 OA
ATOM     14  O   UNL     1      10.598   1.414  24.372  0.00  0.00    -0.710 OA
ENDBRANCH   9  11
ENDBRANCH   4   9
BRANCH   5  15
ATOM     15  O   UNL     1      10.619  -1.765  22.424  0.00  0.00    -0.366 OA
ATOM     16  H   UNL     1      11.306  -2.448  22.465  0.00  0.00    +0.213 HD
ENDBRANCH   5  15
BRANCH   1  17
ATOM     17  C   UNL     1       9.691  -5.084  25.577  0.00  0.00    +0.190 C 
BRANCH  17  18
ATOM     18  O   UNL     1       8.635  -5.864  26.166  0.00  0.00    -0.392 OA
ATOM     19  H   UNL     1       8.001  -6.002  25.438  0.00  0.00    +0.210 HD
ENDBRANCH  17  18
ENDBRANCH   1  17
BRANCH   2  20
ATOM     20  O   UNL     1       7.527  -3.437  26.715  0.00  0.00    -0.331 OA
BRANCH  20  21
ATOM     21  C   UNL     1       6.225  -3.028  26.264  0.00  0.00    +0.342 C 
ATOM     22  C   UNL     1       5.524  -4.153  25.479  0.00  0.00    +0.248 C 
ATOM     23  C   UNL     1       4.431  -4.863  26.287  0.00  0.00    +0.178 C 
ATOM     24  C   UNL     1       3.892  -4.096  27.436  0.00  0.00    +0.054 C 
ATOM     25  C   UNL     1       4.429  -2.953  27.880  0.00  0.00    +0.145 C 
ATOM     26  O   UNL     1       5.518  -2.364  27.299  0.00  0.00    -0.459 OA
BRANCH  25  27
ATOM     27  C   UNL     1       3.853  -2.206  29.138  0.00  0.00    +0.106 C 
ATOM     28  O   UNL     1       3.311  -1.082  28.912  0.00  0.00    -0.542 OA
ATOM     29  O   UNL     1       3.963  -2.823  30.241  0.00  0.00    -0.542 OA
ENDBRANCH  25  27
BRANCH  23  30
ATOM     30  O   UNL     1       3.327  -5.240  25.452  0.00  0.00    -0.385 OA
ATOM     31  H   UNL     1       3.747  -5.673  24.680  0.00  0.00    +0.210 HD
ENDBRANCH  23  30
BRANCH  22  32
ATOM     32  O   UNL     1       4.931  -3.624  24.271  0.00  0.00    -0.242 OA
BRANCH  32  33
ATOM     33  S   UNL     1       5.245  -4.377  22.851  0.00  0.00    -0.000 S 
ATOM     34  O   UNL     1       5.354  -3.297  21.879  0.00  0.00    -0.345 OA
ATOM     35  O   UNL     1       4.088  -5.248  22.645  0.00  0.00    -0.345 OA
ATOM     36  O   UNL     1       6.495  -5.079  23.119  0.00  0.00    -0.268 OA
ENDBRANCH  32  33
ENDBRANCH  22  32
ENDBRANCH  20  21
ENDBRANCH   2  20
TORSDOF 12
ENDMDL
