MODEL 1
REMARK VINA RESULT:      -5.2      0.000      0.000
REMARK  Name = 
REMARK  23 active torsions:
REMARK  status: ('A' for Active; 'I' for Inactive)
REMARK    1  A    between atoms: C_1  and  C_2
REMARK    2  A    between atoms: C_2  and  C_3
REMARK    3  A    between atoms: C_3  and  C_4
REMARK    4  A    between atoms: C_4  and  C_5
REMARK    5  A    between atoms: C_5  and  O_7
REMARK    6  A    between atoms: O_7  and  C_8
REMARK    7  A    between atoms: C_8  and  C_9
REMARK    8  A    between atoms: C_9  and  C_11
REMARK    9  A    between atoms: C_9  and  O_23
REMARK   10  A    between atoms: C_11  and  O_12
REMARK   11  A    between atoms: O_12  and  P_13
REMARK   12  A    between atoms: P_13  and  O_16
REMARK   13  A    between atoms: O_16  and  C_17
REMARK   14  A    between atoms: C_17  and  C_18
REMARK   15  A    between atoms: C_18  and  N_19
REMARK   16  A    between atoms: N_19  and  C_20
REMARK   17  A    between atoms: N_19  and  C_21
REMARK   18  A    between atoms: N_19  and  C_22
REMARK   19  A    between atoms: O_23  and  C_24
REMARK   20  A    between atoms: C_24  and  C_26
REMARK   21  A    between atoms: C_26  and  C_27
REMARK   22  A    between atoms: C_27  and  C_28
REMARK   23  A    between atoms: C_28  and  C_29
REMARK                            x       y       z     vdW  Elec       q    Type
REMARK                         _______ _______ _______ _____ _____    ______ ____
ROOT
ATOM      1  C   UNL     1       8.664  -3.040  23.881  0.00  0.00    +0.240 C 
ENDROOT
BRANCH   1   2
ATOM      2  C   UNL     1       9.904  -2.100  23.788  0.00  0.00    +0.213 C 
BRANCH   2   3
ATOM      3  O   UNL     1       9.726  -0.833  24.412  0.00  0.00    -0.346 OA
BRANCH   3   4
ATOM      4  P   UNL     1       9.152   0.482  23.653  0.00  0.00    +0.040 P 
ATOM      5  S   UNL     1       7.216   0.602  23.856  0.00  0.00    -0.034 S 
ATOM      6  S   UNL     1       9.465   0.576  21.740  0.00  0.00    -0.699 SA
BRANCH   4   7
ATOM      7  O   UNL     1       9.932   1.740  24.350  0.00  0.00    -0.345 OA
BRANCH   7   8
ATOM      8  C   UNL     1      10.286   2.932  23.664  0.00  0.00    +0.216 C 
BRANCH   8   9
ATOM      9  C   UNL     1       9.118   3.962  23.549  0.00  0.00    +0.161 C 
BRANCH   9  10
ATOM     10  N   UNL     1       9.395   5.443  23.936  0.00  0.00    +0.239 N 
ATOM     11  C   UNL     1       9.032   5.668  25.408  0.00  0.00    +0.192 C 
ATOM     12  C   UNL     1       8.558   6.409  23.109  0.00  0.00    +0.192 C 
ATOM     13  C   UNL     1      10.874   5.767  23.774  0.00  0.00    +0.192 C 
ENDBRANCH   9  10
ENDBRANCH   8   9
ENDBRANCH   7   8
ENDBRANCH   4   7
ENDBRANCH   3   4
ENDBRANCH   2   3
ENDBRANCH   1   2
BRANCH   1  14
ATOM     14  O   UNL     1       9.126  -4.412  24.064  0.00  0.00    -0.456 OA
BRANCH  14  15
ATOM     15  C   UNL     1       9.053  -4.905  25.328  0.00  0.00    +0.308 C 
ATOM     16  O   UNL     1       9.994  -5.044  26.091  0.00  0.00    -0.251 OA
BRANCH  15  17
ATOM     17  C   UNL     1       7.636  -5.317  25.666  0.00  0.00    +0.120 C 
BRANCH  17  18
ATOM     18  C   UNL     1       7.393  -5.403  27.173  0.00  0.00    +0.011 C 
BRANCH  18  19
ATOM     19  C   UNL     1       6.224  -4.531  27.635  0.00  0.00    -0.003 C 
ATOM     20  C   UNL     1       6.097  -3.269  26.794  0.00  0.00    +0.004 C 
ENDBRANCH  18  19
ENDBRANCH  17  18
ENDBRANCH  15  17
ENDBRANCH  14  15
ENDBRANCH   1  14
BRANCH   1  21
ATOM     21  C   UNL     1       7.784  -3.059  22.619  0.00  0.00    +0.279 C 
BRANCH  21  22
ATOM     22  O   UNL     1       7.500  -4.387  22.170  0.00  0.00    -0.461 OA
BRANCH  22  23
ATOM     23  C   UNL     1       6.223  -4.603  21.771  0.00  0.00    +0.307 C 
ATOM     24  O   UNL     1       5.612  -3.931  20.948  0.00  0.00    -0.251 OA
BRANCH  23  25
ATOM     25  C   UNL     1       5.635  -5.778  22.522  0.00  0.00    +0.120 C 
BRANCH  25  26
ATOM     26  C   UNL     1       4.251  -5.429  23.057  0.00  0.00    +0.011 C 
BRANCH  26  28
ATOM     27  C   UNL     1       4.392  -6.988  25.023  0.00  0.00    +0.004 C 
ATOM     28  C   UNL     1       4.182  -5.549  24.577  0.00  0.00    -0.003 C 
ENDBRANCH  26  28
ENDBRANCH  25  26
ENDBRANCH  23  25
ENDBRANCH  22  23
ENDBRANCH  21  22
ENDBRANCH   1  21
TORSDOF 18
ENDMDL
MODEL 2
REMARK VINA RESULT:      -5.0      1.979      2.817
REMARK  Name = 
REMARK  23 active torsions:
REMARK  status: ('A' for Active; 'I' for Inactive)
REMARK    1  A    between atoms: C_1  and  C_2
REMARK    2  A    between atoms: C_2  and  C_3
REMARK    3  A    between atoms: C_3  and  C_4
REMARK    4  A    between atoms: C_4  and  C_5
REMARK    5  A    between atoms: C_5  and  O_7
REMARK    6  A    between atoms: O_7  and  C_8
REMARK    7  A    between atoms: C_8  and  C_9
REMARK    8  A    between atoms: C_9  and  C_11
REMARK    9  A    between atoms: C_9  and  O_23
REMARK   10  A    between atoms: C_11  and  O_12
REMARK   11  A    between atoms: O_12  and  P_13
REMARK   12  A    between atoms: P_13  and  O_16
REMARK   13  A    between atoms: O_16  and  C_17
REMARK   14  A    between atoms: C_17  and  C_18
REMARK   15  A    between atoms: C_18  and  N_19
REMARK   16  A    between atoms: N_19  and  C_20
REMARK   17  A    between atoms: N_19  and  C_21
REMARK   18  A    between atoms: N_19  and  C_22
REMARK   19  A    between atoms: O_23  and  C_24
REMARK   20  A    between atoms: C_24  and  C_26
REMARK   21  A    between atoms: C_26  and  C_27
REMARK   22  A    between atoms: C_27  and  C_28
REMARK   23  A    between atoms: C_28  and  C_29
REMARK                            x       y       z     vdW  Elec       q    Type
REMARK                         _______ _______ _______ _____ _____    ______ ____
ROOT
ATOM      1  C   UNL     1       7.013  -4.640  22.839  0.00  0.00    +0.240 C 
ENDROOT
BRANCH   1   2
ATOM      2  C   UNL     1       7.422  -3.382  22.016  0.00  0.00    +0.213 C 
BRANCH   2   3
ATOM      3  O   UNL     1       7.086  -2.144  22.634  0.00  0.00    -0.346 OA
BRANCH   3   4
ATOM      4  P   UNL     1       8.179  -1.062  23.155  0.00  0.00    +0.040 P 
ATOM      5  S   UNL     1       9.960  -1.514  22.501  0.00  0.00    -0.034 S 
ATOM      6  S   UNL     1       8.374  -0.894  25.078  0.00  0.00    -0.699 SA
BRANCH   4   7
ATOM      7  O   UNL     1       7.649   0.375  22.578  0.00  0.00    -0.345 OA
BRANCH   7   8
ATOM      8  C   UNL     1       8.479   1.320  21.918  0.00  0.00    +0.216 C 
BRANCH   8   9
ATOM      9  C   UNL     1       8.396   2.758  22.519  0.00  0.00    +0.161 C 
BRANCH   9  10
ATOM     10  N   UNL     1       9.189   3.063  23.822  0.00  0.00    +0.239 N 
ATOM     11  C   UNL     1      10.408   2.138  23.912  0.00  0.00    +0.192 C 
ATOM     12  C   UNL     1       8.345   2.825  25.067  0.00  0.00    +0.192 C 
ATOM     13  C   UNL     1       9.702   4.497  23.809  0.00  0.00    +0.192 C 
ENDBRANCH   9  10
ENDBRANCH   8   9
ENDBRANCH   7   8
ENDBRANCH   4   7
ENDBRANCH   3   4
ENDBRANCH   2   3
ENDBRANCH   1   2
BRANCH   1  14
ATOM     14  O   UNL     1       8.220  -5.280  23.354  0.00  0.00    -0.456 OA
BRANCH  14  15
ATOM     15  C   UNL     1       8.657  -4.845  24.564  0.00  0.00    +0.308 C 
ATOM     16  O   UNL     1       9.823  -4.782  24.918  0.00  0.00    -0.251 OA
BRANCH  15  17
ATOM     17  C   UNL     1       7.492  -4.487  25.463  0.00  0.00    +0.120 C 
BRANCH  17  18
ATOM     18  C   UNL     1       7.186  -5.579  26.489  0.00  0.00    +0.011 C 
BRANCH  18  19
ATOM     19  C   UNL     1       5.904  -5.306  27.278  0.00  0.00    -0.003 C 
ATOM     20  C   UNL     1       5.090  -6.575  27.487  0.00  0.00    +0.004 C 
ENDBRANCH  18  19
ENDBRANCH  17  18
ENDBRANCH  15  17
ENDBRANCH  14  15
ENDBRANCH   1  14
BRANCH   1  21
ATOM     21  C   UNL     1       6.282  -5.722  22.025  0.00  0.00    +0.279 C 
BRANCH  21  22
ATOM     22  O   UNL     1       4.860  -5.642  22.159  0.00  0.00    -0.461 OA
BRANCH  22  23
ATOM     23  C   UNL     1       4.375  -5.945  23.387  0.00  0.00    +0.307 C 
ATOM     24  O   UNL     1       4.708  -6.911  24.063  0.00  0.00    -0.251 OA
BRANCH  23  25
ATOM     25  C   UNL     1       3.324  -4.936  23.795  0.00  0.00    +0.120 C 
BRANCH  25  26
ATOM     26  C   UNL     1       3.977  -3.726  24.455  0.00  0.00    +0.011 C 
BRANCH  26  28
ATOM     27  C   UNL     1       2.318  -4.371  26.229  0.00  0.00    +0.004 C 
ATOM     28  C   UNL     1       3.197  -3.258  25.681  0.00  0.00    -0.003 C 
ENDBRANCH  26  28
ENDBRANCH  25  26
ENDBRANCH  23  25
ENDBRANCH  22  23
ENDBRANCH  21  22
ENDBRANCH   1  21
TORSDOF 18
ENDMDL
MODEL 3
REMARK VINA RESULT:      -4.9      1.782      2.402
REMARK  Name = 
REMARK  23 active torsions:
REMARK  status: ('A' for Active; 'I' for Inactive)
REMARK    1  A    between atoms: C_1  and  C_2
REMARK    2  A    between atoms: C_2  and  C_3
REMARK    3  A    between atoms: C_3  and  C_4
REMARK    4  A    between atoms: C_4  and  C_5
REMARK    5  A    between atoms: C_5  and  O_7
REMARK    6  A    between atoms: O_7  and  C_8
REMARK    7  A    between atoms: C_8  and  C_9
REMARK    8  A    between atoms: C_9  and  C_11
REMARK    9  A    between atoms: C_9  and  O_23
REMARK   10  A    between atoms: C_11  and  O_12
REMARK   11  A    between atoms: O_12  and  P_13
REMARK   12  A    between atoms: P_13  and  O_16
REMARK   13  A    between atoms: O_16  and  C_17
REMARK   14  A    between atoms: C_17  and  C_18
REMARK   15  A    between atoms: C_18  and  N_19
REMARK   16  A    between atoms: N_19  and  C_20
REMARK   17  A    between atoms: N_19  and  C_21
REMARK   18  A    between atoms: N_19  and  C_22
REMARK   19  A    between atoms: O_23  and  C_24
REMARK   20  A    between atoms: C_24  and  C_26
REMARK   21  A    between atoms: C_26  and  C_27
REMARK   22  A    between atoms: C_27  and  C_28
REMARK   23  A    between atoms: C_28  and  C_29
REMARK                            x       y       z     vdW  Elec       q    Type
REMARK                         _______ _______ _______ _____ _____    ______ ____
ROOT
ATOM      1  C   UNL     1       7.231  -1.679  23.507  0.00  0.00    +0.240 C 
ENDROOT
BRANCH   1   2
ATOM      2  C   UNL     1       7.287  -0.186  23.064  0.00  0.00    +0.213 C 
BRANCH   2   3
ATOM      3  O   UNL     1       7.844   0.692  24.036  0.00  0.00    -0.346 OA
BRANCH   3   4
ATOM      4  P   UNL     1       9.301   1.397  23.897  0.00  0.00    +0.040 P 
ATOM      5  S   UNL     1       9.802   1.573  22.020  0.00  0.00    -0.034 S 
ATOM      6  S   UNL     1      10.787   0.470  24.732  0.00  0.00    -0.699 SA
BRANCH   4   7
ATOM      7  O   UNL     1       9.135   2.846  24.638  0.00  0.00    -0.345 OA
BRANCH   7   8
ATOM      8  C   UNL     1       9.124   4.090  23.953  0.00  0.00    +0.216 C 
BRANCH   8   9
ATOM      9  C   UNL     1       7.817   4.916  24.168  0.00  0.00    +0.161 C 
BRANCH   9  10
ATOM     10  N   UNL     1       6.857   5.112  22.961  0.00  0.00    +0.239 N 
ATOM     11  C   UNL     1       6.682   3.781  22.220  0.00  0.00    +0.192 C 
ATOM     12  C   UNL     1       7.405   6.120  21.959  0.00  0.00    +0.192 C 
ATOM     13  C   UNL     1       5.481   5.553  23.441  0.00  0.00    +0.192 C 
ENDBRANCH   9  10
ENDBRANCH   8   9
ENDBRANCH   7   8
ENDBRANCH   4   7
ENDBRANCH   3   4
ENDBRANCH   2   3
ENDBRANCH   1   2
BRANCH   1  14
ATOM     14  O   UNL     1       8.532  -2.292  23.264  0.00  0.00    -0.456 OA
BRANCH  14  15
ATOM     15  C   UNL     1       9.113  -2.904  24.329  0.00  0.00    +0.308 C 
ATOM     16  O   UNL     1      10.006  -3.732  24.272  0.00  0.00    -0.251 OA
BRANCH  15  17
ATOM     17  C   UNL     1       8.468  -2.460  25.625  0.00  0.00    +0.120 C 
BRANCH  17  18
ATOM     18  C   UNL     1       8.216  -3.624  26.584  0.00  0.00    +0.011 C 
BRANCH  18  19
ATOM     19  C   UNL     1       6.741  -4.023  26.655  0.00  0.00    -0.003 C 
ATOM     20  C   UNL     1       6.573  -5.522  26.862  0.00  0.00    +0.004 C 
ENDBRANCH  18  19
ENDBRANCH  17  18
ENDBRANCH  15  17
ENDBRANCH  14  15
ENDBRANCH   1  14
BRANCH   1  21
ATOM     21  C   UNL     1       6.214  -2.534  22.730  0.00  0.00    +0.279 C 
BRANCH  21  22
ATOM     22  O   UNL     1       6.840  -3.399  21.778  0.00  0.00    -0.461 OA
BRANCH  22  23
ATOM     23  C   UNL     1       6.350  -4.662  21.732  0.00  0.00    +0.307 C 
ATOM     24  O   UNL     1       5.934  -5.226  20.727  0.00  0.00    -0.251 OA
BRANCH  23  25
ATOM     25  C   UNL     1       6.351  -5.271  23.117  0.00  0.00    +0.120 C 
BRANCH  25  26
ATOM     26  C   UNL     1       5.088  -6.095  23.337  0.00  0.00    +0.011 C 
BRANCH  26  28
ATOM     27  C   UNL     1       3.537  -4.734  24.770  0.00  0.00    +0.004 C 
ATOM     28  C   UNL     1       3.837  -5.221  23.362  0.00  0.00    -0.003 C 
ENDBRANCH  26  28
ENDBRANCH  25  26
ENDBRANCH  23  25
ENDBRANCH  22  23
ENDBRANCH  21  22
ENDBRANCH   1  21
TORSDOF 18
ENDMDL
MODEL 4
REMARK VINA RESULT:      -4.9      1.820      2.409
REMARK  Name = 
REMARK  23 active torsions:
REMARK  status: ('A' for Active; 'I' for Inactive)
REMARK    1  A    between atoms: C_1  and  C_2
REMARK    2  A    between atoms: C_2  and  C_3
REMARK    3  A    between atoms: C_3  and  C_4
REMARK    4  A    between atoms: C_4  and  C_5
REMARK    5  A    between atoms: C_5  and  O_7
REMARK    6  A    between atoms: O_7  and  C_8
REMARK    7  A    between atoms: C_8  and  C_9
REMARK    8  A    between atoms: C_9  and  C_11
REMARK    9  A    between atoms: C_9  and  O_23
REMARK   10  A    between atoms: C_11  and  O_12
REMARK   11  A    between atoms: O_12  and  P_13
REMARK   12  A    between atoms: P_13  and  O_16
REMARK   13  A    between atoms: O_16  and  C_17
REMARK   14  A    between atoms: C_17  and  C_18
REMARK   15  A    between atoms: C_18  and  N_19
REMARK   16  A    between atoms: N_19  and  C_20
REMARK   17  A    between atoms: N_19  and  C_21
REMARK   18  A    between atoms: N_19  and  C_22
REMARK   19  A    between atoms: O_23  and  C_24
REMARK   20  A    between atoms: C_24  and  C_26
REMARK   21  A    between atoms: C_26  and  C_27
REMARK   22  A    between atoms: C_27  and  C_28
REMARK   23  A    between atoms: C_28  and  C_29
REMARK                            x       y       z     vdW  Elec       q    Type
REMARK                         _______ _______ _______ _____ _____    ______ ____
ROOT
ATOM      1  C   UNL     1       7.990  -4.696  24.799  0.00  0.00    +0.240 C 
ENDROOT
BRANCH   1   2
ATOM      2  C   UNL     1       9.367  -4.008  25.042  0.00  0.00    +0.213 C 
BRANCH   2   3
ATOM      3  O   UNL     1       9.631  -2.907  24.180  0.00  0.00    -0.346 OA
BRANCH   3   4
ATOM      4  P   UNL     1       9.023  -1.417  24.397  0.00  0.00    +0.040 P 
ATOM      5  S   UNL     1       8.547  -1.133  26.266  0.00  0.00    -0.034 S 
ATOM      6  S   UNL     1       7.416  -0.991  23.396  0.00  0.00    -0.699 SA
BRANCH   4   7
ATOM      7  O   UNL     1      10.208  -0.406  23.893  0.00  0.00    -0.345 OA
BRANCH   7   8
ATOM      8  C   UNL     1      10.669   0.710  24.641  0.00  0.00    +0.216 C 
BRANCH   8   9
ATOM      9  C   UNL     1      10.661   2.050  23.839  0.00  0.00    +0.161 C 
BRANCH   9  10
ATOM     10  N   UNL     1       9.338   2.866  23.774  0.00  0.00    +0.239 N 
ATOM     11  C   UNL     1       8.441   2.490  24.959  0.00  0.00    +0.192 C 
ATOM     12  C   UNL     1       8.555   2.574  22.502  0.00  0.00    +0.192 C 
ATOM     13  C   UNL     1       9.629   4.357  23.875  0.00  0.00    +0.192 C 
ENDBRANCH   9  10
ENDBRANCH   8   9
ENDBRANCH   7   8
ENDBRANCH   4   7
ENDBRANCH   3   4
ENDBRANCH   2   3
ENDBRANCH   1   2
BRANCH   1  14
ATOM     14  O   UNL     1       7.826  -5.779  25.763  0.00  0.00    -0.456 OA
BRANCH  14  15
ATOM     15  C   UNL     1       7.051  -5.505  26.844  0.00  0.00    +0.308 C 
ATOM     16  O   UNL     1       7.291  -5.838  27.993  0.00  0.00    -0.251 OA
BRANCH  15  17
ATOM     17  C   UNL     1       5.797  -4.761  26.436  0.00  0.00    +0.120 C 
BRANCH  17  18
ATOM     18  C   UNL     1       5.549  -3.516  27.289  0.00  0.00    +0.011 C 
BRANCH  18  19
ATOM     19  C   UNL     1       4.061  -3.217  27.480  0.00  0.00    -0.003 C 
ATOM     20  C   UNL     1       3.344  -4.360  28.184  0.00  0.00    +0.004 C 
ENDBRANCH  18  19
ENDBRANCH  17  18
ENDBRANCH  15  17
ENDBRANCH  14  15
ENDBRANCH   1  14
BRANCH   1  21
ATOM     21  C   UNL     1       7.840  -5.345  23.412  0.00  0.00    +0.279 C 
BRANCH  21  22
ATOM     22  O   UNL     1       7.050  -4.556  22.519  0.00  0.00    -0.461 OA
BRANCH  22  23
ATOM     23  C   UNL     1       6.071  -5.226  21.863  0.00  0.00    +0.307 C 
ATOM     24  O   UNL     1       5.994  -5.360  20.647  0.00  0.00    -0.251 OA
BRANCH  23  25
ATOM     25  C   UNL     1       5.054  -5.757  22.849  0.00  0.00    +0.120 C 
BRANCH  25  26
ATOM     26  C   UNL     1       4.110  -4.645  23.291  0.00  0.00    +0.011 C 
BRANCH  26  28
ATOM     27  C   UNL     1       2.533  -5.839  24.840  0.00  0.00    +0.004 C 
ATOM     28  C   UNL     1       2.685  -5.154  23.491  0.00  0.00    -0.003 C 
ENDBRANCH  26  28
ENDBRANCH  25  26
ENDBRANCH  23  25
ENDBRANCH  22  23
ENDBRANCH  21  22
ENDBRANCH   1  21
TORSDOF 18
ENDMDL
MODEL 5
REMARK VINA RESULT:      -4.9      2.426      4.279
REMARK  Name = 
REMARK  23 active torsions:
REMARK  status: ('A' for Active; 'I' for Inactive)
REMARK    1  A    between atoms: C_1  and  C_2
REMARK    2  A    between atoms: C_2  and  C_3
REMARK    3  A    between atoms: C_3  and  C_4
REMARK    4  A    between atoms: C_4  and  C_5
REMARK    5  A    between atoms: C_5  and  O_7
REMARK    6  A    between atoms: O_7  and  C_8
REMARK    7  A    between atoms: C_8  and  C_9
REMARK    8  A    between atoms: C_9  and  C_11
REMARK    9  A    between atoms: C_9  and  O_23
REMARK   10  A    between atoms: C_11  and  O_12
REMARK   11  A    between atoms: O_12  and  P_13
REMARK   12  A    between atoms: P_13  and  O_16
REMARK   13  A    between atoms: O_16  and  C_17
REMARK   14  A    between atoms: C_17  and  C_18
REMARK   15  A    between atoms: C_18  and  N_19
REMARK   16  A    between atoms: N_19  and  C_20
REMARK   17  A    between atoms: N_19  and  C_21
REMARK   18  A    between atoms: N_19  and  C_22
REMARK   19  A    between atoms: O_23  and  C_24
REMARK   20  A    between atoms: C_24  and  C_26
REMARK   21  A    between atoms: C_26  and  C_27
REMARK   22  A    between atoms: C_27  and  C_28
REMARK   23  A    between atoms: C_28  and  C_29
REMARK                            x       y       z     vdW  Elec       q    Type
REMARK                         _______ _______ _______ _____ _____    ______ ____
ROOT
ATOM      1  C   UNL     1       8.580  -2.082  25.966  0.00  0.00    +0.240 C 
ENDROOT
BRANCH   1   2
ATOM      2  C   UNL     1       8.656  -0.715  26.712  0.00  0.00    +0.213 C 
BRANCH   2   3
ATOM      3  O   UNL     1       8.579   0.422  25.859  0.00  0.00    -0.346 OA
BRANCH   3   4
ATOM      4  P   UNL     1       7.258   1.351  25.701  0.00  0.00    +0.040 P 
ATOM      5  S   UNL     1       6.850   2.258  27.379  0.00  0.00    -0.034 S 
ATOM      6  S   UNL     1       5.618   0.438  25.209  0.00  0.00    -0.699 SA
BRANCH   4   7
ATOM      7  O   UNL     1       7.627   2.399  24.499  0.00  0.00    -0.345 OA
BRANCH   7   8
ATOM      8  C   UNL     1       8.157   3.699  24.715  0.00  0.00    +0.216 C 
BRANCH   8   9
ATOM      9  C   UNL     1       8.213   4.577  23.426  0.00  0.00    +0.161 C 
BRANCH   9  10
ATOM     10  N   UNL     1       7.081   5.617  23.188  0.00  0.00    +0.239 N 
ATOM     11  C   UNL     1       7.060   6.628  24.340  0.00  0.00    +0.192 C 
ATOM     12  C   UNL     1       5.709   4.958  23.137  0.00  0.00    +0.192 C 
ATOM     13  C   UNL     1       7.333   6.393  21.903  0.00  0.00    +0.192 C 
ENDBRANCH   9  10
ENDBRANCH   8   9
ENDBRANCH   7   8
ENDBRANCH   4   7
ENDBRANCH   3   4
ENDBRANCH   2   3
ENDBRANCH   1   2
BRANCH   1  14
ATOM     14  O   UNL     1       8.578  -1.834  24.528  0.00  0.00    -0.456 OA
BRANCH  14  15
ATOM     15  C   UNL     1       9.718  -2.160  23.864  0.00  0.00    +0.308 C 
ATOM     16  O   UNL     1      10.290  -3.235  23.921  0.00  0.00    -0.251 OA
BRANCH  15  17
ATOM     17  C   UNL     1      10.233  -0.982  23.064  0.00  0.00    +0.120 C 
BRANCH  17  18
ATOM     18  C   UNL     1       9.509  -0.818  21.727  0.00  0.00    +0.011 C 
BRANCH  18  19
ATOM     19  C   UNL     1       9.069   0.624  21.465  0.00  0.00    -0.003 C 
ATOM     20  C   UNL     1      10.052   1.627  22.051  0.00  0.00    +0.004 C 
ENDBRANCH  18  19
ENDBRANCH  17  18
ENDBRANCH  15  17
ENDBRANCH  14  15
ENDBRANCH   1  14
BRANCH   1  21
ATOM     21  C   UNL     1       7.302  -2.891  26.252  0.00  0.00    +0.279 C 
BRANCH  21  22
ATOM     22  O   UNL     1       7.584  -4.232  26.662  0.00  0.00    -0.461 OA
BRANCH  22  23
ATOM     23  C   UNL     1       7.946  -5.079  25.668  0.00  0.00    +0.307 C 
ATOM     24  O   UNL     1       8.982  -5.734  25.635  0.00  0.00    -0.251 OA
BRANCH  23  25
ATOM     25  C   UNL     1       6.902  -5.074  24.574  0.00  0.00    +0.120 C 
BRANCH  25  26
ATOM     26  C   UNL     1       7.560  -5.246  23.209  0.00  0.00    +0.011 C 
BRANCH  26  28
ATOM     27  C   UNL     1       6.324  -5.700  21.069  0.00  0.00    +0.004 C 
ATOM     28  C   UNL     1       6.715  -4.643  22.091  0.00  0.00    -0.003 C 
ENDBRANCH  26  28
ENDBRANCH  25  26
ENDBRANCH  23  25
ENDBRANCH  22  23
ENDBRANCH  21  22
ENDBRANCH   1  21
TORSDOF 18
ENDMDL
MODEL 6
REMARK VINA RESULT:      -4.9      2.984      3.663
REMARK  Name = 
REMARK  23 active torsions:
REMARK  status: ('A' for Active; 'I' for Inactive)
REMARK    1  A    between atoms: C_1  and  C_2
REMARK    2  A    between atoms: C_2  and  C_3
REMARK    3  A    between atoms: C_3  and  C_4
REMARK    4  A    between atoms: C_4  and  C_5
REMARK    5  A    between atoms: C_5  and  O_7
REMARK    6  A    between atoms: O_7  and  C_8
REMARK    7  A    between atoms: C_8  and  C_9
REMARK    8  A    between atoms: C_9  and  C_11
REMARK    9  A    between atoms: C_9  and  O_23
REMARK   10  A    between atoms: C_11  and  O_12
REMARK   11  A    between atoms: O_12  and  P_13
REMARK   12  A    between atoms: P_13  and  O_16
REMARK   13  A    between atoms: O_16  and  C_17
REMARK   14  A    between atoms: C_17  and  C_18
REMARK   15  A    between atoms: C_18  and  N_19
REMARK   16  A    between atoms: N_19  and  C_20
REMARK   17  A    between atoms: N_19  and  C_21
REMARK   18  A    between atoms: N_19  and  C_22
REMARK   19  A    between atoms: O_23  and  C_24
REMARK   20  A    between atoms: C_24  and  C_26
REMARK   21  A    between atoms: C_26  and  C_27
REMARK   22  A    between atoms: C_27  and  C_28
REMARK   23  A    between atoms: C_28  and  C_29
REMARK                            x       y       z     vdW  Elec       q    Type
REMARK                         _______ _______ _______ _____ _____    ______ ____
ROOT
ATOM      1  C   UNL     1       8.673  -3.035  23.815  0.00  0.00    +0.240 C 
ENDROOT
BRANCH   1   2
ATOM      2  C   UNL     1       9.995  -2.213  23.738  0.00  0.00    +0.213 C 
BRANCH   2   3
ATOM      3  O   UNL     1       9.859  -0.946  23.103  0.00  0.00    -0.346 OA
BRANCH   3   4
ATOM      4  P   UNL     1       9.232   0.368  23.822  0.00  0.00    +0.040 P 
ATOM      5  S   UNL     1       7.505   0.822  23.038  0.00  0.00    -0.034 S 
ATOM      6  S   UNL     1      10.283   1.995  23.706  0.00  0.00    -0.699 SA
BRANCH   4   7
ATOM      7  O   UNL     1       9.113  -0.039  25.403  0.00  0.00    -0.345 OA
BRANCH   7   8
ATOM      8  C   UNL     1       7.973   0.229  26.207  0.00  0.00    +0.216 C 
BRANCH   8   9
ATOM      9  C   UNL     1       7.155  -1.046  26.581  0.00  0.00    +0.161 C 
BRANCH   9  10
ATOM     10  N   UNL     1       5.630  -1.065  26.274  0.00  0.00    +0.239 N 
ATOM     11  C   UNL     1       4.867  -1.613  27.485  0.00  0.00    +0.192 C 
ATOM     12  C   UNL     1       5.303  -1.961  25.088  0.00  0.00    +0.192 C 
ATOM     13  C   UNL     1       5.123   0.347  26.014  0.00  0.00    +0.192 C 
ENDBRANCH   9  10
ENDBRANCH   8   9
ENDBRANCH   7   8
ENDBRANCH   4   7
ENDBRANCH   3   4
ENDBRANCH   2   3
ENDBRANCH   1   2
BRANCH   1  14
ATOM     14  O   UNL     1       9.003  -4.435  24.063  0.00  0.00    -0.456 OA
BRANCH  14  15
ATOM     15  C   UNL     1       8.892  -4.856  25.350  0.00  0.00    +0.308 C 
ATOM     16  O   UNL     1       9.811  -4.962  26.144  0.00  0.00    -0.251 OA
BRANCH  15  17
ATOM     17  C   UNL     1       7.462  -5.236  25.673  0.00  0.00    +0.120 C 
BRANCH  17  18
ATOM     18  C   UNL     1       6.999  -4.685  27.022  0.00  0.00    +0.011 C 
BRANCH  18  19
ATOM     19  C   UNL     1       6.409  -5.765  27.931  0.00  0.00    -0.003 C 
ATOM     20  C   UNL     1       5.503  -5.168  28.998  0.00  0.00    +0.004 C 
ENDBRANCH  18  19
ENDBRANCH  17  18
ENDBRANCH  15  17
ENDBRANCH  14  15
ENDBRANCH   1  14
BRANCH   1  21
ATOM     21  C   UNL     1       7.841  -3.024  22.521  0.00  0.00    +0.279 C 
BRANCH  21  22
ATOM     22  O   UNL     1       7.369  -4.326  22.162  0.00  0.00    -0.461 OA
BRANCH  22  23
ATOM     23  C   UNL     1       6.026  -4.437  22.021  0.00  0.00    +0.307 C 
ATOM     24  O   UNL     1       5.266  -3.526  21.712  0.00  0.00    -0.251 OA
BRANCH  23  25
ATOM     25  C   UNL     1       5.584  -5.849  22.340  0.00  0.00    +0.120 C 
BRANCH  25  26
ATOM     26  C   UNL     1       4.364  -5.831  23.253  0.00  0.00    +0.011 C 
BRANCH  26  28
ATOM     27  C   UNL     1       3.679  -6.473  25.584  0.00  0.00    +0.004 C 
ATOM     28  C   UNL     1       4.456  -6.892  24.346  0.00  0.00    -0.003 C 
ENDBRANCH  26  28
ENDBRANCH  25  26
ENDBRANCH  23  25
ENDBRANCH  22  23
ENDBRANCH  21  22
ENDBRANCH   1  21
TORSDOF 18
ENDMDL
MODEL 7
REMARK VINA RESULT:      -4.8      1.317      1.786
REMARK  Name = 
REMARK  23 active torsions:
REMARK  status: ('A' for Active; 'I' for Inactive)
REMARK    1  A    between atoms: C_1  and  C_2
REMARK    2  A    between atoms: C_2  and  C_3
REMARK    3  A    between atoms: C_3  and  C_4
REMARK    4  A    between atoms: C_4  and  C_5
REMARK    5  A    between atoms: C_5  and  O_7
REMARK    6  A    between atoms: O_7  and  C_8
REMARK    7  A    between atoms: C_8  and  C_9
REMARK    8  A    between atoms: C_9  and  C_11
REMARK    9  A    between atoms: C_9  and  O_23
REMARK   10  A    between atoms: C_11  and  O_12
REMARK   11  A    between atoms: O_12  and  P_13
REMARK   12  A    between atoms: P_13  and  O_16
REMARK   13  A    between atoms: O_16  and  C_17
REMARK   14  A    between atoms: C_17  and  C_18
REMARK   15  A    between atoms: C_18  and  N_19
REMARK   16  A    between atoms: N_19  and  C_20
REMARK   17  A    between atoms: N_19  and  C_21
REMARK   18  A    between atoms: N_19  and  C_22
REMARK   19  A    between atoms: O_23  and  C_24
REMARK   20  A    between atoms: C_24  and  C_26
REMARK   21  A    between atoms: C_26  and  C_27
REMARK   22  A    between atoms: C_27  and  C_28
REMARK   23  A    between atoms: C_28  and  C_29
REMARK                            x       y       z     vdW  Elec       q    Type
REMARK                         _______ _______ _______ _____ _____    ______ ____
ROOT
ATOM      1  C   UNL     1       8.957  -2.491  24.015  0.00  0.00    +0.240 C 
ENDROOT
BRANCH   1   2
ATOM      2  C   UNL     1       9.861  -1.223  24.061  0.00  0.00    +0.213 C 
BRANCH   2   3
ATOM      3  O   UNL     1       9.259  -0.098  24.693  0.00  0.00    -0.346 OA
BRANCH   3   4
ATOM      4  P   UNL     1       8.668   1.185  23.893  0.00  0.00    +0.040 P 
ATOM      5  S   UNL     1       6.718   1.174  23.921  0.00  0.00    -0.034 S 
ATOM      6  S   UNL     1       9.145   1.323  22.018  0.00  0.00    -0.699 SA
BRANCH   4   7
ATOM      7  O   UNL     1       9.297   2.484  24.666  0.00  0.00    -0.345 OA
BRANCH   7   8
ATOM      8  C   UNL     1       8.551   3.645  25.000  0.00  0.00    +0.216 C 
BRANCH   8   9
ATOM      9  C   UNL     1       8.723   4.817  23.983  0.00  0.00    +0.161 C 
BRANCH   9  10
ATOM     10  N   UNL     1       7.453   5.393  23.295  0.00  0.00    +0.239 N 
ATOM     11  C   UNL     1       7.062   4.504  22.109  0.00  0.00    +0.192 C 
ATOM     12  C   UNL     1       7.691   6.795  22.751  0.00  0.00    +0.192 C 
ATOM     13  C   UNL     1       6.280   5.403  24.266  0.00  0.00    +0.192 C 
ENDBRANCH   9  10
ENDBRANCH   8   9
ENDBRANCH   7   8
ENDBRANCH   4   7
ENDBRANCH   3   4
ENDBRANCH   2   3
ENDBRANCH   1   2
BRANCH   1  14
ATOM     14  O   UNL     1       9.793  -3.673  24.196  0.00  0.00    -0.456 OA
BRANCH  14  15
ATOM     15  C   UNL     1       9.244  -4.690  24.911  0.00  0.00    +0.308 C 
ATOM     16  O   UNL     1       9.459  -5.878  24.736  0.00  0.00    -0.251 OA
BRANCH  15  17
ATOM     17  C   UNL     1       8.270  -4.161  25.943  0.00  0.00    +0.120 C 
BRANCH  17  18
ATOM     18  C   UNL     1       7.534  -5.280  26.682  0.00  0.00    +0.011 C 
BRANCH  18  19
ATOM     19  C   UNL     1       6.015  -5.091  26.678  0.00  0.00    -0.003 C 
ATOM     20  C   UNL     1       5.284  -6.419  26.543  0.00  0.00    +0.004 C 
ENDBRANCH  18  19
ENDBRANCH  17  18
ENDBRANCH  15  17
ENDBRANCH  14  15
ENDBRANCH   1  14
BRANCH   1  21
ATOM     21  C   UNL     1       8.223  -2.700  22.678  0.00  0.00    +0.279 C 
BRANCH  21  22
ATOM     22  O   UNL     1       6.817  -2.898  22.850  0.00  0.00    -0.461 OA
BRANCH  22  23
ATOM     23  C   UNL     1       6.271  -3.875  22.085  0.00  0.00    +0.307 C 
ATOM     24  O   UNL     1       5.834  -3.728  20.950  0.00  0.00    -0.251 OA
BRANCH  23  25
ATOM     25  C   UNL     1       6.240  -5.180  22.851  0.00  0.00    +0.120 C 
BRANCH  25  26
ATOM     26  C   UNL     1       4.822  -5.738  22.894  0.00  0.00    +0.011 C 
BRANCH  26  28
ATOM     27  C   UNL     1       2.415  -5.276  23.442  0.00  0.00    +0.004 C 
ATOM     28  C   UNL     1       3.836  -4.740  23.494  0.00  0.00    -0.003 C 
ENDBRANCH  26  28
ENDBRANCH  25  26
ENDBRANCH  23  25
ENDBRANCH  22  23
ENDBRANCH  21  22
ENDBRANCH   1  21
TORSDOF 18
ENDMDL
MODEL 8
REMARK VINA RESULT:      -4.8      3.916      8.006
REMARK  Name = 
REMARK  23 active torsions:
REMARK  status: ('A' for Active; 'I' for Inactive)
REMARK    1  A    between atoms: C_1  and  C_2
REMARK    2  A    between atoms: C_2  and  C_3
REMARK    3  A    between atoms: C_3  and  C_4
REMARK    4  A    between atoms: C_4  and  C_5
REMARK    5  A    between atoms: C_5  and  O_7
REMARK    6  A    between atoms: O_7  and  C_8
REMARK    7  A    between atoms: C_8  and  C_9
REMARK    8  A    between atoms: C_9  and  C_11
REMARK    9  A    between atoms: C_9  and  O_23
REMARK   10  A    between atoms: C_11  and  O_12
REMARK   11  A    between atoms: O_12  and  P_13
REMARK   12  A    between atoms: P_13  and  O_16
REMARK   13  A    between atoms: O_16  and  C_17
REMARK   14  A    between atoms: C_17  and  C_18
REMARK   15  A    between atoms: C_18  and  N_19
REMARK   16  A    between atoms: N_19  and  C_20
REMARK   17  A    between atoms: N_19  and  C_21
REMARK   18  A    between atoms: N_19  and  C_22
REMARK   19  A    between atoms: O_23  and  C_24
REMARK   20  A    between atoms: C_24  and  C_26
REMARK   21  A    between atoms: C_26  and  C_27
REMARK   22  A    between atoms: C_27  and  C_28
REMARK   23  A    between atoms: C_28  and  C_29
REMARK                            x       y       z     vdW  Elec       q    Type
REMARK                         _______ _______ _______ _____ _____    ______ ____
ROOT
ATOM      1  C   UNL     1       7.686  -1.728  24.882  0.00  0.00    +0.240 C 
ENDROOT
BRANCH   1   2
ATOM      2  C   UNL     1       7.350  -1.936  26.390  0.00  0.00    +0.213 C 
BRANCH   2   3
ATOM      3  O   UNL     1       6.105  -2.582  26.628  0.00  0.00    -0.346 OA
BRANCH   3   4
ATOM      4  P   UNL     1       5.937  -4.183  26.839  0.00  0.00    +0.040 P 
ATOM      5  S   UNL     1       5.070  -4.564  28.544  0.00  0.00    -0.034 S 
ATOM      6  S   UNL     1       7.575  -5.223  26.861  0.00  0.00    -0.699 SA
BRANCH   4   7
ATOM      7  O   UNL     1       5.046  -4.680  25.560  0.00  0.00    -0.345 OA
BRANCH   7   8
ATOM      8  C   UNL     1       5.372  -5.804  24.755  0.00  0.00    +0.216 C 
BRANCH   8   9
ATOM      9  C   UNL     1       5.021  -5.619  23.246  0.00  0.00    +0.161 C 
BRANCH   9  10
ATOM     10  N   UNL     1       6.071  -4.944  22.318  0.00  0.00    +0.239 N 
ATOM     11  C   UNL     1       7.445  -4.959  22.998  0.00  0.00    +0.192 C 
ATOM     12  C   UNL     1       5.723  -3.489  22.033  0.00  0.00    +0.192 C 
ATOM     13  C   UNL     1       6.199  -5.713  21.010  0.00  0.00    +0.192 C 
ENDBRANCH   9  10
ENDBRANCH   8   9
ENDBRANCH   7   8
ENDBRANCH   4   7
ENDBRANCH   3   4
ENDBRANCH   2   3
ENDBRANCH   1   2
BRANCH   1  14
ATOM     14  O   UNL     1       9.056  -1.240  24.767  0.00  0.00    -0.456 OA
BRANCH  14  15
ATOM     15  C   UNL     1       9.832  -1.850  23.834  0.00  0.00    +0.308 C 
ATOM     16  O   UNL     1      10.202  -3.012  23.867  0.00  0.00    -0.251 OA
BRANCH  15  17
ATOM     17  C   UNL     1      10.235  -0.877  22.746  0.00  0.00    +0.120 C 
BRANCH  17  18
ATOM     18  C   UNL     1      10.475   0.535  23.281  0.00  0.00    +0.011 C 
BRANCH  18  19
ATOM     19  C   UNL     1       9.917   1.620  22.358  0.00  0.00    -0.003 C 
ATOM     20  C   UNL     1       8.815   1.081  21.458  0.00  0.00    +0.004 C 
ENDBRANCH  18  19
ENDBRANCH  17  18
ENDBRANCH  15  17
ENDBRANCH  14  15
ENDBRANCH   1  14
BRANCH   1  21
ATOM     21  C   UNL     1       6.809  -0.682  24.173  0.00  0.00    +0.279 C 
BRANCH  21  22
ATOM     22  O   UNL     1       7.109   0.655  24.585  0.00  0.00    -0.461 OA
BRANCH  22  23
ATOM     23  C   UNL     1       6.039   1.403  24.949  0.00  0.00    +0.307 C 
ATOM     24  O   UNL     1       4.869   1.043  24.896  0.00  0.00    -0.251 OA
BRANCH  23  25
ATOM     25  C   UNL     1       6.493   2.775  25.399  0.00  0.00    +0.120 C 
BRANCH  25  26
ATOM     26  C   UNL     1       7.359   3.427  24.326  0.00  0.00    +0.011 C 
BRANCH  26  28
ATOM     27  C   UNL     1       7.279   4.780  22.211  0.00  0.00    +0.004 C 
ATOM     28  C   UNL     1       6.556   3.755  23.070  0.00  0.00    -0.003 C 
ENDBRANCH  26  28
ENDBRANCH  25  26
ENDBRANCH  23  25
ENDBRANCH  22  23
ENDBRANCH  21  22
ENDBRANCH   1  21
TORSDOF 18
ENDMDL
MODEL 9
REMARK VINA RESULT:      -4.7      2.611      4.354
REMARK  Name = 
REMARK  23 active torsions:
REMARK  status: ('A' for Active; 'I' for Inactive)
REMARK    1  A    between atoms: C_1  and  C_2
REMARK    2  A    between atoms: C_2  and  C_3
REMARK    3  A    between atoms: C_3  and  C_4
REMARK    4  A    between atoms: C_4  and  C_5
REMARK    5  A    between atoms: C_5  and  O_7
REMARK    6  A    between atoms: O_7  and  C_8
REMARK    7  A    between atoms: C_8  and  C_9
REMARK    8  A    between atoms: C_9  and  C_11
REMARK    9  A    between atoms: C_9  and  O_23
REMARK   10  A    between atoms: C_11  and  O_12
REMARK   11  A    between atoms: O_12  and  P_13
REMARK   12  A    between atoms: P_13  and  O_16
REMARK   13  A    between atoms: O_16  and  C_17
REMARK   14  A    between atoms: C_17  and  C_18
REMARK   15  A    between atoms: C_18  and  N_19
REMARK   16  A    between atoms: N_19  and  C_20
REMARK   17  A    between atoms: N_19  and  C_21
REMARK   18  A    between atoms: N_19  and  C_22
REMARK   19  A    between atoms: O_23  and  C_24
REMARK   20  A    between atoms: C_24  and  C_26
REMARK   21  A    between atoms: C_26  and  C_27
REMARK   22  A    between atoms: C_27  and  C_28
REMARK   23  A    between atoms: C_28  and  C_29
REMARK                            x       y       z     vdW  Elec       q    Type
REMARK                         _______ _______ _______ _____ _____    ______ ____
ROOT
ATOM      1  C   UNL     1       8.723  -2.411  25.569  0.00  0.00    +0.240 C 
ENDROOT
BRANCH   1   2
ATOM      2  C   UNL     1       8.017  -1.639  26.724  0.00  0.00    +0.213 C 
BRANCH   2   3
ATOM      3  O   UNL     1       7.979  -0.227  26.547  0.00  0.00    -0.346 OA
BRANCH   3   4
ATOM      4  P   UNL     1       6.611   0.646  26.491  0.00  0.00    +0.040 P 
ATOM      5  S   UNL     1       6.895   2.418  27.254  0.00  0.00    -0.034 S 
ATOM      6  S   UNL     1       5.089  -0.079  27.451  0.00  0.00    -0.699 SA
BRANCH   4   7
ATOM      7  O   UNL     1       6.220   0.705  24.903  0.00  0.00    -0.345 OA
BRANCH   7   8
ATOM      8  C   UNL     1       6.788   1.622  23.979  0.00  0.00    +0.216 C 
BRANCH   8   9
ATOM      9  C   UNL     1       8.081   1.093  23.283  0.00  0.00    +0.161 C 
BRANCH   9  10
ATOM     10  N   UNL     1       9.424   1.828  23.556  0.00  0.00    +0.239 N 
ATOM     11  C   UNL     1      10.173   2.041  22.236  0.00  0.00    +0.192 C 
ATOM     12  C   UNL     1      10.336   1.020  24.470  0.00  0.00    +0.192 C 
ATOM     13  C   UNL     1       9.165   3.200  24.162  0.00  0.00    +0.192 C 
ENDBRANCH   9  10
ENDBRANCH   8   9
ENDBRANCH   7   8
ENDBRANCH   4   7
ENDBRANCH   3   4
ENDBRANCH   2   3
ENDBRANCH   1   2
BRANCH   1  14
ATOM     14  O   UNL     1       7.955  -2.228  24.342  0.00  0.00    -0.456 OA
BRANCH  14  15
ATOM     15  C   UNL     1       8.642  -2.377  23.179  0.00  0.00    +0.308 C 
ATOM     16  O   UNL     1       9.825  -2.126  23.016  0.00  0.00    -0.251 OA
BRANCH  15  17
ATOM     17  C   UNL     1       7.730  -2.854  22.069  0.00  0.00    +0.120 C 
BRANCH  17  18
ATOM     18  C   UNL     1       7.257  -4.293  22.277  0.00  0.00    +0.011 C 
BRANCH  18  19
ATOM     19  C   UNL     1       5.735  -4.433  22.199  0.00  0.00    -0.003 C 
ATOM     20  C   UNL     1       5.302  -5.892  22.219  0.00  0.00    +0.004 C 
ENDBRANCH  18  19
ENDBRANCH  17  18
ENDBRANCH  15  17
ENDBRANCH  14  15
ENDBRANCH   1  14
BRANCH   1  21
ATOM     21  C   UNL     1       8.814  -3.932  25.783  0.00  0.00    +0.279 C 
BRANCH  21  22
ATOM     22  O   UNL     1       8.382  -4.329  27.087  0.00  0.00    -0.461 OA
BRANCH  22  23
ATOM     23  C   UNL     1       7.469  -5.330  27.116  0.00  0.00    +0.307 C 
ATOM     24  O   UNL     1       7.236  -6.051  28.080  0.00  0.00    -0.251 OA
BRANCH  23  25
ATOM     25  C   UNL     1       6.798  -5.462  25.767  0.00  0.00    +0.120 C 
BRANCH  25  26
ATOM     26  C   UNL     1       5.304  -5.187  25.887  0.00  0.00    +0.011 C 
BRANCH  26  28
ATOM     27  C   UNL     1       3.962  -3.203  25.126  0.00  0.00    +0.004 C 
ATOM     28  C   UNL     1       5.014  -3.704  26.103  0.00  0.00    -0.003 C 
ENDBRANCH  26  28
ENDBRANCH  25  26
ENDBRANCH  23  25
ENDBRANCH  22  23
ENDBRANCH  21  22
ENDBRANCH   1  21
TORSDOF 18
ENDMDL
