MODEL 1
REMARK VINA RESULT:      -6.7      0.000      0.000
REMARK  Name = 
REMARK  18 active torsions:
REMARK  status: ('A' for Active; 'I' for Inactive)
REMARK    1  A    between atoms: C_1  and  C_2
REMARK    2  A    between atoms: C_2  and  C_3
REMARK    3  A    between atoms: C_3  and  C_4
REMARK    4  A    between atoms: C_4  and  C_5
REMARK    5  A    between atoms: C_5  and  C_6
REMARK    6  A    between atoms: C_9  and  C_12
REMARK    7  A    between atoms: N_14  and  C_15
REMARK    8  A    between atoms: C_18  and  S_21
REMARK    9  A    between atoms: S_21  and  N_24
REMARK   10  A    between atoms: N_24  and  C_25
REMARK   11  A    between atoms: N_24  and  C_33
REMARK   12  A    between atoms: C_25  and  C_26
REMARK   13  A    between atoms: C_26  and  N_27
REMARK   14  A    between atoms: C_33  and  C_35
REMARK   15  A    between atoms: C_33  and  C_38
REMARK   16  A    between atoms: C_35  and  C_36
REMARK   17  A    between atoms: C_35  and  C_37
REMARK   18  A    between atoms: N_40  and  O_41
REMARK                            x       y       z     vdW  Elec       q    Type
REMARK                         _______ _______ _______ _____ _____    ______ ____
ROOT
ATOM      1  S   UNL     1       4.680  -6.051  27.523  0.00  0.00    +0.062 S 
ATOM      2  O   UNL     1       3.742  -5.686  28.563  0.00  0.00    -0.153 OA
ATOM      3  O   UNL     1       5.551  -7.196  27.675  0.00  0.00    -0.153 OA
ENDROOT
BRANCH   1   7
ATOM      4  C   UNL     1       7.485  -2.589  26.443  0.00  0.00    +0.034 A 
ATOM      5  C   UNL     1       6.140  -2.337  26.737  0.00  0.00    +0.025 A 
ATOM      6  C   UNL     1       5.291  -3.376  27.151  0.00  0.00    +0.030 A 
ATOM      7  C   UNL     1       5.792  -4.676  27.289  0.00  0.00    +0.106 A 
ATOM      8  C   UNL     1       7.138  -4.926  27.028  0.00  0.00    +0.030 A 
ATOM      9  C   UNL     1       7.978  -3.885  26.628  0.00  0.00    +0.025 A 
BRANCH   4  11
ATOM     10  C   UNL     1       9.073  -1.608  24.790  0.00  0.00    +0.248 C 
ATOM     11  N   UNL     1       8.260  -1.528  25.908  0.00  0.00    -0.282 N 
ATOM     12  H   UNL     1       8.144  -0.633  26.359  0.00  0.00    +0.155 HD
ATOM     13  O   UNL     1       9.345  -2.647  24.194  0.00  0.00    -0.270 OA
BRANCH  10  17
ATOM     14  C   UNL     1      10.481   2.132  23.168  0.00  0.00    -0.047 A 
ATOM     15  C   UNL     1      11.184   1.547  24.229  0.00  0.00    +0.004 A 
ATOM     16  C   UNL     1      10.779   0.317  24.770  0.00  0.00    +0.013 A 
ATOM     17  C   UNL     1       9.664  -0.346  24.243  0.00  0.00    +0.037 A 
ATOM     18  C   UNL     1       8.994   0.226  23.150  0.00  0.00    +0.013 A 
ATOM     19  C   UNL     1       9.402   1.442  22.610  0.00  0.00    +0.004 A 
BRANCH  14  20
ATOM     20  C   UNL     1      10.821   3.515  22.671  0.00  0.00    +0.035 C 
BRANCH  20  21
ATOM     21  C   UNL     1      10.641   4.595  23.750  0.00  0.00    +0.005 C 
BRANCH  21  22
ATOM     22  C   UNL     1      11.828   5.561  23.840  0.00  0.00    +0.000 C 
BRANCH  22  24
ATOM     23  C   UNL     1      13.559   5.844  22.021  0.00  0.00    +0.004 C 
ATOM     24  C   UNL     1      13.070   4.971  23.171  0.00  0.00    -0.003 C 
ENDBRANCH  22  24
ENDBRANCH  21  22
ENDBRANCH  20  21
ENDBRANCH  14  20
ENDBRANCH  10  17
ENDBRANCH   4  11
ENDBRANCH   1   7
BRANCH   1  25
ATOM     25  N   UNL     1       3.795  -6.271  26.094  0.00  0.00    -0.163 NA
BRANCH  25  26
ATOM     26  C   UNL     1       2.266  -6.200  26.231  0.00  0.00    +0.170 C 
BRANCH  26  27
ATOM     27  C   UNL     1       1.645  -4.972  25.542  0.00  0.00    +0.255 C 
ATOM     28  N   UNL     1       1.759  -3.797  26.246  0.00  0.00    -0.196 N 
ATOM     29  H   UNL     1       2.546  -3.682  26.874  0.00  0.00    +0.182 HD
ATOM     30  O   UNL     1       0.982  -5.021  24.505  0.00  0.00    -0.272 OA
BRANCH  28  31
ATOM     31  O   UNL     1       1.316  -2.641  25.553  0.00  0.00    -0.295 OA
ATOM     32  H   UNL     1       2.154  -2.295  25.168  0.00  0.00    +0.241 HD
ENDBRANCH  28  31
ENDBRANCH  26  27
BRANCH  26  33
ATOM     33  C   UNL     1       1.406  -7.476  25.958  0.00  0.00    +0.011 C 
ATOM     34  C   UNL     1       0.846  -8.167  27.200  0.00  0.00    +0.009 C 
ATOM     35  C   UNL     1       1.984  -8.523  24.995  0.00  0.00    +0.009 C 
ENDBRANCH  26  33
ENDBRANCH  25  26
BRANCH  25  36
ATOM     36  C   UNL     1       4.281  -5.549  24.861  0.00  0.00    +0.125 C 
BRANCH  36  37
ATOM     37  C   UNL     1       5.238  -6.320  23.928  0.00  0.00    +0.101 C 
BRANCH  37  38
ATOM     38  N   UNL     1       6.464  -5.615  23.513  0.00  0.00    -0.297 NA
ATOM     39  C   UNL     1       6.210  -4.154  23.378  0.00  0.00    +0.112 C 
ATOM     40  C   UNL     1       5.327  -3.783  22.176  0.00  0.00    +0.175 C 
ATOM     41  O   UNL     1       5.907  -4.248  20.954  0.00  0.00    -0.377 OA
ATOM     42  C   UNL     1       6.131  -5.662  20.991  0.00  0.00    +0.175 C 
ATOM     43  C   UNL     1       6.987  -6.080  22.205  0.00  0.00    +0.112 C 
ENDBRANCH  37  38
ENDBRANCH  36  37
ENDBRANCH  25  36
ENDBRANCH   1  25
TORSDOF 15
ENDMDL
MODEL 2
REMARK VINA RESULT:      -6.5      2.592      4.550
REMARK  Name = 
REMARK  18 active torsions:
REMARK  status: ('A' for Active; 'I' for Inactive)
REMARK    1  A    between atoms: C_1  and  C_2
REMARK    2  A    between atoms: C_2  and  C_3
REMARK    3  A    between atoms: C_3  and  C_4
REMARK    4  A    between atoms: C_4  and  C_5
REMARK    5  A    between atoms: C_5  and  C_6
REMARK    6  A    between atoms: C_9  and  C_12
REMARK    7  A    between atoms: N_14  and  C_15
REMARK    8  A    between atoms: C_18  and  S_21
REMARK    9  A    between atoms: S_21  and  N_24
REMARK   10  A    between atoms: N_24  and  C_25
REMARK   11  A    between atoms: N_24  and  C_33
REMARK   12  A    between atoms: C_25  and  C_26
REMARK   13  A    between atoms: C_26  and  N_27
REMARK   14  A    between atoms: C_33  and  C_35
REMARK   15  A    between atoms: C_33  and  C_38
REMARK   16  A    between atoms: C_35  and  C_36
REMARK   17  A    between atoms: C_35  and  C_37
REMARK   18  A    between atoms: N_40  and  O_41
REMARK                            x       y       z     vdW  Elec       q    Type
REMARK                         _______ _______ _______ _____ _____    ______ ____
ROOT
ATOM      1  S   UNL     1       5.408  -4.960  23.382  0.00  0.00    +0.062 S 
ATOM      2  O   UNL     1       6.440  -5.975  23.350  0.00  0.00    -0.153 OA
ATOM      3  O   UNL     1       4.610  -4.674  22.209  0.00  0.00    -0.153 OA
ENDROOT
BRANCH   1   7
ATOM      4  C   UNL     1       7.257  -0.806  23.967  0.00  0.00    +0.034 A 
ATOM      5  C   UNL     1       6.007  -1.103  24.524  0.00  0.00    +0.025 A 
ATOM      6  C   UNL     1       5.468  -2.397  24.425  0.00  0.00    +0.030 A 
ATOM      7  C   UNL     1       6.189  -3.407  23.778  0.00  0.00    +0.106 A 
ATOM      8  C   UNL     1       7.448  -3.123  23.249  0.00  0.00    +0.030 A 
ATOM      9  C   UNL     1       7.981  -1.838  23.363  0.00  0.00    +0.025 A 
BRANCH   4  11
ATOM     10  C   UNL     1       7.232   1.550  23.153  0.00  0.00    +0.248 C 
ATOM     11  N   UNL     1       7.690   0.545  23.988  0.00  0.00    -0.282 N 
ATOM     12  H   UNL     1       8.340   0.784  24.722  0.00  0.00    +0.155 HD
ATOM     13  O   UNL     1       6.493   1.377  22.187  0.00  0.00    -0.270 OA
BRANCH  10  17
ATOM     14  C   UNL     1       8.682   5.496  24.114  0.00  0.00    -0.047 A 
ATOM     15  C   UNL     1       8.016   5.298  22.897  0.00  0.00    +0.004 A 
ATOM     16  C   UNL     1       7.503   4.037  22.555  0.00  0.00    +0.013 A 
ATOM     17  C   UNL     1       7.646   2.961  23.438  0.00  0.00    +0.037 A 
ATOM     18  C   UNL     1       8.274   3.181  24.675  0.00  0.00    +0.013 A 
ATOM     19  C   UNL     1       8.776   4.434  25.015  0.00  0.00    +0.004 A 
BRANCH  14  20
ATOM     20  C   UNL     1       9.359   6.807  24.431  0.00  0.00    +0.035 C 
BRANCH  20  21
ATOM     21  C   UNL     1      10.506   6.654  25.442  0.00  0.00    +0.005 C 
BRANCH  21  22
ATOM     22  C   UNL     1      11.883   6.535  24.778  0.00  0.00    +0.000 C 
BRANCH  22  24
ATOM     23  C   UNL     1      12.151   4.481  23.331  0.00  0.00    +0.004 C 
ATOM     24  C   UNL     1      11.765   5.956  23.368  0.00  0.00    -0.003 C 
ENDBRANCH  22  24
ENDBRANCH  21  22
ENDBRANCH  20  21
ENDBRANCH  14  20
ENDBRANCH  10  17
ENDBRANCH   4  11
ENDBRANCH   1   7
BRANCH   1  25
ATOM     25  N   UNL     1       4.341  -5.358  24.638  0.00  0.00    -0.163 NA
BRANCH  25  26
ATOM     26  C   UNL     1       2.844  -5.243  24.312  0.00  0.00    +0.170 C 
BRANCH  26  27
ATOM     27  C   UNL     1       2.192  -6.587  23.945  0.00  0.00    +0.255 C 
ATOM     28  N   UNL     1       2.346  -6.964  22.632  0.00  0.00    -0.196 N 
ATOM     29  H   UNL     1       3.165  -6.644  22.129  0.00  0.00    +0.182 HD
ATOM     30  O   UNL     1       1.474  -7.240  24.706  0.00  0.00    -0.272 OA
BRANCH  28  31
ATOM     31  O   UNL     1       1.870  -8.264  22.324  0.00  0.00    -0.295 OA
ATOM     32  H   UNL     1       2.693  -8.726  22.042  0.00  0.00    +0.241 HD
ENDBRANCH  28  31
ENDBRANCH  26  27
BRANCH  26  33
ATOM     33  C   UNL     1       1.910  -4.419  25.256  0.00  0.00    +0.011 C 
ATOM     34  C   UNL     1       0.600  -3.943  24.630  0.00  0.00    +0.009 C 
ATOM     35  C   UNL     1       2.549  -3.276  26.057  0.00  0.00    +0.009 C 
ENDBRANCH  26  33
ENDBRANCH  25  26
BRANCH  25  36
ATOM     36  C   UNL     1       4.647  -6.602  25.436  0.00  0.00    +0.125 C 
BRANCH  36  37
ATOM     37  C   UNL     1       4.806  -6.435  26.961  0.00  0.00    +0.101 C 
BRANCH  37  38
ATOM     38  N   UNL     1       5.955  -5.633  27.421  0.00  0.00    -0.297 NA
ATOM     39  C   UNL     1       6.622  -6.288  28.580  0.00  0.00    +0.112 C 
ATOM     40  C   UNL     1       5.797  -6.251  29.877  0.00  0.00    +0.175 C 
ATOM     41  O   UNL     1       5.486  -4.904  30.245  0.00  0.00    -0.377 OA
ATOM     42  C   UNL     1       4.792  -4.226  29.192  0.00  0.00    +0.175 C 
ATOM     43  C   UNL     1       5.573  -4.270  27.862  0.00  0.00    +0.112 C 
ENDBRANCH  37  38
ENDBRANCH  36  37
ENDBRANCH  25  36
ENDBRANCH   1  25
TORSDOF 15
ENDMDL
MODEL 3
REMARK VINA RESULT:      -6.4      2.449      4.536
REMARK  Name = 
REMARK  18 active torsions:
REMARK  status: ('A' for Active; 'I' for Inactive)
REMARK    1  A    between atoms: C_1  and  C_2
REMARK    2  A    between atoms: C_2  and  C_3
REMARK    3  A    between atoms: C_3  and  C_4
REMARK    4  A    between atoms: C_4  and  C_5
REMARK    5  A    between atoms: C_5  and  C_6
REMARK    6  A    between atoms: C_9  and  C_12
REMARK    7  A    between atoms: N_14  and  C_15
REMARK    8  A    between atoms: C_18  and  S_21
REMARK    9  A    between atoms: S_21  and  N_24
REMARK   10  A    between atoms: N_24  and  C_25
REMARK   11  A    between atoms: N_24  and  C_33
REMARK   12  A    between atoms: C_25  and  C_26
REMARK   13  A    between atoms: C_26  and  N_27
REMARK   14  A    between atoms: C_33  and  C_35
REMARK   15  A    between atoms: C_33  and  C_38
REMARK   16  A    between atoms: C_35  and  C_36
REMARK   17  A    between atoms: C_35  and  C_37
REMARK   18  A    between atoms: N_40  and  O_41
REMARK                            x       y       z     vdW  Elec       q    Type
REMARK                         _______ _______ _______ _____ _____    ______ ____
ROOT
ATOM      1  S   UNL     1       5.279  -5.423  23.284  0.00  0.00    +0.062 S 
ATOM      2  O   UNL     1       6.200  -6.535  23.397  0.00  0.00    -0.153 OA
ATOM      3  O   UNL     1       4.551  -5.183  22.058  0.00  0.00    -0.153 OA
ENDROOT
BRANCH   1   7
ATOM      4  C   UNL     1       7.379  -1.362  23.629  0.00  0.00    +0.034 A 
ATOM      5  C   UNL     1       6.361  -1.705  24.527  0.00  0.00    +0.025 A 
ATOM      6  C   UNL     1       5.768  -2.978  24.486  0.00  0.00    +0.030 A 
ATOM      7  C   UNL     1       6.206  -3.923  23.551  0.00  0.00    +0.106 A 
ATOM      8  C   UNL     1       7.241  -3.597  22.676  0.00  0.00    +0.030 A 
ATOM      9  C   UNL     1       7.832  -2.334  22.731  0.00  0.00    +0.025 A 
BRANCH   4  11
ATOM     10  C   UNL     1       9.037   0.410  24.197  0.00  0.00    +0.248 C 
ATOM     11  N   UNL     1       7.848  -0.024  23.635  0.00  0.00    -0.282 N 
ATOM     12  H   UNL     1       7.282   0.640  23.128  0.00  0.00    +0.155 HD
ATOM     13  O   UNL     1       9.779  -0.282  24.890  0.00  0.00    -0.270 OA
BRANCH  10  17
ATOM     14  C   UNL     1      10.102   4.558  23.690  0.00  0.00    -0.047 A 
ATOM     15  C   UNL     1      11.100   3.583  23.563  0.00  0.00    +0.004 A 
ATOM     16  C   UNL     1      10.794   2.219  23.693  0.00  0.00    +0.013 A 
ATOM     17  C   UNL     1       9.477   1.818  23.942  0.00  0.00    +0.037 A 
ATOM     18  C   UNL     1       8.476   2.801  24.021  0.00  0.00    +0.013 A 
ATOM     19  C   UNL     1       8.780   4.152  23.886  0.00  0.00    +0.004 A 
BRANCH  14  20
ATOM     20  C   UNL     1      10.440   6.029  23.692  0.00  0.00    +0.035 C 
BRANCH  20  21
ATOM     21  C   UNL     1       9.502   6.853  24.588  0.00  0.00    +0.005 C 
BRANCH  21  22
ATOM     22  C   UNL     1       9.845   6.748  26.078  0.00  0.00    +0.000 C 
BRANCH  22  24
ATOM     23  C   UNL     1       7.394   6.312  26.513  0.00  0.00    +0.004 C 
ATOM     24  C   UNL     1       8.633   7.087  26.947  0.00  0.00    -0.003 C 
ENDBRANCH  22  24
ENDBRANCH  21  22
ENDBRANCH  20  21
ENDBRANCH  14  20
ENDBRANCH  10  17
ENDBRANCH   4  11
ENDBRANCH   1   7
BRANCH   1  25
ATOM     25  N   UNL     1       4.140  -5.578  24.531  0.00  0.00    -0.163 NA
BRANCH  25  26
ATOM     26  C   UNL     1       2.667  -5.444  24.117  0.00  0.00    +0.170 C 
BRANCH  26  27
ATOM     27  C   UNL     1       1.997  -6.789  23.787  0.00  0.00    +0.255 C 
ATOM     28  N   UNL     1       2.074  -7.163  22.466  0.00  0.00    -0.196 N 
ATOM     29  H   UNL     1       2.859  -6.839  21.915  0.00  0.00    +0.182 HD
ATOM     30  O   UNL     1       1.329  -7.445  24.588  0.00  0.00    -0.272 OA
BRANCH  28  31
ATOM     31  O   UNL     1       1.584  -8.463  22.185  0.00  0.00    -0.295 OA
ATOM     32  H   UNL     1       2.216  -8.780  21.499  0.00  0.00    +0.241 HD
ENDBRANCH  28  31
ENDBRANCH  26  27
BRANCH  26  33
ATOM     33  C   UNL     1       1.707  -4.545  24.962  0.00  0.00    +0.011 C 
ATOM     34  C   UNL     1       0.443  -4.078  24.242  0.00  0.00    +0.009 C 
ATOM     35  C   UNL     1       2.332  -3.372  25.730  0.00  0.00    +0.009 C 
ENDBRANCH  26  33
ENDBRANCH  25  26
BRANCH  25  36
ATOM     36  C   UNL     1       4.345  -6.701  25.518  0.00  0.00    +0.125 C 
BRANCH  36  37
ATOM     37  C   UNL     1       4.375  -6.323  27.013  0.00  0.00    +0.101 C 
BRANCH  37  38
ATOM     38  N   UNL     1       5.254  -5.200  27.392  0.00  0.00    -0.297 NA
ATOM     39  C   UNL     1       6.556  -5.704  27.909  0.00  0.00    +0.112 C 
ATOM     40  C   UNL     1       6.461  -6.382  29.286  0.00  0.00    +0.175 C 
ATOM     41  O   UNL     1       5.914  -5.487  30.258  0.00  0.00    -0.377 OA
ATOM     42  C   UNL     1       4.629  -5.002  29.851  0.00  0.00    +0.175 C 
ATOM     43  C   UNL     1       4.675  -4.344  28.456  0.00  0.00    +0.112 C 
ENDBRANCH  37  38
ENDBRANCH  36  37
ENDBRANCH  25  36
ENDBRANCH   1  25
TORSDOF 15
ENDMDL
MODEL 4
REMARK VINA RESULT:      -6.4      2.583      4.400
REMARK  Name = 
REMARK  18 active torsions:
REMARK  status: ('A' for Active; 'I' for Inactive)
REMARK    1  A    between atoms: C_1  and  C_2
REMARK    2  A    between atoms: C_2  and  C_3
REMARK    3  A    between atoms: C_3  and  C_4
REMARK    4  A    between atoms: C_4  and  C_5
REMARK    5  A    between atoms: C_5  and  C_6
REMARK    6  A    between atoms: C_9  and  C_12
REMARK    7  A    between atoms: N_14  and  C_15
REMARK    8  A    between atoms: C_18  and  S_21
REMARK    9  A    between atoms: S_21  and  N_24
REMARK   10  A    between atoms: N_24  and  C_25
REMARK   11  A    between atoms: N_24  and  C_33
REMARK   12  A    between atoms: C_25  and  C_26
REMARK   13  A    between atoms: C_26  and  N_27
REMARK   14  A    between atoms: C_33  and  C_35
REMARK   15  A    between atoms: C_33  and  C_38
REMARK   16  A    between atoms: C_35  and  C_36
REMARK   17  A    between atoms: C_35  and  C_37
REMARK   18  A    between atoms: N_40  and  O_41
REMARK                            x       y       z     vdW  Elec       q    Type
REMARK                         _______ _______ _______ _____ _____    ______ ____
ROOT
ATOM      1  S   UNL     1       4.651  -5.569  23.643  0.00  0.00    +0.062 S 
ATOM      2  O   UNL     1       5.599  -6.617  23.326  0.00  0.00    -0.153 OA
ATOM      3  O   UNL     1       3.772  -5.030  22.629  0.00  0.00    -0.153 OA
ENDROOT
BRANCH   1   7
ATOM      4  C   UNL     1       7.013  -1.780  24.680  0.00  0.00    +0.034 A 
ATOM      5  C   UNL     1       5.632  -1.829  24.904  0.00  0.00    +0.025 A 
ATOM      6  C   UNL     1       4.911  -3.012  24.670  0.00  0.00    +0.030 A 
ATOM      7  C   UNL     1       5.576  -4.160  24.225  0.00  0.00    +0.106 A 
ATOM      8  C   UNL     1       6.956  -4.124  24.031  0.00  0.00    +0.030 A 
ATOM      9  C   UNL     1       7.667  -2.948  24.277  0.00  0.00    +0.025 A 
BRANCH   4  11
ATOM     10  C   UNL     1       7.856   0.392  23.792  0.00  0.00    +0.248 C 
ATOM     11  N   UNL     1       7.663  -0.526  24.811  0.00  0.00    -0.282 N 
ATOM     12  H   UNL     1       7.945  -0.276  25.747  0.00  0.00    +0.155 HD
ATOM     13  O   UNL     1       7.616   0.182  22.606  0.00  0.00    -0.270 OA
BRANCH  10  17
ATOM     14  C   UNL     1       9.411   4.353  24.489  0.00  0.00    -0.047 A 
ATOM     15  C   UNL     1       8.380   3.876  25.310  0.00  0.00    +0.004 A 
ATOM     16  C   UNL     1       7.863   2.583  25.138  0.00  0.00    +0.013 A 
ATOM     17  C   UNL     1       8.383   1.749  24.142  0.00  0.00    +0.037 A 
ATOM     18  C   UNL     1       9.447   2.219  23.355  0.00  0.00    +0.013 A 
ATOM     19  C   UNL     1       9.963   3.499  23.532  0.00  0.00    +0.004 A 
BRANCH  14  20
ATOM     20  C   UNL     1       9.879   5.786  24.572  0.00  0.00    +0.035 C 
BRANCH  20  21
ATOM     21  C   UNL     1       9.443   6.624  23.360  0.00  0.00    +0.005 C 
BRANCH  21  22
ATOM     22  C   UNL     1       7.920   6.741  23.224  0.00  0.00    +0.000 C 
BRANCH  22  24
ATOM     23  C   UNL     1       6.423   4.897  22.361  0.00  0.00    +0.004 C 
ATOM     24  C   UNL     1       7.419   5.991  21.990  0.00  0.00    -0.003 C 
ENDBRANCH  22  24
ENDBRANCH  21  22
ENDBRANCH  20  21
ENDBRANCH  14  20
ENDBRANCH  10  17
ENDBRANCH   4  11
ENDBRANCH   1   7
BRANCH   1  25
ATOM     25  N   UNL     1       3.677  -6.132  24.912  0.00  0.00    -0.163 NA
BRANCH  25  26
ATOM     26  C   UNL     1       2.218  -6.451  24.551  0.00  0.00    +0.170 C 
BRANCH  26  27
ATOM     27  C   UNL     1       2.062  -7.719  23.695  0.00  0.00    +0.255 C 
ATOM     28  N   UNL     1       1.581  -7.502  22.425  0.00  0.00    -0.196 N 
ATOM     29  H   UNL     1       1.768  -6.611  21.982  0.00  0.00    +0.182 HD
ATOM     30  O   UNL     1       2.224  -8.865  24.117  0.00  0.00    -0.272 OA
BRANCH  28  31
ATOM     31  O   UNL     1       1.569  -8.646  21.588  0.00  0.00    -0.295 OA
ATOM     32  H   UNL     1       1.371  -8.256  20.705  0.00  0.00    +0.241 HD
ENDBRANCH  28  31
ENDBRANCH  26  27
BRANCH  26  33
ATOM     33  C   UNL     1       1.120  -6.400  25.662  0.00  0.00    +0.011 C 
ATOM     34  C   UNL     1       1.152  -5.164  26.560  0.00  0.00    +0.009 C 
ATOM     35  C   UNL     1       0.924  -7.659  26.518  0.00  0.00    +0.009 C 
ENDBRANCH  26  33
ENDBRANCH  25  26
BRANCH  25  36
ATOM     36  C   UNL     1       4.269  -7.176  25.826  0.00  0.00    +0.125 C 
BRANCH  36  37
ATOM     37  C   UNL     1       4.513  -6.767  27.294  0.00  0.00    +0.101 C 
BRANCH  37  38
ATOM     38  N   UNL     1       5.787  -6.086  27.586  0.00  0.00    -0.297 NA
ATOM     39  C   UNL     1       6.442  -6.688  28.781  0.00  0.00    +0.112 C 
ATOM     40  C   UNL     1       5.723  -6.386  30.105  0.00  0.00    +0.175 C 
ATOM     41  O   UNL     1       5.620  -4.975  30.319  0.00  0.00    -0.377 OA
ATOM     42  C   UNL     1       4.949  -4.333  29.229  0.00  0.00    +0.175 C 
ATOM     43  C   UNL     1       5.621  -4.641  27.874  0.00  0.00    +0.112 C 
ENDBRANCH  37  38
ENDBRANCH  36  37
ENDBRANCH  25  36
ENDBRANCH   1  25
TORSDOF 15
ENDMDL
MODEL 5
REMARK VINA RESULT:      -6.3      2.209      4.236
REMARK  Name = 
REMARK  18 active torsions:
REMARK  status: ('A' for Active; 'I' for Inactive)
REMARK    1  A    between atoms: C_1  and  C_2
REMARK    2  A    between atoms: C_2  and  C_3
REMARK    3  A    between atoms: C_3  and  C_4
REMARK    4  A    between atoms: C_4  and  C_5
REMARK    5  A    between atoms: C_5  and  C_6
REMARK    6  A    between atoms: C_9  and  C_12
REMARK    7  A    between atoms: N_14  and  C_15
REMARK    8  A    between atoms: C_18  and  S_21
REMARK    9  A    between atoms: S_21  and  N_24
REMARK   10  A    between atoms: N_24  and  C_25
REMARK   11  A    between atoms: N_24  and  C_33
REMARK   12  A    between atoms: C_25  and  C_26
REMARK   13  A    between atoms: C_26  and  N_27
REMARK   14  A    between atoms: C_33  and  C_35
REMARK   15  A    between atoms: C_33  and  C_38
REMARK   16  A    between atoms: C_35  and  C_36
REMARK   17  A    between atoms: C_35  and  C_37
REMARK   18  A    between atoms: N_40  and  O_41
REMARK                            x       y       z     vdW  Elec       q    Type
REMARK                         _______ _______ _______ _____ _____    ______ ____
ROOT
ATOM      1  S   UNL     1       4.704  -6.655  25.532  0.00  0.00    +0.062 S 
ATOM      2  O   UNL     1       5.126  -7.014  26.870  0.00  0.00    -0.153 OA
ATOM      3  O   UNL     1       4.728  -7.625  24.459  0.00  0.00    -0.153 OA
ENDROOT
BRANCH   1   7
ATOM      4  C   UNL     1       7.225  -2.991  24.419  0.00  0.00    +0.034 A 
ATOM      5  C   UNL     1       7.750  -3.973  25.267  0.00  0.00    +0.025 A 
ATOM      6  C   UNL     1       7.021  -5.141  25.548  0.00  0.00    +0.030 A 
ATOM      7  C   UNL     1       5.764  -5.339  24.965  0.00  0.00    +0.106 A 
ATOM      8  C   UNL     1       5.251  -4.378  24.094  0.00  0.00    +0.030 A 
ATOM      9  C   UNL     1       5.987  -3.226  23.811  0.00  0.00    +0.025 A 
BRANCH   4  11
ATOM     10  C   UNL     1       8.663  -1.398  23.151  0.00  0.00    +0.248 C 
ATOM     11  N   UNL     1       7.949  -1.780  24.274  0.00  0.00    -0.282 N 
ATOM     12  H   UNL     1       7.872  -1.131  25.043  0.00  0.00    +0.155 HD
ATOM     13  O   UNL     1       8.883  -2.118  22.181  0.00  0.00    -0.270 OA
BRANCH  10  17
ATOM     14  C   UNL     1      10.422   2.539  23.202  0.00  0.00    -0.047 A 
ATOM     15  C   UNL     1      10.034   1.987  21.974  0.00  0.00    +0.004 A 
ATOM     16  C   UNL     1       9.432   0.721  21.912  0.00  0.00    +0.013 A 
ATOM     17  C   UNL     1       9.204  -0.003  23.088  0.00  0.00    +0.037 A 
ATOM     18  C   UNL     1       9.554   0.579  24.317  0.00  0.00    +0.013 A 
ATOM     19  C   UNL     1      10.145   1.837  24.377  0.00  0.00    +0.004 A 
BRANCH  14  20
ATOM     20  C   UNL     1      11.194   3.834  23.270  0.00  0.00    +0.035 C 
BRANCH  20  21
ATOM     21  C   UNL     1      10.505   4.892  24.147  0.00  0.00    +0.005 C 
BRANCH  21  22
ATOM     22  C   UNL     1       9.295   5.544  23.467  0.00  0.00    +0.000 C 
BRANCH  22  24
ATOM     23  C   UNL     1       8.139   4.641  25.525  0.00  0.00    +0.004 C 
ATOM     24  C   UNL     1       8.142   5.727  24.455  0.00  0.00    -0.003 C 
ENDBRANCH  22  24
ENDBRANCH  21  22
ENDBRANCH  20  21
ENDBRANCH  14  20
ENDBRANCH  10  17
ENDBRANCH   4  11
ENDBRANCH   1   7
BRANCH   1  25
ATOM     25  N   UNL     1       3.121  -6.057  25.642  0.00  0.00    -0.163 NA
BRANCH  25  26
ATOM     26  C   UNL     1       2.066  -6.785  24.794  0.00  0.00    +0.170 C 
BRANCH  26  27
ATOM     27  C   UNL     1       1.478  -8.029  25.481  0.00  0.00    +0.255 C 
ATOM     28  N   UNL     1       2.116  -9.210  25.180  0.00  0.00    -0.196 N 
ATOM     29  H   UNL     1       3.099  -9.181  24.937  0.00  0.00    +0.182 HD
ATOM     30  O   UNL     1       0.445  -8.027  26.153  0.00  0.00    -0.272 OA
BRANCH  28  31
ATOM     31  O   UNL     1       1.669 -10.335  25.918  0.00  0.00    -0.295 OA
ATOM     32  H   UNL     1       2.002 -10.135  26.823  0.00  0.00    +0.241 HD
ENDBRANCH  28  31
ENDBRANCH  26  27
BRANCH  26  33
ATOM     33  C   UNL     1       0.938  -5.961  24.092  0.00  0.00    +0.011 C 
ATOM     34  C   UNL     1       0.665  -6.332  22.636  0.00  0.00    +0.009 C 
ATOM     35  C   UNL     1       0.985  -4.434  24.240  0.00  0.00    +0.009 C 
ENDBRANCH  26  33
ENDBRANCH  25  26
BRANCH  25  36
ATOM     36  C   UNL     1       2.601  -5.727  27.020  0.00  0.00    +0.125 C 
BRANCH  36  37
ATOM     37  C   UNL     1       2.454  -4.233  27.374  0.00  0.00    +0.101 C 
BRANCH  37  38
ATOM     38  N   UNL     1       3.664  -3.401  27.240  0.00  0.00    -0.297 NA
ATOM     39  C   UNL     1       4.522  -3.522  28.451  0.00  0.00    +0.112 C 
ATOM     40  C   UNL     1       3.933  -2.852  29.702  0.00  0.00    +0.175 C 
ATOM     41  O   UNL     1       3.689  -1.462  29.469  0.00  0.00    -0.377 OA
ATOM     42  C   UNL     1       2.822  -1.269  28.345  0.00  0.00    +0.175 C 
ATOM     43  C   UNL     1       3.362  -1.958  27.074  0.00  0.00    +0.112 C 
ENDBRANCH  37  38
ENDBRANCH  36  37
ENDBRANCH  25  36
ENDBRANCH   1  25
TORSDOF 15
ENDMDL
MODEL 6
REMARK VINA RESULT:      -6.3      1.281      1.697
REMARK  Name = 
REMARK  18 active torsions:
REMARK  status: ('A' for Active; 'I' for Inactive)
REMARK    1  A    between atoms: C_1  and  C_2
REMARK    2  A    between atoms: C_2  and  C_3
REMARK    3  A    between atoms: C_3  and  C_4
REMARK    4  A    between atoms: C_4  and  C_5
REMARK    5  A    between atoms: C_5  and  C_6
REMARK    6  A    between atoms: C_9  and  C_12
REMARK    7  A    between atoms: N_14  and  C_15
REMARK    8  A    between atoms: C_18  and  S_21
REMARK    9  A    between atoms: S_21  and  N_24
REMARK   10  A    between atoms: N_24  and  C_25
REMARK   11  A    between atoms: N_24  and  C_33
REMARK   12  A    between atoms: C_25  and  C_26
REMARK   13  A    between atoms: C_26  and  N_27
REMARK   14  A    between atoms: C_33  and  C_35
REMARK   15  A    between atoms: C_33  and  C_38
REMARK   16  A    between atoms: C_35  and  C_36
REMARK   17  A    between atoms: C_35  and  C_37
REMARK   18  A    between atoms: N_40  and  O_41
REMARK                            x       y       z     vdW  Elec       q    Type
REMARK                         _______ _______ _______ _____ _____    ______ ____
ROOT
ATOM      1  S   UNL     1       5.058  -5.642  27.404  0.00  0.00    +0.062 S 
ATOM      2  O   UNL     1       4.156  -5.462  28.522  0.00  0.00    -0.153 OA
ATOM      3  O   UNL     1       6.025  -6.718  27.395  0.00  0.00    -0.153 OA
ENDROOT
BRANCH   1   7
ATOM      4  C   UNL     1       7.450  -1.826  26.551  0.00  0.00    +0.034 A 
ATOM      5  C   UNL     1       6.166  -1.741  27.102  0.00  0.00    +0.025 A 
ATOM      6  C   UNL     1       5.457  -2.904  27.447  0.00  0.00    +0.030 A 
ATOM      7  C   UNL     1       6.040  -4.161  27.255  0.00  0.00    +0.106 A 
ATOM      8  C   UNL     1       7.331  -4.249  26.737  0.00  0.00    +0.030 A 
ATOM      9  C   UNL     1       8.034  -3.089  26.408  0.00  0.00    +0.025 A 
BRANCH   4  11
ATOM     10  C   UNL     1       7.759   0.047  24.936  0.00  0.00    +0.248 C 
ATOM     11  N   UNL     1       8.064  -0.627  26.107  0.00  0.00    -0.282 N 
ATOM     12  H   UNL     1       8.731  -0.215  26.742  0.00  0.00    +0.155 HD
ATOM     13  O   UNL     1       7.016  -0.378  24.055  0.00  0.00    -0.270 OA
BRANCH  10  17
ATOM     14  C   UNL     1       9.507   3.874  23.989  0.00  0.00    -0.047 A 
ATOM     15  C   UNL     1       8.504   3.811  24.966  0.00  0.00    +0.004 A 
ATOM     16  C   UNL     1       7.926   2.584  25.326  0.00  0.00    +0.013 A 
ATOM     17  C   UNL     1       8.358   1.401  24.714  0.00  0.00    +0.037 A 
ATOM     18  C   UNL     1       9.395   1.470  23.770  0.00  0.00    +0.013 A 
ATOM     19  C   UNL     1       9.972   2.687  23.419  0.00  0.00    +0.004 A 
BRANCH  14  20
ATOM     20  C   UNL     1      10.036   5.198  23.494  0.00  0.00    +0.035 C 
BRANCH  20  21
ATOM     21  C   UNL     1      10.735   6.008  24.597  0.00  0.00    +0.005 C 
BRANCH  21  22
ATOM     22  C   UNL     1      12.221   6.260  24.310  0.00  0.00    +0.000 C 
BRANCH  22  24
ATOM     23  C   UNL     1      13.213   5.669  22.062  0.00  0.00    +0.004 C 
ATOM     24  C   UNL     1      12.808   5.150  23.438  0.00  0.00    -0.003 C 
ENDBRANCH  22  24
ENDBRANCH  21  22
ENDBRANCH  20  21
ENDBRANCH  14  20
ENDBRANCH  10  17
ENDBRANCH   4  11
ENDBRANCH   1   7
BRANCH   1  25
ATOM     25  N   UNL     1       4.110  -5.799  26.007  0.00  0.00    -0.163 NA
BRANCH  25  26
ATOM     26  C   UNL     1       2.592  -5.678  26.206  0.00  0.00    +0.170 C 
BRANCH  26  27
ATOM     27  C   UNL     1       2.007  -4.357  25.676  0.00  0.00    +0.255 C 
ATOM     28  N   UNL     1       2.057  -3.308  26.564  0.00  0.00    -0.196 N 
ATOM     29  H   UNL     1       2.795  -3.294  27.257  0.00  0.00    +0.182 HD
ATOM     30  O   UNL     1       1.420  -4.241  24.599  0.00  0.00    -0.272 OA
BRANCH  28  31
ATOM     31  O   UNL     1       1.651  -2.057  26.032  0.00  0.00    -0.295 OA
ATOM     32  H   UNL     1       2.470  -1.745  25.584  0.00  0.00    +0.241 HD
ENDBRANCH  28  31
ENDBRANCH  26  27
BRANCH  26  33
ATOM     33  C   UNL     1       1.666  -6.879  25.827  0.00  0.00    +0.011 C 
ATOM     34  C   UNL     1       0.690  -7.323  26.916  0.00  0.00    +0.009 C 
ATOM     35  C   UNL     1       2.329  -8.107  25.190  0.00  0.00    +0.009 C 
ENDBRANCH  26  33
ENDBRANCH  25  26
BRANCH  25  36
ATOM     36  C   UNL     1       4.574  -5.066  24.772  0.00  0.00    +0.125 C 
BRANCH  36  37
ATOM     37  C   UNL     1       4.695  -5.888  23.472  0.00  0.00    +0.101 C 
BRANCH  37  38
ATOM     38  N   UNL     1       4.919  -5.127  22.229  0.00  0.00    -0.297 NA
ATOM     39  C   UNL     1       5.993  -5.759  21.413  0.00  0.00    +0.112 C 
ATOM     40  C   UNL     1       7.400  -5.614  22.015  0.00  0.00    +0.175 C 
ATOM     41  O   UNL     1       7.735  -4.236  22.201  0.00  0.00    -0.377 OA
ATOM     42  C   UNL     1       6.769  -3.573  23.025  0.00  0.00    +0.175 C 
ATOM     43  C   UNL     1       5.337  -3.725  22.472  0.00  0.00    +0.112 C 
ENDBRANCH  37  38
ENDBRANCH  36  37
ENDBRANCH  25  36
ENDBRANCH   1  25
TORSDOF 15
ENDMDL
MODEL 7
REMARK VINA RESULT:      -6.1      2.177      4.277
REMARK  Name = 
REMARK  18 active torsions:
REMARK  status: ('A' for Active; 'I' for Inactive)
REMARK    1  A    between atoms: C_1  and  C_2
REMARK    2  A    between atoms: C_2  and  C_3
REMARK    3  A    between atoms: C_3  and  C_4
REMARK    4  A    between atoms: C_4  and  C_5
REMARK    5  A    between atoms: C_5  and  C_6
REMARK    6  A    between atoms: C_9  and  C_12
REMARK    7  A    between atoms: N_14  and  C_15
REMARK    8  A    between atoms: C_18  and  S_21
REMARK    9  A    between atoms: S_21  and  N_24
REMARK   10  A    between atoms: N_24  and  C_25
REMARK   11  A    between atoms: N_24  and  C_33
REMARK   12  A    between atoms: C_25  and  C_26
REMARK   13  A    between atoms: C_26  and  N_27
REMARK   14  A    between atoms: C_33  and  C_35
REMARK   15  A    between atoms: C_33  and  C_38
REMARK   16  A    between atoms: C_35  and  C_36
REMARK   17  A    between atoms: C_35  and  C_37
REMARK   18  A    between atoms: N_40  and  O_41
REMARK                            x       y       z     vdW  Elec       q    Type
REMARK                         _______ _______ _______ _____ _____    ______ ____
ROOT
ATOM      1  S   UNL     1       7.224  -5.281  26.427  0.00  0.00    +0.062 S 
ATOM      2  O   UNL     1       7.169  -5.530  27.852  0.00  0.00    -0.153 OA
ATOM      3  O   UNL     1       8.053  -6.092  25.562  0.00  0.00    -0.153 OA
ENDROOT
BRANCH   1   7
ATOM      4  C   UNL     1       8.493  -0.993  25.418  0.00  0.00    +0.034 A 
ATOM      5  C   UNL     1       7.473  -1.223  26.350  0.00  0.00    +0.025 A 
ATOM      6  C   UNL     1       7.133  -2.531  26.731  0.00  0.00    +0.030 A 
ATOM      7  C   UNL     1       7.827  -3.620  26.190  0.00  0.00    +0.106 A 
ATOM      8  C   UNL     1       8.864  -3.394  25.286  0.00  0.00    +0.030 A 
ATOM      9  C   UNL     1       9.204  -2.090  24.922  0.00  0.00    +0.025 A 
BRANCH   4  11
ATOM     10  C   UNL     1       7.761   1.142  24.359  0.00  0.00    +0.248 C 
ATOM     11  N   UNL     1       8.704   0.339  24.979  0.00  0.00    -0.282 N 
ATOM     12  H   UNL     1       9.605   0.735  25.202  0.00  0.00    +0.155 HD
ATOM     13  O   UNL     1       6.657   0.761  23.979  0.00  0.00    -0.270 OA
BRANCH  10  17
ATOM     14  C   UNL     1       8.894   5.285  23.972  0.00  0.00    -0.047 A 
ATOM     15  C   UNL     1       8.648   4.539  22.811  0.00  0.00    +0.004 A 
ATOM     16  C   UNL     1       8.250   3.195  22.890  0.00  0.00    +0.013 A 
ATOM     17  C   UNL     1       8.085   2.587  24.139  0.00  0.00    +0.037 A 
ATOM     18  C   UNL     1       8.289   3.356  25.296  0.00  0.00    +0.013 A 
ATOM     19  C   UNL     1       8.677   4.690  25.216  0.00  0.00    +0.004 A 
BRANCH  14  20
ATOM     20  C   UNL     1       9.455   6.684  23.899  0.00  0.00    +0.035 C 
BRANCH  20  21
ATOM     21  C   UNL     1      10.486   6.968  25.003  0.00  0.00    +0.005 C 
BRANCH  21  22
ATOM     22  C   UNL     1      11.933   6.748  24.547  0.00  0.00    +0.000 C 
BRANCH  22  24
ATOM     23  C   UNL     1      13.137   5.600  22.645  0.00  0.00    +0.004 C 
ATOM     24  C   UNL     1      12.061   5.470  23.717  0.00  0.00    -0.003 C 
ENDBRANCH  22  24
ENDBRANCH  21  22
ENDBRANCH  20  21
ENDBRANCH  14  20
ENDBRANCH  10  17
ENDBRANCH   4  11
ENDBRANCH   1   7
BRANCH   1  25
ATOM     25  N   UNL     1       5.637  -5.364  25.835  0.00  0.00    -0.163 NA
BRANCH  25  26
ATOM     26  C   UNL     1       5.461  -6.061  24.477  0.00  0.00    +0.170 C 
BRANCH  26  27
ATOM     27  C   UNL     1       4.327  -7.100  24.463  0.00  0.00    +0.255 C 
ATOM     28  N   UNL     1       3.445  -6.978  23.415  0.00  0.00    -0.196 N 
ATOM     29  H   UNL     1       3.779  -6.580  22.546  0.00  0.00    +0.182 HD
ATOM     30  O   UNL     1       4.119  -7.911  25.368  0.00  0.00    -0.272 OA
BRANCH  28  31
ATOM     31  O   UNL     1       2.484  -8.017  23.320  0.00  0.00    -0.295 OA
ATOM     32  H   UNL     1       2.636  -8.518  24.154  0.00  0.00    +0.241 HD
ENDBRANCH  28  31
ENDBRANCH  26  27
BRANCH  26  33
ATOM     33  C   UNL     1       5.437  -5.206  23.168  0.00  0.00    +0.011 C 
ATOM     34  C   UNL     1       6.484  -5.582  22.121  0.00  0.00    +0.009 C 
ATOM     35  C   UNL     1       5.382  -3.680  23.324  0.00  0.00    +0.009 C 
ENDBRANCH  26  33
ENDBRANCH  25  26
BRANCH  25  36
ATOM     36  C   UNL     1       4.555  -5.757  26.810  0.00  0.00    +0.125 C 
BRANCH  36  37
ATOM     37  C   UNL     1       3.817  -4.614  27.536  0.00  0.00    +0.101 C 
BRANCH  37  38
ATOM     38  N   UNL     1       2.344  -4.634  27.472  0.00  0.00    -0.297 NA
ATOM     39  C   UNL     1       1.882  -4.881  26.078  0.00  0.00    +0.112 C 
ATOM     40  C   UNL     1       2.127  -3.702  25.122  0.00  0.00    +0.175 C 
ATOM     41  O   UNL     1       1.484  -2.517  25.599  0.00  0.00    -0.377 OA
ATOM     42  C   UNL     1       1.923  -2.186  26.921  0.00  0.00    +0.175 C 
ATOM     43  C   UNL     1       1.726  -3.357  27.906  0.00  0.00    +0.112 C 
ENDBRANCH  37  38
ENDBRANCH  36  37
ENDBRANCH  25  36
ENDBRANCH   1  25
TORSDOF 15
ENDMDL
MODEL 8
REMARK VINA RESULT:      -6.1      3.662     10.381
REMARK  Name = 
REMARK  18 active torsions:
REMARK  status: ('A' for Active; 'I' for Inactive)
REMARK    1  A    between atoms: C_1  and  C_2
REMARK    2  A    between atoms: C_2  and  C_3
REMARK    3  A    between atoms: C_3  and  C_4
REMARK    4  A    between atoms: C_4  and  C_5
REMARK    5  A    between atoms: C_5  and  C_6
REMARK    6  A    between atoms: C_9  and  C_12
REMARK    7  A    between atoms: N_14  and  C_15
REMARK    8  A    between atoms: C_18  and  S_21
REMARK    9  A    between atoms: S_21  and  N_24
REMARK   10  A    between atoms: N_24  and  C_25
REMARK   11  A    between atoms: N_24  and  C_33
REMARK   12  A    between atoms: C_25  and  C_26
REMARK   13  A    between atoms: C_26  and  N_27
REMARK   14  A    between atoms: C_33  and  C_35
REMARK   15  A    between atoms: C_33  and  C_38
REMARK   16  A    between atoms: C_35  and  C_36
REMARK   17  A    between atoms: C_35  and  C_37
REMARK   18  A    between atoms: N_40  and  O_41
REMARK                            x       y       z     vdW  Elec       q    Type
REMARK                         _______ _______ _______ _____ _____    ______ ____
ROOT
ATOM      1  S   UNL     1      10.049   1.574  23.528  0.00  0.00    +0.062 S 
ATOM      2  O   UNL     1      10.332   1.964  22.163  0.00  0.00    -0.153 OA
ATOM      3  O   UNL     1      11.119   1.351  24.475  0.00  0.00    -0.153 OA
ENDROOT
BRANCH   1   7
ATOM      4  C   UNL     1       7.466  -2.210  23.699  0.00  0.00    +0.034 A 
ATOM      5  C   UNL     1       7.322  -1.309  22.637  0.00  0.00    +0.025 A 
ATOM      6  C   UNL     1       8.165  -0.190  22.528  0.00  0.00    +0.030 A 
ATOM      7  C   UNL     1       9.171   0.023  23.477  0.00  0.00    +0.106 A 
ATOM      8  C   UNL     1       9.338  -0.889  24.519  0.00  0.00    +0.030 A 
ATOM      9  C   UNL     1       8.503  -2.004  24.613  0.00  0.00    +0.025 A 
BRANCH   4  11
ATOM     10  C   UNL     1       6.781  -4.604  23.821  0.00  0.00    +0.248 C 
ATOM     11  N   UNL     1       6.506  -3.246  23.825  0.00  0.00    -0.282 N 
ATOM     12  H   UNL     1       5.558  -2.946  23.995  0.00  0.00    +0.155 HD
ATOM     13  O   UNL     1       7.877  -5.096  23.564  0.00  0.00    -0.270 OA
BRANCH  10  17
ATOM     14  C   UNL     1       3.577  -7.198  25.085  0.00  0.00    -0.047 A 
ATOM     15  C   UNL     1       3.668  -6.845  23.732  0.00  0.00    +0.004 A 
ATOM     16  C   UNL     1       4.710  -6.026  23.270  0.00  0.00    +0.013 A 
ATOM     17  C   UNL     1       5.680  -5.558  24.164  0.00  0.00    +0.037 A 
ATOM     18  C   UNL     1       5.606  -5.955  25.509  0.00  0.00    +0.013 A 
ATOM     19  C   UNL     1       4.575  -6.773  25.964  0.00  0.00    +0.004 A 
BRANCH  14  20
ATOM     20  C   UNL     1       2.387  -7.960  25.617  0.00  0.00    +0.035 C 
BRANCH  20  21
ATOM     21  C   UNL     1       1.551  -7.137  26.610  0.00  0.00    +0.005 C 
BRANCH  21  22
ATOM     22  C   UNL     1       0.891  -5.910  25.970  0.00  0.00    +0.000 C 
BRANCH  22  24
ATOM     23  C   UNL     1       2.207  -3.817  25.448  0.00  0.00    +0.004 C 
ATOM     24  C   UNL     1       1.482  -4.615  26.527  0.00  0.00    -0.003 C 
ENDBRANCH  22  24
ENDBRANCH  21  22
ENDBRANCH  20  21
ENDBRANCH  14  20
ENDBRANCH  10  17
ENDBRANCH   4  11
ENDBRANCH   1   7
BRANCH   1  25
ATOM     25  N   UNL     1       9.021   2.749  24.190  0.00  0.00    -0.163 NA
BRANCH  25  26
ATOM     26  C   UNL     1       8.885   4.053  23.388  0.00  0.00    +0.170 C 
BRANCH  26  27
ATOM     27  C   UNL     1       7.561   4.158  22.611  0.00  0.00    +0.255 C 
ATOM     28  N   UNL     1       6.723   5.163  23.034  0.00  0.00    -0.196 N 
ATOM     29  H   UNL     1       7.130   5.988  23.457  0.00  0.00    +0.182 HD
ATOM     30  O   UNL     1       7.192   3.350  21.757  0.00  0.00    -0.272 OA
BRANCH  28  31
ATOM     31  O   UNL     1       5.569   5.354  22.232  0.00  0.00    -0.295 OA
ATOM     32  H   UNL     1       4.931   5.743  22.874  0.00  0.00    +0.241 HD
ENDBRANCH  28  31
ENDBRANCH  26  27
BRANCH  26  33
ATOM     33  C   UNL     1       9.233   5.417  24.067  0.00  0.00    +0.011 C 
ATOM     34  C   UNL     1      10.613   5.981  23.736  0.00  0.00    +0.009 C 
ATOM     35  C   UNL     1       8.967   5.542  25.574  0.00  0.00    +0.009 C 
ENDBRANCH  26  33
ENDBRANCH  25  26
BRANCH  25  36
ATOM     36  C   UNL     1       7.691   2.281  24.728  0.00  0.00    +0.125 C 
BRANCH  36  37
ATOM     37  C   UNL     1       7.572   2.117  26.257  0.00  0.00    +0.101 C 
BRANCH  37  38
ATOM     38  N   UNL     1       7.191   0.780  26.750  0.00  0.00    -0.297 NA
ATOM     39  C   UNL     1       5.944   0.311  26.084  0.00  0.00    +0.112 C 
ATOM     40  C   UNL     1       4.681   1.072  26.517  0.00  0.00    +0.175 C 
ATOM     41  O   UNL     1       4.490   0.981  27.932  0.00  0.00    -0.377 OA
ATOM     42  C   UNL     1       5.635   1.468  28.642  0.00  0.00    +0.175 C 
ATOM     43  C   UNL     1       6.931   0.751  28.210  0.00  0.00    +0.112 C 
ENDBRANCH  37  38
ENDBRANCH  36  37
ENDBRANCH  25  36
ENDBRANCH   1  25
TORSDOF 15
ENDMDL
MODEL 9
REMARK VINA RESULT:      -6.1      1.929      2.653
REMARK  Name = 
REMARK  18 active torsions:
REMARK  status: ('A' for Active; 'I' for Inactive)
REMARK    1  A    between atoms: C_1  and  C_2
REMARK    2  A    between atoms: C_2  and  C_3
REMARK    3  A    between atoms: C_3  and  C_4
REMARK    4  A    between atoms: C_4  and  C_5
REMARK    5  A    between atoms: C_5  and  C_6
REMARK    6  A    between atoms: C_9  and  C_12
REMARK    7  A    between atoms: N_14  and  C_15
REMARK    8  A    between atoms: C_18  and  S_21
REMARK    9  A    between atoms: S_21  and  N_24
REMARK   10  A    between atoms: N_24  and  C_25
REMARK   11  A    between atoms: N_24  and  C_33
REMARK   12  A    between atoms: C_25  and  C_26
REMARK   13  A    between atoms: C_26  and  N_27
REMARK   14  A    between atoms: C_33  and  C_35
REMARK   15  A    between atoms: C_33  and  C_38
REMARK   16  A    between atoms: C_35  and  C_36
REMARK   17  A    between atoms: C_35  and  C_37
REMARK   18  A    between atoms: N_40  and  O_41
REMARK                            x       y       z     vdW  Elec       q    Type
REMARK                         _______ _______ _______ _____ _____    ______ ____
ROOT
ATOM      1  S   UNL     1       6.161  -5.252  27.998  0.00  0.00    +0.062 S 
ATOM      2  O   UNL     1       5.695  -4.857  29.310  0.00  0.00    -0.153 OA
ATOM      3  O   UNL     1       7.376  -6.022  27.841  0.00  0.00    -0.153 OA
ENDROOT
BRANCH   1   7
ATOM      4  C   UNL     1       7.036  -1.220  26.000  0.00  0.00    +0.034 A 
ATOM      5  C   UNL     1       8.009  -2.227  26.003  0.00  0.00    +0.025 A 
ATOM      6  C   UNL     1       7.723  -3.495  26.536  0.00  0.00    +0.030 A 
ATOM      7  C   UNL     1       6.453  -3.766  27.056  0.00  0.00    +0.106 A 
ATOM      8  C   UNL     1       5.472  -2.775  27.026  0.00  0.00    +0.030 A 
ATOM      9  C   UNL     1       5.760  -1.521  26.484  0.00  0.00    +0.025 A 
BRANCH   4  11
ATOM     10  C   UNL     1       7.299   0.561  24.275  0.00  0.00    +0.248 C 
ATOM     11  N   UNL     1       7.422   0.075  25.566  0.00  0.00    -0.282 N 
ATOM     12  H   UNL     1       7.753   0.697  26.288  0.00  0.00    +0.155 HD
ATOM     13  O   UNL     1       6.971  -0.111  23.301  0.00  0.00    -0.270 OA
BRANCH  10  17
ATOM     14  C   UNL     1       8.314   4.722  23.773  0.00  0.00    -0.047 A 
ATOM     15  C   UNL     1       7.875   3.993  22.659  0.00  0.00    +0.004 A 
ATOM     16  C   UNL     1       7.508   2.644  22.781  0.00  0.00    +0.013 A 
ATOM     17  C   UNL     1       7.568   2.013  24.029  0.00  0.00    +0.037 A 
ATOM     18  C   UNL     1       7.965   2.765  25.147  0.00  0.00    +0.013 A 
ATOM     19  C   UNL     1       8.322   4.104  25.025  0.00  0.00    +0.004 A 
BRANCH  14  20
ATOM     20  C   UNL     1       8.843   6.129  23.630  0.00  0.00    +0.035 C 
BRANCH  20  21
ATOM     21  C   UNL     1      10.307   6.260  24.075  0.00  0.00    +0.005 C 
BRANCH  21  22
ATOM     22  C   UNL     1      11.245   5.279  23.362  0.00  0.00    +0.000 C 
BRANCH  22  24
ATOM     23  C   UNL     1      13.483   5.609  22.234  0.00  0.00    +0.004 C 
ATOM     24  C   UNL     1      12.708   5.684  23.545  0.00  0.00    -0.003 C 
ENDBRANCH  22  24
ENDBRANCH  21  22
ENDBRANCH  20  21
ENDBRANCH  14  20
ENDBRANCH  10  17
ENDBRANCH   4  11
ENDBRANCH   1   7
BRANCH   1  25
ATOM     25  N   UNL     1       4.909  -6.120  27.253  0.00  0.00    -0.163 NA
BRANCH  25  26
ATOM     26  C   UNL     1       3.501  -5.518  27.387  0.00  0.00    +0.170 C 
BRANCH  26  27
ATOM     27  C   UNL     1       2.684  -5.578  26.085  0.00  0.00    +0.255 C 
ATOM     28  N   UNL     1       2.694  -4.419  25.344  0.00  0.00    -0.196 N 
ATOM     29  H   UNL     1       3.500  -3.809  25.409  0.00  0.00    +0.182 HD
ATOM     30  O   UNL     1       1.963  -6.523  25.761  0.00  0.00    -0.272 OA
BRANCH  28  31
ATOM     31  O   UNL     1       2.060  -4.514  24.079  0.00  0.00    -0.295 OA
ATOM     32  H   UNL     1       1.567  -3.663  24.029  0.00  0.00    +0.241 HD
ENDBRANCH  28  31
ENDBRANCH  26  27
BRANCH  26  33
ATOM     33  C   UNL     1       2.611  -5.903  28.612  0.00  0.00    +0.011 C 
ATOM     34  C   UNL     1       2.266  -4.754  29.558  0.00  0.00    +0.009 C 
ATOM     35  C   UNL     1       3.024  -7.139  29.423  0.00  0.00    +0.009 C 
ENDBRANCH  26  33
ENDBRANCH  25  26
BRANCH  25  36
ATOM     36  C   UNL     1       5.164  -6.645  25.862  0.00  0.00    +0.125 C 
BRANCH  36  37
ATOM     37  C   UNL     1       5.965  -5.738  24.906  0.00  0.00    +0.101 C 
BRANCH  37  38
ATOM     38  N   UNL     1       5.218  -5.139  23.784  0.00  0.00    -0.297 NA
ATOM     39  C   UNL     1       5.310  -6.000  22.572  0.00  0.00    +0.112 C 
ATOM     40  C   UNL     1       6.703  -6.017  21.923  0.00  0.00    +0.175 C 
ATOM     41  O   UNL     1       7.113  -4.695  21.561  0.00  0.00    -0.377 OA
ATOM     42  C   UNL     1       7.101  -3.820  22.694  0.00  0.00    +0.175 C 
ATOM     43  C   UNL     1       5.727  -3.801  23.395  0.00  0.00    +0.112 C 
ENDBRANCH  37  38
ENDBRANCH  36  37
ENDBRANCH  25  36
ENDBRANCH   1  25
TORSDOF 15
ENDMDL
