MODEL 1
REMARK VINA RESULT:      -6.4      0.000      0.000
REMARK  Name = 
REMARK  6 active torsions:
REMARK  status: ('A' for Active; 'I' for Inactive)
REMARK    1  A    between atoms: C_1  and  N_2
REMARK    2  A    between atoms: C_7  and  C_8
REMARK    3  A    between atoms: C_8  and  C_9
REMARK    4  A    between atoms: C_9  and  N_10
REMARK    5  A    between atoms: C_21  and  S_24
REMARK    6  A    between atoms: S_24  and  C_25
REMARK                            x       y       z     vdW  Elec       q    Type
REMARK                         _______ _______ _______ _____ _____    ______ ____
ROOT
ATOM      1  N   UNL     1       8.633  -0.967  25.259  0.00  0.00    -0.298 N 
ATOM      2  C   UNL     1       8.027  -2.247  25.063  0.00  0.00    +0.049 A 
ATOM      3  C   UNL     1       7.594  -3.071  26.128  0.00  0.00    +0.041 A 
ATOM      4  C   UNL     1       6.921  -4.294  25.940  0.00  0.00    +0.040 A 
ATOM      5  C   UNL     1       6.708  -4.768  24.656  0.00  0.00    +0.018 A 
ATOM      6  C   UNL     1       7.169  -4.021  23.582  0.00  0.00    +0.018 A 
ATOM      7  C   UNL     1       7.818  -2.782  23.774  0.00  0.00    +0.034 A 
ATOM      8  S   UNL     1       8.326  -1.989  22.271  0.00  0.00    -0.086 S 
ATOM      9  C   UNL     1       9.091  -0.504  22.859  0.00  0.00    +0.034 A 
ATOM     10  C   UNL     1       9.607   0.332  21.846  0.00  0.00    +0.017 A 
ATOM     11  C   UNL     1      10.204   1.549  22.147  0.00  0.00    +0.001 A 
ATOM     12  C   UNL     1      10.323   1.921  23.472  0.00  0.00    +0.002 A 
ATOM     13  C   UNL     1       9.849   1.075  24.482  0.00  0.00    +0.024 A 
ATOM     14  C   UNL     1       9.181  -0.146  24.219  0.00  0.00    +0.048 A 
ENDROOT
BRANCH   4  15
ATOM     15  S   UNL     1       6.286  -5.233  27.349  0.00  0.00    +0.051 S 
ATOM     16  O   UNL     1       7.454  -6.009  27.882  0.00  0.00    -0.252 OA
ATOM     17  C   UNL     1       5.262  -6.388  26.403  0.00  0.00    +0.127 C 
ENDBRANCH   4  15
BRANCH   1  18
ATOM     18  C   UNL     1       8.649  -0.385  26.633  0.00  0.00    +0.112 C 
BRANCH  18  19
ATOM     19  C   UNL     1       7.328   0.271  27.080  0.00  0.00    +0.038 C 
BRANCH  19  22
ATOM     20  C   UNL     1       6.760   3.888  27.877  0.00  0.00    +0.105 C 
ATOM     21  N   UNL     1       6.519   2.445  27.896  0.00  0.00    -0.302 NA
ATOM     22  C   UNL     1       7.146   1.763  26.734  0.00  0.00    +0.058 C 
ATOM     23  C   UNL     1       6.348   1.999  25.440  0.00  0.00    +0.019 C 
ATOM     24  C   UNL     1       4.876   1.638  25.581  0.00  0.00    +0.003 C 
ATOM     25  C   UNL     1       4.262   2.348  26.781  0.00  0.00    +0.015 C 
ATOM     26  C   UNL     1       5.091   2.131  28.046  0.00  0.00    +0.084 C 
ENDBRANCH  19  22
ENDBRANCH  18  19
ENDBRANCH   1  18
TORSDOF 4
ENDMDL
MODEL 2
REMARK VINA RESULT:      -6.3      2.711      5.649
REMARK  Name = 
REMARK  6 active torsions:
REMARK  status: ('A' for Active; 'I' for Inactive)
REMARK    1  A    between atoms: C_1  and  N_2
REMARK    2  A    between atoms: C_7  and  C_8
REMARK    3  A    between atoms: C_8  and  C_9
REMARK    4  A    between atoms: C_9  and  N_10
REMARK    5  A    between atoms: C_21  and  S_24
REMARK    6  A    between atoms: S_24  and  C_25
REMARK                            x       y       z     vdW  Elec       q    Type
REMARK                         _______ _______ _______ _____ _____    ______ ____
ROOT
ATOM      1  N   UNL     1       7.119  -2.948  24.260  0.00  0.00    -0.298 N 
ATOM      2  C   UNL     1       6.351  -2.269  25.256  0.00  0.00    +0.049 A 
ATOM      3  C   UNL     1       6.882  -1.259  26.091  0.00  0.00    +0.041 A 
ATOM      4  C   UNL     1       6.110  -0.529  27.015  0.00  0.00    +0.040 A 
ATOM      5  C   UNL     1       4.768  -0.831  27.177  0.00  0.00    +0.018 A 
ATOM      6  C   UNL     1       4.217  -1.856  26.421  0.00  0.00    +0.018 A 
ATOM      7  C   UNL     1       4.989  -2.567  25.475  0.00  0.00    +0.034 A 
ATOM      8  S   UNL     1       4.093  -3.833  24.615  0.00  0.00    -0.086 S 
ATOM      9  C   UNL     1       5.326  -4.513  23.540  0.00  0.00    +0.034 A 
ATOM     10  C   UNL     1       4.874  -5.574  22.727  0.00  0.00    +0.017 A 
ATOM     11  C   UNL     1       5.715  -6.187  21.806  0.00  0.00    +0.001 A 
ATOM     12  C   UNL     1       7.027  -5.764  21.720  0.00  0.00    +0.002 A 
ATOM     13  C   UNL     1       7.488  -4.739  22.555  0.00  0.00    +0.024 A 
ATOM     14  C   UNL     1       6.653  -4.047  23.465  0.00  0.00    +0.048 A 
ENDROOT
BRANCH   4  15
ATOM     15  S   UNL     1       6.832   0.834  27.960  0.00  0.00    +0.051 S 
ATOM     16  O   UNL     1       6.086   0.868  29.261  0.00  0.00    -0.252 OA
ATOM     17  C   UNL     1       6.186   2.180  26.936  0.00  0.00    +0.127 C 
ENDBRANCH   4  15
BRANCH   1  18
ATOM     18  C   UNL     1       8.493  -2.452  23.955  0.00  0.00    +0.112 C 
BRANCH  18  19
ATOM     19  C   UNL     1       8.574  -1.402  22.831  0.00  0.00    +0.038 C 
BRANCH  19  22
ATOM     20  C   UNL     1      11.058   0.816  24.549  0.00  0.00    +0.105 C 
ATOM     21  N   UNL     1       9.747   0.269  24.201  0.00  0.00    -0.302 NA
ATOM     22  C   UNL     1       9.765  -0.422  22.886  0.00  0.00    +0.058 C 
ATOM     23  C   UNL     1       9.788   0.580  21.719  0.00  0.00    +0.019 C 
ATOM     24  C   UNL     1       8.669   1.608  21.802  0.00  0.00    +0.003 C 
ATOM     25  C   UNL     1       8.674   2.297  23.160  0.00  0.00    +0.015 C 
ATOM     26  C   UNL     1       8.688   1.284  24.304  0.00  0.00    +0.084 C 
ENDBRANCH  19  22
ENDBRANCH  18  19
ENDBRANCH   1  18
TORSDOF 4
ENDMDL
MODEL 3
REMARK VINA RESULT:      -6.3      1.002      1.704
REMARK  Name = 
REMARK  6 active torsions:
REMARK  status: ('A' for Active; 'I' for Inactive)
REMARK    1  A    between atoms: C_1  and  N_2
REMARK    2  A    between atoms: C_7  and  C_8
REMARK    3  A    between atoms: C_8  and  C_9
REMARK    4  A    between atoms: C_9  and  N_10
REMARK    5  A    between atoms: C_21  and  S_24
REMARK    6  A    between atoms: S_24  and  C_25
REMARK                            x       y       z     vdW  Elec       q    Type
REMARK                         _______ _______ _______ _____ _____    ______ ____
ROOT
ATOM      1  N   UNL     1       8.671  -0.957  25.264  0.00  0.00    -0.298 N 
ATOM      2  C   UNL     1       8.061  -2.234  25.066  0.00  0.00    +0.049 A 
ATOM      3  C   UNL     1       7.645  -3.069  26.129  0.00  0.00    +0.041 A 
ATOM      4  C   UNL     1       6.968  -4.289  25.939  0.00  0.00    +0.040 A 
ATOM      5  C   UNL     1       6.731  -4.749  24.655  0.00  0.00    +0.018 A 
ATOM      6  C   UNL     1       7.176  -3.991  23.580  0.00  0.00    +0.018 A 
ATOM      7  C   UNL     1       7.829  -2.755  23.775  0.00  0.00    +0.034 A 
ATOM      8  S   UNL     1       8.313  -1.948  22.272  0.00  0.00    -0.086 S 
ATOM      9  C   UNL     1       9.090  -0.469  22.862  0.00  0.00    +0.034 A 
ATOM     10  C   UNL     1       9.589   0.376  21.848  0.00  0.00    +0.017 A 
ATOM     11  C   UNL     1      10.193   1.589  22.152  0.00  0.00    +0.001 A 
ATOM     12  C   UNL     1      10.334   1.948  23.478  0.00  0.00    +0.002 A 
ATOM     13  C   UNL     1       9.877   1.091  24.487  0.00  0.00    +0.024 A 
ATOM     14  C   UNL     1       9.203  -0.126  24.223  0.00  0.00    +0.048 A 
ENDROOT
BRANCH   4  15
ATOM     15  S   UNL     1       6.355  -5.242  27.349  0.00  0.00    +0.051 S 
ATOM     16  O   UNL     1       7.533  -6.017  27.860  0.00  0.00    -0.252 OA
ATOM     17  C   UNL     1       5.323  -6.393  26.408  0.00  0.00    +0.127 C 
ENDBRANCH   4  15
BRANCH   1  18
ATOM     18  C   UNL     1       8.711  -0.389  26.644  0.00  0.00    +0.112 C 
BRANCH  18  19
ATOM     19  C   UNL     1       7.562   0.579  26.986  0.00  0.00    +0.038 C 
BRANCH  19  22
ATOM     20  C   UNL     1       4.300  -1.248  26.741  0.00  0.00    +0.105 C 
ATOM     21  N   UNL     1       5.309  -0.236  26.432  0.00  0.00    -0.302 NA
ATOM     22  C   UNL     1       6.272  -0.053  27.549  0.00  0.00    +0.058 C 
ATOM     23  C   UNL     1       5.652   0.748  28.706  0.00  0.00    +0.019 C 
ATOM     24  C   UNL     1       5.054   2.073  28.253  0.00  0.00    +0.003 C 
ATOM     25  C   UNL     1       4.074   1.854  27.107  0.00  0.00    +0.015 C 
ATOM     26  C   UNL     1       4.699   1.025  25.986  0.00  0.00    +0.084 C 
ENDBRANCH  19  22
ENDBRANCH  18  19
ENDBRANCH   1  18
TORSDOF 4
ENDMDL
MODEL 4
REMARK VINA RESULT:      -6.1      2.350      5.414
REMARK  Name = 
REMARK  6 active torsions:
REMARK  status: ('A' for Active; 'I' for Inactive)
REMARK    1  A    between atoms: C_1  and  N_2
REMARK    2  A    between atoms: C_7  and  C_8
REMARK    3  A    between atoms: C_8  and  C_9
REMARK    4  A    between atoms: C_9  and  N_10
REMARK    5  A    between atoms: C_21  and  S_24
REMARK    6  A    between atoms: S_24  and  C_25
REMARK                            x       y       z     vdW  Elec       q    Type
REMARK                         _______ _______ _______ _____ _____    ______ ____
ROOT
ATOM      1  N   UNL     1       7.842  -0.803  24.360  0.00  0.00    -0.298 N 
ATOM      2  C   UNL     1       6.970  -0.709  25.488  0.00  0.00    +0.049 A 
ATOM      3  C   UNL     1       6.233  -1.806  25.993  0.00  0.00    +0.041 A 
ATOM      4  C   UNL     1       5.438  -1.741  27.153  0.00  0.00    +0.040 A 
ATOM      5  C   UNL     1       5.307  -0.539  27.827  0.00  0.00    +0.018 A 
ATOM      6  C   UNL     1       5.964   0.580  27.334  0.00  0.00    +0.018 A 
ATOM      7  C   UNL     1       6.783   0.503  26.186  0.00  0.00    +0.034 A 
ATOM      8  S   UNL     1       7.531   2.043  25.727  0.00  0.00    -0.086 S 
ATOM      9  C   UNL     1       8.460   1.605  24.283  0.00  0.00    +0.034 A 
ATOM     10  C   UNL     1       9.165   2.674  23.691  0.00  0.00    +0.017 A 
ATOM     11  C   UNL     1       9.967   2.480  22.574  0.00  0.00    +0.001 A 
ATOM     12  C   UNL     1      10.039   1.218  22.018  0.00  0.00    +0.002 A 
ATOM     13  C   UNL     1       9.307   0.164  22.580  0.00  0.00    +0.024 A 
ATOM     14  C   UNL     1       8.525   0.302  23.751  0.00  0.00    +0.048 A 
ENDROOT
BRANCH   4  15
ATOM     15  S   UNL     1       4.625  -3.218  27.809  0.00  0.00    +0.051 S 
ATOM     16  O   UNL     1       5.678  -4.286  27.835  0.00  0.00    -0.252 OA
ATOM     17  C   UNL     1       3.567  -3.543  26.377  0.00  0.00    +0.127 C 
ENDBRANCH   4  15
BRANCH   1  18
ATOM     18  C   UNL     1       8.136  -2.151  23.792  0.00  0.00    +0.112 C 
BRANCH  18  19
ATOM     19  C   UNL     1       7.108  -2.666  22.766  0.00  0.00    +0.038 C 
BRANCH  19  22
ATOM     20  C   UNL     1       6.125  -5.742  20.866  0.00  0.00    +0.105 C 
ATOM     21  N   UNL     1       5.955  -4.577  21.734  0.00  0.00    -0.302 NA
ATOM     22  C   UNL     1       7.242  -4.141  22.335  0.00  0.00    +0.058 C 
ATOM     23  C   UNL     1       7.679  -5.075  23.477  0.00  0.00    +0.019 C 
ATOM     24  C   UNL     1       6.597  -5.265  24.531  0.00  0.00    +0.003 C 
ATOM     25  C   UNL     1       5.290  -5.708  23.885  0.00  0.00    +0.015 C 
ATOM     26  C   UNL     1       4.895  -4.787  22.730  0.00  0.00    +0.084 C 
ENDBRANCH  19  22
ENDBRANCH  18  19
ENDBRANCH   1  18
TORSDOF 4
ENDMDL
MODEL 5
REMARK VINA RESULT:      -5.9      1.804      2.286
REMARK  Name = 
REMARK  6 active torsions:
REMARK  status: ('A' for Active; 'I' for Inactive)
REMARK    1  A    between atoms: C_1  and  N_2
REMARK    2  A    between atoms: C_7  and  C_8
REMARK    3  A    between atoms: C_8  and  C_9
REMARK    4  A    between atoms: C_9  and  N_10
REMARK    5  A    between atoms: C_21  and  S_24
REMARK    6  A    between atoms: S_24  and  C_25
REMARK                            x       y       z     vdW  Elec       q    Type
REMARK                         _______ _______ _______ _____ _____    ______ ____
ROOT
ATOM      1  N   UNL     1       7.230  -0.989  24.417  0.00  0.00    -0.298 N 
ATOM      2  C   UNL     1       7.668  -2.246  24.937  0.00  0.00    +0.049 A 
ATOM      3  C   UNL     1       6.945  -2.980  25.906  0.00  0.00    +0.041 A 
ATOM      4  C   UNL     1       7.329  -4.257  26.360  0.00  0.00    +0.040 A 
ATOM      5  C   UNL     1       8.501  -4.827  25.891  0.00  0.00    +0.018 A 
ATOM      6  C   UNL     1       9.274  -4.117  24.983  0.00  0.00    +0.018 A 
ATOM      7  C   UNL     1       8.871  -2.849  24.510  0.00  0.00    +0.034 A 
ATOM      8  S   UNL     1       9.999  -2.115  23.356  0.00  0.00    -0.086 S 
ATOM      9  C   UNL     1       9.215  -0.572  22.979  0.00  0.00    +0.034 A 
ATOM     10  C   UNL     1       9.923   0.239  22.067  0.00  0.00    +0.017 A 
ATOM     11  C   UNL     1       9.419   1.462  21.646  0.00  0.00    +0.001 A 
ATOM     12  C   UNL     1       8.217   1.900  22.165  0.00  0.00    +0.002 A 
ATOM     13  C   UNL     1       7.532   1.116  23.102  0.00  0.00    +0.024 A 
ATOM     14  C   UNL     1       7.979  -0.163  23.515  0.00  0.00    +0.048 A 
ENDROOT
BRANCH   4  15
ATOM     15  S   UNL     1       6.287  -5.188  27.508  0.00  0.00    +0.051 S 
ATOM     16  O   UNL     1       7.212  -6.120  28.234  0.00  0.00    -0.252 OA
ATOM     17  C   UNL     1       5.407  -6.167  26.265  0.00  0.00    +0.127 C 
ENDBRANCH   4  15
BRANCH   1  18
ATOM     18  C   UNL     1       5.863  -0.506  24.770  0.00  0.00    +0.112 C 
BRANCH  18  19
ATOM     19  C   UNL     1       5.768   0.275  26.095  0.00  0.00    +0.038 C 
BRANCH  19  22
ATOM     20  C   UNL     1       3.152   2.077  28.082  0.00  0.00    +0.105 C 
ATOM     21  N   UNL     1       4.441   1.445  27.803  0.00  0.00    -0.302 NA
ATOM     22  C   UNL     1       4.353   0.480  26.676  0.00  0.00    +0.058 C 
ATOM     23  C   UNL     1       3.671  -0.830  27.103  0.00  0.00    +0.019 C 
ATOM     24  C   UNL     1       4.312  -1.455  28.335  0.00  0.00    +0.003 C 
ATOM     25  C   UNL     1       4.391  -0.443  29.470  0.00  0.00    +0.015 C 
ATOM     26  C   UNL     1       5.038   0.864  29.014  0.00  0.00    +0.084 C 
ENDBRANCH  19  22
ENDBRANCH  18  19
ENDBRANCH   1  18
TORSDOF 4
ENDMDL
MODEL 6
REMARK VINA RESULT:      -5.8      2.677      5.494
REMARK  Name = 
REMARK  6 active torsions:
REMARK  status: ('A' for Active; 'I' for Inactive)
REMARK    1  A    between atoms: C_1  and  N_2
REMARK    2  A    between atoms: C_7  and  C_8
REMARK    3  A    between atoms: C_8  and  C_9
REMARK    4  A    between atoms: C_9  and  N_10
REMARK    5  A    between atoms: C_21  and  S_24
REMARK    6  A    between atoms: S_24  and  C_25
REMARK                            x       y       z     vdW  Elec       q    Type
REMARK                         _______ _______ _______ _____ _____    ______ ____
ROOT
ATOM      1  N   UNL     1       7.119  -0.413  24.015  0.00  0.00    -0.298 N 
ATOM      2  C   UNL     1       6.257  -0.067  25.102  0.00  0.00    +0.049 A 
ATOM      3  C   UNL     1       5.229  -0.914  25.576  0.00  0.00    +0.041 A 
ATOM      4  C   UNL     1       4.432  -0.616  26.699  0.00  0.00    +0.040 A 
ATOM      5  C   UNL     1       4.604   0.589  27.360  0.00  0.00    +0.018 A 
ATOM      6  C   UNL     1       5.562   1.478  26.893  0.00  0.00    +0.018 A 
ATOM      7  C   UNL     1       6.377   1.162  25.784  0.00  0.00    +0.034 A 
ATOM      8  S   UNL     1       7.536   2.433  25.353  0.00  0.00    -0.086 S 
ATOM      9  C   UNL     1       8.372   1.734  23.956  0.00  0.00    +0.034 A 
ATOM     10  C   UNL     1       9.366   2.562  23.393  0.00  0.00    +0.017 A 
ATOM     11  C   UNL     1      10.132   2.138  22.315  0.00  0.00    +0.001 A 
ATOM     12  C   UNL     1       9.882   0.895  21.769  0.00  0.00    +0.002 A 
ATOM     13  C   UNL     1       8.868   0.089  22.300  0.00  0.00    +0.024 A 
ATOM     14  C   UNL     1       8.102   0.454  23.434  0.00  0.00    +0.048 A 
ENDROOT
BRANCH   4  15
ATOM     15  S   UNL     1       3.220  -1.805  27.322  0.00  0.00    +0.051 S 
ATOM     16  O   UNL     1       1.949  -1.520  26.578  0.00  0.00    -0.252 OA
ATOM     17  C   UNL     1       3.043  -1.094  28.978  0.00  0.00    +0.127 C 
ENDBRANCH   4  15
BRANCH   1  18
ATOM     18  C   UNL     1       7.059  -1.800  23.468  0.00  0.00    +0.112 C 
BRANCH  18  19
ATOM     19  C   UNL     1       8.079  -2.785  24.071  0.00  0.00    +0.038 C 
BRANCH  19  22
ATOM     20  C   UNL     1       5.664  -5.607  24.567  0.00  0.00    +0.105 C 
ATOM     21  N   UNL     1       6.388  -4.375  24.881  0.00  0.00    -0.302 NA
ATOM     22  C   UNL     1       7.660  -4.269  24.120  0.00  0.00    +0.058 C 
ATOM     23  C   UNL     1       8.745  -5.193  24.699  0.00  0.00    +0.019 C 
ATOM     24  C   UNL     1       8.960  -4.989  26.192  0.00  0.00    +0.003 C 
ATOM     25  C   UNL     1       7.640  -5.100  26.944  0.00  0.00    +0.015 C 
ATOM     26  C   UNL     1       6.567  -4.202  26.330  0.00  0.00    +0.084 C 
ENDBRANCH  19  22
ENDBRANCH  18  19
ENDBRANCH   1  18
TORSDOF 4
ENDMDL
MODEL 7
REMARK VINA RESULT:      -5.8      1.450      1.941
REMARK  Name = 
REMARK  6 active torsions:
REMARK  status: ('A' for Active; 'I' for Inactive)
REMARK    1  A    between atoms: C_1  and  N_2
REMARK    2  A    between atoms: C_7  and  C_8
REMARK    3  A    between atoms: C_8  and  C_9
REMARK    4  A    between atoms: C_9  and  N_10
REMARK    5  A    between atoms: C_21  and  S_24
REMARK    6  A    between atoms: S_24  and  C_25
REMARK                            x       y       z     vdW  Elec       q    Type
REMARK                         _______ _______ _______ _____ _____    ______ ____
ROOT
ATOM      1  N   UNL     1       7.655  -0.715  24.707  0.00  0.00    -0.298 N 
ATOM      2  C   UNL     1       7.471  -2.088  24.354  0.00  0.00    +0.049 A 
ATOM      3  C   UNL     1       6.719  -2.996  25.135  0.00  0.00    +0.041 A 
ATOM      4  C   UNL     1       6.464  -4.327  24.749  0.00  0.00    +0.040 A 
ATOM      5  C   UNL     1       7.013  -4.818  23.576  0.00  0.00    +0.018 A 
ATOM      6  C   UNL     1       7.808  -3.979  22.808  0.00  0.00    +0.018 A 
ATOM      7  C   UNL     1       8.037  -2.637  23.184  0.00  0.00    +0.034 A 
ATOM      8  S   UNL     1       9.078  -1.739  22.063  0.00  0.00    -0.086 S 
ATOM      9  C   UNL     1       9.163  -0.138  22.816  0.00  0.00    +0.034 A 
ATOM     10  C   UNL     1       9.958   0.796  22.120  0.00  0.00    +0.017 A 
ATOM     11  C   UNL     1      10.093   2.105  22.566  0.00  0.00    +0.001 A 
ATOM     12  C   UNL     1       9.462   2.476  23.737  0.00  0.00    +0.002 A 
ATOM     13  C   UNL     1       8.707   1.539  24.453  0.00  0.00    +0.024 A 
ATOM     14  C   UNL     1       8.493   0.212  24.005  0.00  0.00    +0.048 A 
ENDROOT
BRANCH   4  15
ATOM     15  S   UNL     1       5.389  -5.393  25.738  0.00  0.00    +0.051 S 
ATOM     16  O   UNL     1       6.305  -6.212  26.598  0.00  0.00    -0.252 OA
ATOM     17  C   UNL     1       4.827  -6.457  24.387  0.00  0.00    +0.127 C 
ENDBRANCH   4  15
BRANCH   1  18
ATOM     18  C   UNL     1       6.874  -0.160  25.852  0.00  0.00    +0.112 C 
BRANCH  18  19
ATOM     19  C   UNL     1       5.485   0.396  25.486  0.00  0.00    +0.038 C 
BRANCH  19  22
ATOM     20  C   UNL     1       2.588   2.224  27.004  0.00  0.00    +0.105 C 
ATOM     21  N   UNL     1       3.534   1.813  25.967  0.00  0.00    -0.302 NA
ATOM     22  C   UNL     1       4.794   1.279  26.546  0.00  0.00    +0.058 C 
ATOM     23  C   UNL     1       5.692   2.406  27.085  0.00  0.00    +0.019 C 
ATOM     24  C   UNL     1       5.959   3.492  26.052  0.00  0.00    +0.003 C 
ATOM     25  C   UNL     1       4.651   4.017  25.476  0.00  0.00    +0.015 C 
ATOM     26  C   UNL     1       3.759   2.879  24.981  0.00  0.00    +0.084 C 
ENDBRANCH  19  22
ENDBRANCH  18  19
ENDBRANCH   1  18
TORSDOF 4
ENDMDL
MODEL 8
REMARK VINA RESULT:      -5.8      2.685      5.957
REMARK  Name = 
REMARK  6 active torsions:
REMARK  status: ('A' for Active; 'I' for Inactive)
REMARK    1  A    between atoms: C_1  and  N_2
REMARK    2  A    between atoms: C_7  and  C_8
REMARK    3  A    between atoms: C_8  and  C_9
REMARK    4  A    between atoms: C_9  and  N_10
REMARK    5  A    between atoms: C_21  and  S_24
REMARK    6  A    between atoms: S_24  and  C_25
REMARK                            x       y       z     vdW  Elec       q    Type
REMARK                         _______ _______ _______ _____ _____    ______ ____
ROOT
ATOM      1  N   UNL     1       8.389  -0.403  25.565  0.00  0.00    -0.298 N 
ATOM      2  C   UNL     1       7.782   0.678  26.277  0.00  0.00    +0.049 A 
ATOM      3  C   UNL     1       7.300   0.560  27.601  0.00  0.00    +0.041 A 
ATOM      4  C   UNL     1       6.778   1.641  28.338  0.00  0.00    +0.040 A 
ATOM      5  C   UNL     1       6.668   2.886  27.742  0.00  0.00    +0.018 A 
ATOM      6  C   UNL     1       7.074   3.035  26.423  0.00  0.00    +0.018 A 
ATOM      7  C   UNL     1       7.623   1.954  25.698  0.00  0.00    +0.034 A 
ATOM      8  S   UNL     1       8.078   2.358  24.032  0.00  0.00    -0.086 S 
ATOM      9  C   UNL     1       8.708   0.819  23.422  0.00  0.00    +0.034 A 
ATOM     10  C   UNL     1       9.143   0.853  22.080  0.00  0.00    +0.017 A 
ATOM     11  C   UNL     1       9.695  -0.266  21.471  0.00  0.00    +0.001 A 
ATOM     12  C   UNL     1       9.781  -1.441  22.192  0.00  0.00    +0.002 A 
ATOM     13  C   UNL     1       9.311  -1.489  23.510  0.00  0.00    +0.024 A 
ATOM     14  C   UNL     1       8.796  -0.359  24.190  0.00  0.00    +0.048 A 
ENDROOT
BRANCH   4  15
ATOM     15  S   UNL     1       6.296   1.442  30.070  0.00  0.00    +0.051 S 
ATOM     16  O   UNL     1       5.204   0.413  30.073  0.00  0.00    -0.252 OA
ATOM     17  C   UNL     1       5.510   3.060  30.269  0.00  0.00    +0.127 C 
ENDBRANCH   4  15
BRANCH   1  18
ATOM     18  C   UNL     1       8.696  -1.663  26.302  0.00  0.00    +0.112 C 
BRANCH  18  19
ATOM     19  C   UNL     1       7.584  -2.729  26.265  0.00  0.00    +0.038 C 
BRANCH  19  22
ATOM     20  C   UNL     1       7.695  -5.213  23.462  0.00  0.00    +0.105 C 
ATOM     21  N   UNL     1       7.106  -4.255  24.398  0.00  0.00    -0.302 NA
ATOM     22  C   UNL     1       7.943  -4.080  25.613  0.00  0.00    +0.058 C 
ATOM     23  C   UNL     1       7.810  -5.277  26.570  0.00  0.00    +0.019 C 
ATOM     24  C   UNL     1       6.363  -5.594  26.920  0.00  0.00    +0.003 C 
ATOM     25  C   UNL     1       5.530  -5.765  25.657  0.00  0.00    +0.015 C 
ATOM     26  C   UNL     1       5.706  -4.583  24.704  0.00  0.00    +0.084 C 
ENDBRANCH  19  22
ENDBRANCH  18  19
ENDBRANCH   1  18
TORSDOF 4
ENDMDL
MODEL 9
REMARK VINA RESULT:      -5.7      3.125      6.183
REMARK  Name = 
REMARK  6 active torsions:
REMARK  status: ('A' for Active; 'I' for Inactive)
REMARK    1  A    between atoms: C_1  and  N_2
REMARK    2  A    between atoms: C_7  and  C_8
REMARK    3  A    between atoms: C_8  and  C_9
REMARK    4  A    between atoms: C_9  and  N_10
REMARK    5  A    between atoms: C_21  and  S_24
REMARK    6  A    between atoms: S_24  and  C_25
REMARK                            x       y       z     vdW  Elec       q    Type
REMARK                         _______ _______ _______ _____ _____    ______ ____
ROOT
ATOM      1  N   UNL     1       7.068   0.059  24.897  0.00  0.00    -0.298 N 
ATOM      2  C   UNL     1       6.858   1.186  25.751  0.00  0.00    +0.049 A 
ATOM      3  C   UNL     1       5.899   1.205  26.790  0.00  0.00    +0.041 A 
ATOM      4  C   UNL     1       5.747   2.279  27.688  0.00  0.00    +0.040 A 
ATOM      5  C   UNL     1       6.524   3.415  27.536  0.00  0.00    +0.018 A 
ATOM      6  C   UNL     1       7.438   3.465  26.492  0.00  0.00    +0.018 A 
ATOM      7  C   UNL     1       7.607   2.374  25.611  0.00  0.00    +0.034 A 
ATOM      8  S   UNL     1       8.825   2.644  24.351  0.00  0.00    -0.086 S 
ATOM      9  C   UNL     1       8.781   1.124  23.442  0.00  0.00    +0.034 A 
ATOM     10  C   UNL     1       9.669   1.069  22.347  0.00  0.00    +0.017 A 
ATOM     11  C   UNL     1       9.775  -0.071  21.560  0.00  0.00    +0.001 A 
ATOM     12  C   UNL     1       8.964  -1.152  21.842  0.00  0.00    +0.002 A 
ATOM     13  C   UNL     1       8.052  -1.084  22.903  0.00  0.00    +0.024 A 
ATOM     14  C   UNL     1       7.951   0.033  23.767  0.00  0.00    +0.048 A 
ENDROOT
BRANCH   4  15
ATOM     15  S   UNL     1       4.585   2.180  29.070  0.00  0.00    +0.051 S 
ATOM     16  O   UNL     1       3.698   3.383  28.944  0.00  0.00    -0.252 OA
ATOM     17  C   UNL     1       5.776   2.527  30.388  0.00  0.00    +0.127 C 
ENDBRANCH   4  15
BRANCH   1  18
ATOM     18  C   UNL     1       6.377  -1.223  25.222  0.00  0.00    +0.112 C 
BRANCH  18  19
ATOM     19  C   UNL     1       7.155  -2.164  26.162  0.00  0.00    +0.038 C 
BRANCH  19  22
ATOM     20  C   UNL     1       6.977  -5.634  27.565  0.00  0.00    +0.105 C 
ATOM     21  N   UNL     1       7.596  -4.387  27.114  0.00  0.00    -0.302 NA
ATOM     22  C   UNL     1       6.724  -3.645  26.168  0.00  0.00    +0.058 C 
ATOM     23  C   UNL     1       6.727  -4.289  24.771  0.00  0.00    +0.019 C 
ATOM     24  C   UNL     1       8.130  -4.483  24.214  0.00  0.00    +0.003 C 
ATOM     25  C   UNL     1       9.000  -5.243  25.206  0.00  0.00    +0.015 C 
ATOM     26  C   UNL     1       8.953  -4.608  26.595  0.00  0.00    +0.084 C 
ENDBRANCH  19  22
ENDBRANCH  18  19
ENDBRANCH   1  18
TORSDOF 4
ENDMDL
