MODEL 1
REMARK VINA RESULT:      -8.4      0.000      0.000
REMARK  Name = 
REMARK  13 active torsions:
REMARK  status: ('A' for Active; 'I' for Inactive)
REMARK    1  A    between atoms: O_1  and  C_2
REMARK    2  A    between atoms: C_4  and  C_6
REMARK    3  A    between atoms: C_6  and  O_7
REMARK    4  A    between atoms: O_7  and  P_8
REMARK    5  A    between atoms: P_8  and  O_9
REMARK    6  A    between atoms: P_8  and  O_11
REMARK    7  A    between atoms: O_11  and  P_12
REMARK    8  A    between atoms: P_12  and  O_13
REMARK    9  A    between atoms: P_12  and  O_14
REMARK   10  A    between atoms: C_17  and  N_22
REMARK   11  A    between atoms: C_19  and  O_21
REMARK   12  A    between atoms: N_31  and  C_32
REMARK   13  A    between atoms: C_32  and  C_33
REMARK                            x       y       z     vdW  Elec       q    Type
REMARK                         _______ _______ _______ _____ _____    ______ ____
ROOT
ATOM      1  C   UNL     1       8.022  -5.553  26.111  0.00  0.00    +0.178 C 
ATOM      2  C   UNL     1       9.189  -4.661  25.695  0.00  0.00    +0.195 C 
ATOM      3  C   UNL     1       8.655  -3.884  24.479  0.00  0.00    +0.253 C 
ATOM      4  O   UNL     1       7.248  -4.212  24.339  0.00  0.00    -0.346 OA
ATOM      5  C   UNL     1       6.816  -4.792  25.583  0.00  0.00    +0.178 C 
ENDROOT
BRANCH   3   6
ATOM      6  N   UNL     1       8.792  -2.440  24.612  0.00  0.00    -0.286 N 
ATOM      7  C   UNL     1       9.001  -1.551  23.585  0.00  0.00    +0.167 A 
ATOM      8  N   UNL     1       9.081  -1.799  22.271  0.00  0.00    -0.216 NA
ATOM      9  C   UNL     1       9.334  -0.654  21.592  0.00  0.00    +0.225 A 
ATOM     10  N   UNL     1       9.531   0.599  22.072  0.00  0.00    -0.219 NA
ATOM     11  C   UNL     1       9.480   0.791  23.416  0.00  0.00    +0.150 A 
ATOM     12  N   UNL     1       9.765   2.022  24.003  0.00  0.00    -0.323 N 
ATOM     13  H   UNL     1       9.472   2.033  24.978  0.00  0.00    +0.148 HD
ATOM     14  C   UNL     1       9.168  -0.323  24.217  0.00  0.00    +0.147 A 
ATOM     15  N   UNL     1       8.993  -0.446  25.581  0.00  0.00    -0.231 NA
ATOM     16  C   UNL     1       8.748  -1.723  25.780  0.00  0.00    +0.203 A 
BRANCH  12  17
ATOM     17  C   UNL     1       9.460   3.220  23.250  0.00  0.00    +0.138 C 
BRANCH  17  18
ATOM     18  C   UNL     1      10.428   4.314  23.660  0.00  0.00    -0.030 A 
ATOM     19  C   UNL     1      11.782   4.248  23.292  0.00  0.00    +0.005 A 
ATOM     20  C   UNL     1      12.658   5.284  23.632  0.00  0.00    +0.000 A 
ATOM     21  C   UNL     1      12.195   6.396  24.331  0.00  0.00    +0.000 A 
ATOM     22  C   UNL     1      10.850   6.481  24.685  0.00  0.00    +0.000 A 
ATOM     23  C   UNL     1       9.969   5.450  24.348  0.00  0.00    +0.005 A 
ENDBRANCH  17  18
ENDBRANCH  12  17
ENDBRANCH   3   6
BRANCH   1  24
ATOM     24  O   UNL     1       7.974  -5.707  27.525  0.00  0.00    -0.386 OA
ATOM     25  H   UNL     1       7.311  -5.075  27.866  0.00  0.00    +0.210 HD
ENDBRANCH   1  24
BRANCH   2  26
ATOM     26  O   UNL     1      10.324  -5.460  25.340  0.00  0.00    -0.385 OA
ATOM     27  H   UNL     1      11.108  -5.024  25.725  0.00  0.00    +0.210 HD
ENDBRANCH   2  26
BRANCH   5  28
ATOM     28  C   UNL     1       5.585  -5.666  25.341  0.00  0.00    +0.206 C 
BRANCH  28  29
ATOM     29  O   UNL     1       5.248  -5.764  23.960  0.00  0.00    -0.284 OA
BRANCH  29  30
ATOM     30  P   UNL     1       3.868  -4.961  23.543  0.00  0.00    +0.483 P 
ATOM     31  O   UNL     1       3.735  -3.729  24.429  0.00  0.00    -0.227 OA
BRANCH  30  32
ATOM     32  O   UNL     1       4.780  -3.984  22.444  0.00  0.00    -0.302 OA
ATOM     33  H   UNL     1       4.097  -3.677  21.808  0.00  0.00    +0.222 HD
ENDBRANCH  30  32
BRANCH  30  34
ATOM     34  O   UNL     1       2.956  -5.939  24.640  0.00  0.00    -0.186 OA
BRANCH  34  35
ATOM     35  P   UNL     1       2.106  -7.159  23.756  0.00  0.00    +0.481 P 
ATOM     36  O   UNL     1       1.345  -8.250  22.964  0.00  0.00    -0.227 OA
BRANCH  35  37
ATOM     37  O   UNL     1       3.363  -8.135  24.121  0.00  0.00    -0.302 OA
ATOM     38  H   UNL     1       3.883  -7.730  24.838  0.00  0.00    +0.222 HD
ENDBRANCH  35  37
BRANCH  35  39
ATOM     39  O   UNL     1       2.816  -6.511  22.427  0.00  0.00    -0.302 OA
ATOM     40  H   UNL     1       3.780  -6.428  22.557  0.00  0.00    +0.222 HD
ENDBRANCH  35  39
ENDBRANCH  34  35
ENDBRANCH  30  34
ENDBRANCH  29  30
ENDBRANCH  28  29
ENDBRANCH   5  28
TORSDOF 13
ENDMDL
MODEL 2
REMARK VINA RESULT:      -8.4      1.783      2.486
REMARK  Name = 
REMARK  13 active torsions:
REMARK  status: ('A' for Active; 'I' for Inactive)
REMARK    1  A    between atoms: O_1  and  C_2
REMARK    2  A    between atoms: C_4  and  C_6
REMARK    3  A    between atoms: C_6  and  O_7
REMARK    4  A    between atoms: O_7  and  P_8
REMARK    5  A    between atoms: P_8  and  O_9
REMARK    6  A    between atoms: P_8  and  O_11
REMARK    7  A    between atoms: O_11  and  P_12
REMARK    8  A    between atoms: P_12  and  O_13
REMARK    9  A    between atoms: P_12  and  O_14
REMARK   10  A    between atoms: C_17  and  N_22
REMARK   11  A    between atoms: C_19  and  O_21
REMARK   12  A    between atoms: N_31  and  C_32
REMARK   13  A    between atoms: C_32  and  C_33
REMARK                            x       y       z     vdW  Elec       q    Type
REMARK                         _______ _______ _______ _____ _____    ______ ____
ROOT
ATOM      1  C   UNL     1       7.909  -5.560  25.789  0.00  0.00    +0.178 C 
ATOM      2  C   UNL     1       9.130  -4.667  25.580  0.00  0.00    +0.195 C 
ATOM      3  C   UNL     1       8.804  -3.878  24.299  0.00  0.00    +0.253 C 
ATOM      4  O   UNL     1       7.439  -4.202  23.926  0.00  0.00    -0.346 OA
ATOM      5  C   UNL     1       6.808  -4.791  25.076  0.00  0.00    +0.178 C 
ENDROOT
BRANCH   3   6
ATOM      6  N   UNL     1       8.920  -2.436  24.466  0.00  0.00    -0.286 N 
ATOM      7  C   UNL     1       9.117  -1.520  23.460  0.00  0.00    +0.167 A 
ATOM      8  N   UNL     1       9.202  -1.736  22.141  0.00  0.00    -0.216 NA
ATOM      9  C   UNL     1       9.439  -0.572  21.489  0.00  0.00    +0.225 A 
ATOM     10  N   UNL     1       9.616   0.672  21.998  0.00  0.00    -0.219 NA
ATOM     11  C   UNL     1       9.560   0.832  23.346  0.00  0.00    +0.150 A 
ATOM     12  N   UNL     1       9.826   2.053  23.962  0.00  0.00    -0.323 N 
ATOM     13  H   UNL     1       9.532   2.037  24.936  0.00  0.00    +0.148 HD
ATOM     14  C   UNL     1       9.264  -0.305  24.121  0.00  0.00    +0.147 A 
ATOM     15  N   UNL     1       9.089  -0.462  25.482  0.00  0.00    -0.231 NA
ATOM     16  C   UNL     1       8.863  -1.746  25.650  0.00  0.00    +0.203 A 
BRANCH  12  17
ATOM     17  C   UNL     1       9.505   3.264  23.237  0.00  0.00    +0.138 C 
BRANCH  17  18
ATOM     18  C   UNL     1      10.450   4.364  23.680  0.00  0.00    -0.030 A 
ATOM     19  C   UNL     1      11.807   4.333  23.317  0.00  0.00    +0.005 A 
ATOM     20  C   UNL     1      12.661   5.376  23.687  0.00  0.00    +0.000 A 
ATOM     21  C   UNL     1      12.174   6.461  24.413  0.00  0.00    +0.000 A 
ATOM     22  C   UNL     1      10.826   6.511  24.763  0.00  0.00    +0.000 A 
ATOM     23  C   UNL     1       9.966   5.473  24.394  0.00  0.00    +0.005 A 
ENDBRANCH  17  18
ENDBRANCH  12  17
ENDBRANCH   3   6
BRANCH   1  24
ATOM     24  O   UNL     1       7.627  -5.725  27.175  0.00  0.00    -0.386 OA
ATOM     25  H   UNL     1       6.741  -6.132  27.247  0.00  0.00    +0.210 HD
ENDBRANCH   1  24
BRANCH   2  26
ATOM     26  O   UNL     1      10.306  -5.467  25.410  0.00  0.00    -0.385 OA
ATOM     27  H   UNL     1      10.978  -5.115  26.025  0.00  0.00    +0.210 HD
ENDBRANCH   2  26
BRANCH   5  28
ATOM     28  C   UNL     1       5.632  -5.659  24.626  0.00  0.00    +0.206 C 
BRANCH  28  29
ATOM     29  O   UNL     1       5.436  -6.791  25.468  0.00  0.00    -0.284 OA
BRANCH  29  30
ATOM     30  P   UNL     1       3.948  -6.857  26.178  0.00  0.00    +0.483 P 
ATOM     31  O   UNL     1       3.059  -5.794  25.544  0.00  0.00    -0.227 OA
BRANCH  30  32
ATOM     32  O   UNL     1       3.414  -7.939  24.939  0.00  0.00    -0.302 OA
ATOM     33  H   UNL     1       3.221  -7.334  24.190  0.00  0.00    +0.222 HD
ENDBRANCH  30  32
BRANCH  30  34
ATOM     34  O   UNL     1       4.482  -5.774  27.418  0.00  0.00    -0.186 OA
BRANCH  34  35
ATOM     35  P   UNL     1       4.350  -6.551  28.957  0.00  0.00    +0.481 P 
ATOM     36  O   UNL     1       4.231  -7.247  30.336  0.00  0.00    -0.227 OA
BRANCH  35  37
ATOM     37  O   UNL     1       5.510  -7.565  28.415  0.00  0.00    -0.302 OA
ATOM     38  H   UNL     1       5.114  -8.192  27.784  0.00  0.00    +0.222 HD
ENDBRANCH  35  37
BRANCH  35  39
ATOM     39  O   UNL     1       3.110  -7.389  28.286  0.00  0.00    -0.302 OA
ATOM     40  H   UNL     1       2.275  -6.891  28.366  0.00  0.00    +0.222 HD
ENDBRANCH  35  39
ENDBRANCH  34  35
ENDBRANCH  30  34
ENDBRANCH  29  30
ENDBRANCH  28  29
ENDBRANCH   5  28
TORSDOF 13
ENDMDL
MODEL 3
REMARK VINA RESULT:      -7.8      1.336      2.517
REMARK  Name = 
REMARK  13 active torsions:
REMARK  status: ('A' for Active; 'I' for Inactive)
REMARK    1  A    between atoms: O_1  and  C_2
REMARK    2  A    between atoms: C_4  and  C_6
REMARK    3  A    between atoms: C_6  and  O_7
REMARK    4  A    between atoms: O_7  and  P_8
REMARK    5  A    between atoms: P_8  and  O_9
REMARK    6  A    between atoms: P_8  and  O_11
REMARK    7  A    between atoms: O_11  and  P_12
REMARK    8  A    between atoms: P_12  and  O_13
REMARK    9  A    between atoms: P_12  and  O_14
REMARK   10  A    between atoms: C_17  and  N_22
REMARK   11  A    between atoms: C_19  and  O_21
REMARK   12  A    between atoms: N_31  and  C_32
REMARK   13  A    between atoms: C_32  and  C_33
REMARK                            x       y       z     vdW  Elec       q    Type
REMARK                         _______ _______ _______ _____ _____    ______ ____
ROOT
ATOM      1  C   UNL     1       7.791  -5.427  26.045  0.00  0.00    +0.178 C 
ATOM      2  C   UNL     1       8.978  -4.697  25.420  0.00  0.00    +0.195 C 
ATOM      3  C   UNL     1       8.337  -3.745  24.394  0.00  0.00    +0.253 C 
ATOM      4  O   UNL     1       6.897  -3.836  24.560  0.00  0.00    -0.346 OA
ATOM      5  C   UNL     1       6.650  -4.444  25.840  0.00  0.00    +0.178 C 
ENDROOT
BRANCH   3   6
ATOM      6  N   UNL     1       8.746  -2.358  24.562  0.00  0.00    -0.286 N 
ATOM      7  C   UNL     1       9.122  -1.500  23.556  0.00  0.00    +0.167 A 
ATOM      8  N   UNL     1       9.155  -1.726  22.236  0.00  0.00    -0.216 NA
ATOM      9  C   UNL     1       9.622  -0.634  21.584  0.00  0.00    +0.225 A 
ATOM     10  N   UNL     1      10.053   0.547  22.094  0.00  0.00    -0.219 NA
ATOM     11  C   UNL     1      10.037   0.712  23.442  0.00  0.00    +0.150 A 
ATOM     12  N   UNL     1      10.551   1.851  24.058  0.00  0.00    -0.323 N 
ATOM     13  H   UNL     1      10.264   1.894  25.033  0.00  0.00    +0.148 HD
ATOM     14  C   UNL     1       9.518  -0.342  24.217  0.00  0.00    +0.147 A 
ATOM     15  N   UNL     1       9.321  -0.463  25.579  0.00  0.00    -0.231 NA
ATOM     16  C   UNL     1       8.837  -1.674  25.747  0.00  0.00    +0.203 A 
BRANCH  12  17
ATOM     17  C   UNL     1      10.480   3.104  23.335  0.00  0.00    +0.138 C 
BRANCH  17  18
ATOM     18  C   UNL     1       9.506   4.023  24.046  0.00  0.00    -0.030 A 
ATOM     19  C   UNL     1       8.632   3.523  25.026  0.00  0.00    +0.005 A 
ATOM     20  C   UNL     1       7.770   4.385  25.711  0.00  0.00    +0.000 A 
ATOM     21  C   UNL     1       7.776   5.750  25.436  0.00  0.00    +0.000 A 
ATOM     22  C   UNL     1       8.650   6.261  24.478  0.00  0.00    +0.000 A 
ATOM     23  C   UNL     1       9.515   5.405  23.791  0.00  0.00    +0.005 A 
ENDBRANCH  17  18
ENDBRANCH  12  17
ENDBRANCH   3   6
BRANCH   1  24
ATOM     24  O   UNL     1       8.022  -5.691  27.424  0.00  0.00    -0.386 OA
ATOM     25  H   UNL     1       8.226  -6.643  27.510  0.00  0.00    +0.210 HD
ENDBRANCH   1  24
BRANCH   2  26
ATOM     26  O   UNL     1       9.855  -5.632  24.779  0.00  0.00    -0.385 OA
ATOM     27  H   UNL     1      10.767  -5.358  24.996  0.00  0.00    +0.210 HD
ENDBRANCH   2  26
BRANCH   5  28
ATOM     28  C   UNL     1       5.264  -5.090  25.840  0.00  0.00    +0.206 C 
BRANCH  28  29
ATOM     29  O   UNL     1       4.558  -4.868  24.623  0.00  0.00    -0.284 OA
BRANCH  29  30
ATOM     30  P   UNL     1       4.208  -6.246  23.784  0.00  0.00    +0.483 P 
ATOM     31  O   UNL     1       4.390  -7.440  24.712  0.00  0.00    -0.227 OA
BRANCH  30  32
ATOM     32  O   UNL     1       2.571  -6.157  24.338  0.00  0.00    -0.302 OA
ATOM     33  H   UNL     1       2.080  -6.647  23.643  0.00  0.00    +0.222 HD
ENDBRANCH  30  32
BRANCH  30  34
ATOM     34  O   UNL     1       5.844  -6.334  23.229  0.00  0.00    -0.186 OA
BRANCH  34  35
ATOM     35  P   UNL     1       5.914  -5.869  21.565  0.00  0.00    +0.481 P 
ATOM     36  O   UNL     1       5.977  -5.452  20.075  0.00  0.00    -0.227 OA
BRANCH  35  37
ATOM     37  O   UNL     1       7.502  -5.591  21.830  0.00  0.00    -0.302 OA
ATOM     38  H   UNL     1       7.992  -6.427  21.731  0.00  0.00    +0.222 HD
ENDBRANCH  35  37
BRANCH  35  39
ATOM     39  O   UNL     1       5.427  -4.393  22.088  0.00  0.00    -0.302 OA
ATOM     40  H   UNL     1       4.454  -4.329  22.082  0.00  0.00    +0.222 HD
ENDBRANCH  35  39
ENDBRANCH  34  35
ENDBRANCH  30  34
ENDBRANCH  29  30
ENDBRANCH  28  29
ENDBRANCH   5  28
TORSDOF 13
ENDMDL
MODEL 4
REMARK VINA RESULT:      -7.3      1.551      2.508
REMARK  Name = 
REMARK  13 active torsions:
REMARK  status: ('A' for Active; 'I' for Inactive)
REMARK    1  A    between atoms: O_1  and  C_2
REMARK    2  A    between atoms: C_4  and  C_6
REMARK    3  A    between atoms: C_6  and  O_7
REMARK    4  A    between atoms: O_7  and  P_8
REMARK    5  A    between atoms: P_8  and  O_9
REMARK    6  A    between atoms: P_8  and  O_11
REMARK    7  A    between atoms: O_11  and  P_12
REMARK    8  A    between atoms: P_12  and  O_13
REMARK    9  A    between atoms: P_12  and  O_14
REMARK   10  A    between atoms: C_17  and  N_22
REMARK   11  A    between atoms: C_19  and  O_21
REMARK   12  A    between atoms: N_31  and  C_32
REMARK   13  A    between atoms: C_32  and  C_33
REMARK                            x       y       z     vdW  Elec       q    Type
REMARK                         _______ _______ _______ _____ _____    ______ ____
ROOT
ATOM      1  C   UNL     1       7.939  -5.570  26.072  0.00  0.00    +0.178 C 
ATOM      2  C   UNL     1       9.071  -4.763  25.439  0.00  0.00    +0.195 C 
ATOM      3  C   UNL     1       8.509  -4.338  24.071  0.00  0.00    +0.253 C 
ATOM      4  O   UNL     1       7.117  -4.748  24.027  0.00  0.00    -0.346 OA
ATOM      5  C   UNL     1       6.705  -5.015  25.379  0.00  0.00    +0.178 C 
ENDROOT
BRANCH   3   6
ATOM      6  N   UNL     1       8.587  -2.902  23.838  0.00  0.00    -0.286 N 
ATOM      7  C   UNL     1       8.503  -1.923  24.799  0.00  0.00    +0.167 A 
ATOM      8  N   UNL     1       8.378  -2.065  26.125  0.00  0.00    -0.216 NA
ATOM      9  C   UNL     1       8.292  -0.851  26.721  0.00  0.00    +0.225 A 
ATOM     10  N   UNL     1       8.285   0.381  26.154  0.00  0.00    -0.219 NA
ATOM     11  C   UNL     1       8.374   0.470  24.801  0.00  0.00    +0.150 A 
ATOM     12  N   UNL     1       8.278   1.686  24.128  0.00  0.00    -0.323 N 
ATOM     13  H   UNL     1       8.576   1.586  23.160  0.00  0.00    +0.148 HD
ATOM     14  C   UNL     1       8.524  -0.731  24.083  0.00  0.00    +0.147 A 
ATOM     15  N   UNL     1       8.689  -0.972  22.733  0.00  0.00    -0.231 NA
ATOM     16  C   UNL     1       8.745  -2.282  22.625  0.00  0.00    +0.203 A 
BRANCH  12  17
ATOM     17  C   UNL     1       8.750   2.876  24.803  0.00  0.00    +0.138 C 
BRANCH  17  18
ATOM     18  C   UNL     1       8.471   4.080  23.924  0.00  0.00    -0.030 A 
ATOM     19  C   UNL     1       7.412   4.063  23.001  0.00  0.00    +0.005 A 
ATOM     20  C   UNL     1       7.131   5.194  22.228  0.00  0.00    +0.000 A 
ATOM     21  C   UNL     1       7.892   6.352  22.373  0.00  0.00    +0.000 A 
ATOM     22  C   UNL     1       8.933   6.386  23.298  0.00  0.00    +0.000 A 
ATOM     23  C   UNL     1       9.219   5.260  24.074  0.00  0.00    +0.005 A 
ENDBRANCH  17  18
ENDBRANCH  12  17
ENDBRANCH   3   6
BRANCH   1  24
ATOM     24  O   UNL     1       7.893  -5.367  27.480  0.00  0.00    -0.386 OA
ATOM     25  H   UNL     1       8.646  -4.791  27.718  0.00  0.00    +0.210 HD
ENDBRANCH   1  24
BRANCH   2  26
ATOM     26  O   UNL     1      10.238  -5.580  25.287  0.00  0.00    -0.385 OA
ATOM     27  H   UNL     1      10.178  -5.996  24.405  0.00  0.00    +0.210 HD
ENDBRANCH   2  26
BRANCH   5  28
ATOM     28  C   UNL     1       5.512  -5.970  25.371  0.00  0.00    +0.206 C 
BRANCH  28  29
ATOM     29  O   UNL     1       4.319  -5.351  24.900  0.00  0.00    -0.284 OA
BRANCH  29  30
ATOM     30  P   UNL     1       3.513  -6.222  23.753  0.00  0.00    +0.483 P 
ATOM     31  O   UNL     1       2.792  -5.253  22.824  0.00  0.00    -0.227 OA
BRANCH  30  32
ATOM     32  O   UNL     1       4.883  -6.094  22.705  0.00  0.00    -0.302 OA
ATOM     33  H   UNL     1       5.304  -5.256  22.999  0.00  0.00    +0.222 HD
ENDBRANCH  30  32
BRANCH  30  34
ATOM     34  O   UNL     1       2.142  -6.350  24.802  0.00  0.00    -0.186 OA
BRANCH  34  35
ATOM     35  P   UNL     1       1.804  -8.019  25.106  0.00  0.00    +0.481 P 
ATOM     36  O   UNL     1       1.502  -9.513  25.379  0.00  0.00    -0.227 OA
BRANCH  35  37
ATOM     37  O   UNL     1       2.792  -7.863  26.397  0.00  0.00    -0.302 OA
ATOM     38  H   UNL     1       3.618  -8.351  26.227  0.00  0.00    +0.222 HD
ENDBRANCH  35  37
BRANCH  35  39
ATOM     39  O   UNL     1       3.014  -8.327  24.044  0.00  0.00    -0.302 OA
ATOM     40  H   UNL     1       2.658  -8.693  23.212  0.00  0.00    +0.222 HD
ENDBRANCH  35  39
ENDBRANCH  34  35
ENDBRANCH  30  34
ENDBRANCH  29  30
ENDBRANCH  28  29
ENDBRANCH   5  28
TORSDOF 13
ENDMDL
MODEL 5
REMARK VINA RESULT:      -7.3      1.536      2.610
REMARK  Name = 
REMARK  13 active torsions:
REMARK  status: ('A' for Active; 'I' for Inactive)
REMARK    1  A    between atoms: O_1  and  C_2
REMARK    2  A    between atoms: C_4  and  C_6
REMARK    3  A    between atoms: C_6  and  O_7
REMARK    4  A    between atoms: O_7  and  P_8
REMARK    5  A    between atoms: P_8  and  O_9
REMARK    6  A    between atoms: P_8  and  O_11
REMARK    7  A    between atoms: O_11  and  P_12
REMARK    8  A    between atoms: P_12  and  O_13
REMARK    9  A    between atoms: P_12  and  O_14
REMARK   10  A    between atoms: C_17  and  N_22
REMARK   11  A    between atoms: C_19  and  O_21
REMARK   12  A    between atoms: N_31  and  C_32
REMARK   13  A    between atoms: C_32  and  C_33
REMARK                            x       y       z     vdW  Elec       q    Type
REMARK                         _______ _______ _______ _____ _____    ______ ____
ROOT
ATOM      1  C   UNL     1       8.499  -5.194  24.917  0.00  0.00    +0.178 C 
ATOM      2  C   UNL     1       8.578  -4.061  23.897  0.00  0.00    +0.195 C 
ATOM      3  C   UNL     1       7.665  -2.966  24.478  0.00  0.00    +0.253 C 
ATOM      4  O   UNL     1       7.243  -3.408  25.795  0.00  0.00    -0.346 OA
ATOM      5  C   UNL     1       8.133  -4.463  26.199  0.00  0.00    +0.178 C 
ENDROOT
BRANCH   3   6
ATOM      6  N   UNL     1       8.323  -1.673  24.600  0.00  0.00    -0.286 N 
ATOM      7  C   UNL     1       8.800  -0.909  23.562  0.00  0.00    +0.167 A 
ATOM      8  N   UNL     1       8.733  -1.154  22.246  0.00  0.00    -0.216 NA
ATOM      9  C   UNL     1       9.357  -0.171  21.553  0.00  0.00    +0.225 A 
ATOM     10  N   UNL     1      10.015   0.920  22.021  0.00  0.00    -0.219 NA
ATOM     11  C   UNL     1      10.089   1.102  23.365  0.00  0.00    +0.150 A 
ATOM     12  N   UNL     1      10.825   2.139  23.935  0.00  0.00    -0.323 N 
ATOM     13  H   UNL     1      10.595   2.244  24.921  0.00  0.00    +0.148 HD
ATOM     14  C   UNL     1       9.426   0.168  24.182  0.00  0.00    +0.147 A 
ATOM     15  N   UNL     1       9.272   0.101  25.553  0.00  0.00    -0.231 NA
ATOM     16  C   UNL     1       8.588  -1.001  25.766  0.00  0.00    +0.203 A 
BRANCH  12  17
ATOM     17  C   UNL     1      10.947   3.374  23.191  0.00  0.00    +0.138 C 
BRANCH  17  18
ATOM     18  C   UNL     1      10.196   4.465  23.930  0.00  0.00    -0.030 A 
ATOM     19  C   UNL     1      10.616   5.804  23.852  0.00  0.00    +0.005 A 
ATOM     20  C   UNL     1       9.891   6.811  24.496  0.00  0.00    +0.000 A 
ATOM     21  C   UNL     1       8.739   6.499  25.215  0.00  0.00    +0.000 A 
ATOM     22  C   UNL     1       8.303   5.177  25.285  0.00  0.00    +0.000 A 
ATOM     23  C   UNL     1       9.023   4.166  24.642  0.00  0.00    +0.005 A 
ENDBRANCH  17  18
ENDBRANCH  12  17
ENDBRANCH   3   6
BRANCH   1  24
ATOM     24  O   UNL     1       9.746  -5.870  25.030  0.00  0.00    -0.386 OA
ATOM     25  H   UNL     1       9.732  -6.373  25.867  0.00  0.00    +0.210 HD
ENDBRANCH   1  24
BRANCH   2  26
ATOM     26  O   UNL     1       8.104  -4.507  22.621  0.00  0.00    -0.385 OA
ATOM     27  H   UNL     1       7.818  -5.434  22.735  0.00  0.00    +0.210 HD
ENDBRANCH   2  26
BRANCH   5  28
ATOM     28  C   UNL     1       7.444  -5.342  27.243  0.00  0.00    +0.206 C 
BRANCH  28  29
ATOM     29  O   UNL     1       6.460  -6.199  26.671  0.00  0.00    -0.284 OA
BRANCH  29  30
ATOM     30  P   UNL     1       5.000  -6.160  27.441  0.00  0.00    +0.483 P 
ATOM     31  O   UNL     1       4.020  -7.032  26.667  0.00  0.00    -0.227 OA
BRANCH  30  32
ATOM     32  O   UNL     1       5.442  -7.574  28.333  0.00  0.00    -0.302 OA
ATOM     33  H   UNL     1       5.829  -8.155  27.642  0.00  0.00    +0.222 HD
ENDBRANCH  30  32
BRANCH  30  34
ATOM     34  O   UNL     1       4.558  -4.745  26.549  0.00  0.00    -0.186 OA
BRANCH  34  35
ATOM     35  P   UNL     1       3.670  -5.206  25.138  0.00  0.00    +0.481 P 
ATOM     36  O   UNL     1       2.875  -5.619  23.875  0.00  0.00    -0.227 OA
BRANCH  35  37
ATOM     37  O   UNL     1       5.123  -5.319  24.402  0.00  0.00    -0.302 OA
ATOM     38  H   UNL     1       5.720  -4.642  24.769  0.00  0.00    +0.222 HD
ENDBRANCH  35  37
BRANCH  35  39
ATOM     39  O   UNL     1       3.505  -3.597  24.870  0.00  0.00    -0.302 OA
ATOM     40  H   UNL     1       4.328  -3.124  25.096  0.00  0.00    +0.222 HD
ENDBRANCH  35  39
ENDBRANCH  34  35
ENDBRANCH  30  34
ENDBRANCH  29  30
ENDBRANCH  28  29
ENDBRANCH   5  28
TORSDOF 13
ENDMDL
MODEL 6
REMARK VINA RESULT:      -7.2      6.418     10.784
REMARK  Name = 
REMARK  13 active torsions:
REMARK  status: ('A' for Active; 'I' for Inactive)
REMARK    1  A    between atoms: O_1  and  C_2
REMARK    2  A    between atoms: C_4  and  C_6
REMARK    3  A    between atoms: C_6  and  O_7
REMARK    4  A    between atoms: O_7  and  P_8
REMARK    5  A    between atoms: P_8  and  O_9
REMARK    6  A    between atoms: P_8  and  O_11
REMARK    7  A    between atoms: O_11  and  P_12
REMARK    8  A    between atoms: P_12  and  O_13
REMARK    9  A    between atoms: P_12  and  O_14
REMARK   10  A    between atoms: C_17  and  N_22
REMARK   11  A    between atoms: C_19  and  O_21
REMARK   12  A    between atoms: N_31  and  C_32
REMARK   13  A    between atoms: C_32  and  C_33
REMARK                            x       y       z     vdW  Elec       q    Type
REMARK                         _______ _______ _______ _____ _____    ______ ____
ROOT
ATOM      1  C   UNL     1       9.769   0.764  22.013  0.00  0.00    +0.178 C 
ATOM      2  C   UNL     1       9.580  -0.700  22.406  0.00  0.00    +0.195 C 
ATOM      3  C   UNL     1      10.203  -0.795  23.810  0.00  0.00    +0.253 C 
ATOM      4  O   UNL     1      10.563   0.551  24.217  0.00  0.00    -0.346 OA
ATOM      5  C   UNL     1       9.853   1.463  23.360  0.00  0.00    +0.178 C 
ENDROOT
BRANCH   3   6
ATOM      6  N   UNL     1       9.302  -1.364  24.803  0.00  0.00    -0.286 N 
ATOM      7  C   UNL     1       8.946  -2.689  24.904  0.00  0.00    +0.167 A 
ATOM      8  N   UNL     1       9.365  -3.724  24.165  0.00  0.00    -0.216 NA
ATOM      9  C   UNL     1       8.747  -4.863  24.559  0.00  0.00    +0.225 A 
ATOM     10  N   UNL     1       7.803  -5.036  25.518  0.00  0.00    -0.219 NA
ATOM     11  C   UNL     1       7.381  -3.947  26.212  0.00  0.00    +0.150 A 
ATOM     12  N   UNL     1       6.349  -4.015  27.146  0.00  0.00    -0.323 N 
ATOM     13  H   UNL     1       6.317  -3.167  27.709  0.00  0.00    +0.148 HD
ATOM     14  C   UNL     1       7.999  -2.716  25.923  0.00  0.00    +0.147 A 
ATOM     15  N   UNL     1       7.836  -1.461  26.475  0.00  0.00    -0.231 NA
ATOM     16  C   UNL     1       8.647  -0.681  25.795  0.00  0.00    +0.203 A 
BRANCH  12  17
ATOM     17  C   UNL     1       6.173  -5.252  27.876  0.00  0.00    +0.138 C 
BRANCH  17  18
ATOM     18  C   UNL     1       4.850  -5.874  27.471  0.00  0.00    -0.030 A 
ATOM     19  C   UNL     1       3.678  -5.599  28.195  0.00  0.00    +0.005 A 
ATOM     20  C   UNL     1       2.454  -6.137  27.787  0.00  0.00    +0.000 A 
ATOM     21  C   UNL     1       2.382  -6.944  26.654  0.00  0.00    +0.000 A 
ATOM     22  C   UNL     1       3.536  -7.209  25.918  0.00  0.00    +0.000 A 
ATOM     23  C   UNL     1       4.762  -6.673  26.320  0.00  0.00    +0.005 A 
ENDBRANCH  17  18
ENDBRANCH  12  17
ENDBRANCH   3   6
BRANCH   1  24
ATOM     24  O   UNL     1       8.668   1.232  21.241  0.00  0.00    -0.386 OA
ATOM     25  H   UNL     1       7.966   0.553  21.291  0.00  0.00    +0.210 HD
ENDBRANCH   1  24
BRANCH   2  26
ATOM     26  O   UNL     1      10.260  -1.555  21.479  0.00  0.00    -0.385 OA
ATOM     27  H   UNL     1       9.574  -2.081  21.025  0.00  0.00    +0.210 HD
ENDBRANCH   2  26
BRANCH   5  28
ATOM     28  C   UNL     1      10.586   2.804  23.321  0.00  0.00    +0.206 C 
BRANCH  28  29
ATOM     29  O   UNL     1       9.876   3.835  24.001  0.00  0.00    -0.284 OA
BRANCH  29  30
ATOM     30  P   UNL     1      10.707   5.254  24.133  0.00  0.00    +0.483 P 
ATOM     31  O   UNL     1      10.468   6.078  22.874  0.00  0.00    -0.227 OA
BRANCH  30  32
ATOM     32  O   UNL     1       9.301   6.005  24.805  0.00  0.00    -0.302 OA
ATOM     33  H   UNL     1       9.662   6.493  25.576  0.00  0.00    +0.222 HD
ENDBRANCH  30  32
BRANCH  30  34
ATOM     34  O   UNL     1      12.114   4.503  23.463  0.00  0.00    -0.186 OA
BRANCH  34  35
ATOM     35  P   UNL     1      13.053   5.686  22.619  0.00  0.00    +0.481 P 
ATOM     36  O   UNL     1      13.893   6.745  21.864  0.00  0.00    -0.227 OA
BRANCH  35  37
ATOM     37  O   UNL     1      14.356   4.836  23.116  0.00  0.00    -0.302 OA
ATOM     38  H   UNL     1      14.823   5.342  23.804  0.00  0.00    +0.222 HD
ENDBRANCH  35  37
BRANCH  35  39
ATOM     39  O   UNL     1      12.936   6.573  23.993  0.00  0.00    -0.302 OA
ATOM     40  H   UNL     1      13.822   6.774  24.350  0.00  0.00    +0.222 HD
ENDBRANCH  35  39
ENDBRANCH  34  35
ENDBRANCH  30  34
ENDBRANCH  29  30
ENDBRANCH  28  29
ENDBRANCH   5  28
TORSDOF 13
ENDMDL
MODEL 7
REMARK VINA RESULT:      -7.1      1.868      2.959
REMARK  Name = 
REMARK  13 active torsions:
REMARK  status: ('A' for Active; 'I' for Inactive)
REMARK    1  A    between atoms: O_1  and  C_2
REMARK    2  A    between atoms: C_4  and  C_6
REMARK    3  A    between atoms: C_6  and  O_7
REMARK    4  A    between atoms: O_7  and  P_8
REMARK    5  A    between atoms: P_8  and  O_9
REMARK    6  A    between atoms: P_8  and  O_11
REMARK    7  A    between atoms: O_11  and  P_12
REMARK    8  A    between atoms: P_12  and  O_13
REMARK    9  A    between atoms: P_12  and  O_14
REMARK   10  A    between atoms: C_17  and  N_22
REMARK   11  A    between atoms: C_19  and  O_21
REMARK   12  A    between atoms: N_31  and  C_32
REMARK   13  A    between atoms: C_32  and  C_33
REMARK                            x       y       z     vdW  Elec       q    Type
REMARK                         _______ _______ _______ _____ _____    ______ ____
ROOT
ATOM      1  C   UNL     1       7.908  -2.894  24.537  0.00  0.00    +0.178 C 
ATOM      2  C   UNL     1       9.150  -2.134  24.077  0.00  0.00    +0.195 C 
ATOM      3  C   UNL     1       8.741  -1.532  22.721  0.00  0.00    +0.253 C 
ATOM      4  O   UNL     1       7.329  -1.812  22.530  0.00  0.00    -0.346 OA
ATOM      5  C   UNL     1       6.785  -2.169  23.813  0.00  0.00    +0.178 C 
ENDROOT
BRANCH   3   6
ATOM      6  N   UNL     1       8.953  -0.093  22.642  0.00  0.00    -0.286 N 
ATOM      7  C   UNL     1       8.223   0.867  23.302  0.00  0.00    +0.167 A 
ATOM      8  N   UNL     1       7.215   0.700  24.168  0.00  0.00    -0.216 NA
ATOM      9  C   UNL     1       6.736   1.903  24.569  0.00  0.00    +0.225 A 
ATOM     10  N   UNL     1       7.120   3.146  24.185  0.00  0.00    -0.219 NA
ATOM     11  C   UNL     1       8.120   3.262  23.273  0.00  0.00    +0.150 A 
ATOM     12  N   UNL     1       8.512   4.492  22.751  0.00  0.00    -0.323 N 
ATOM     13  H   UNL     1       9.398   4.408  22.257  0.00  0.00    +0.148 HD
ATOM     14  C   UNL     1       8.730   2.073  22.829  0.00  0.00    +0.147 A 
ATOM     15  N   UNL     1       9.785   1.857  21.964  0.00  0.00    -0.231 NA
ATOM     16  C   UNL     1       9.905   0.550  21.893  0.00  0.00    +0.203 A 
BRANCH  12  17
ATOM     17  C   UNL     1       8.381   5.661  23.595  0.00  0.00    +0.138 C 
BRANCH  17  18
ATOM     18  C   UNL     1       9.755   6.051  24.106  0.00  0.00    -0.030 A 
ATOM     19  C   UNL     1       9.894   6.794  25.290  0.00  0.00    +0.005 A 
ATOM     20  C   UNL     1      11.165   7.108  25.782  0.00  0.00    +0.000 A 
ATOM     21  C   UNL     1      12.306   6.679  25.107  0.00  0.00    +0.000 A 
ATOM     22  C   UNL     1      12.180   5.926  23.941  0.00  0.00    +0.000 A 
ATOM     23  C   UNL     1      10.913   5.607  23.445  0.00  0.00    +0.005 A 
ENDBRANCH  17  18
ENDBRANCH  12  17
ENDBRANCH   3   6
BRANCH   1  24
ATOM     24  O   UNL     1       7.759  -2.823  25.951  0.00  0.00    -0.386 OA
ATOM     25  H   UNL     1       7.767  -3.739  26.293  0.00  0.00    +0.210 HD
ENDBRANCH   1  24
BRANCH   2  26
ATOM     26  O   UNL     1      10.257  -3.032  23.932  0.00  0.00    -0.385 OA
ATOM     27  H   UNL     1      10.231  -3.365  23.014  0.00  0.00    +0.210 HD
ENDBRANCH   2  26
BRANCH   5  28
ATOM     28  C   UNL     1       5.524  -3.011  23.617  0.00  0.00    +0.206 C 
BRANCH  28  29
ATOM     29  O   UNL     1       5.727  -4.383  23.942  0.00  0.00    -0.284 OA
BRANCH  29  30
ATOM     30  P   UNL     1       5.484  -5.419  22.681  0.00  0.00    +0.483 P 
ATOM     31  O   UNL     1       5.610  -4.639  21.379  0.00  0.00    -0.227 OA
BRANCH  30  32
ATOM     32  O   UNL     1       7.189  -5.700  22.594  0.00  0.00    -0.302 OA
ATOM     33  H   UNL     1       7.243  -6.673  22.472  0.00  0.00    +0.222 HD
ENDBRANCH  30  32
BRANCH  30  34
ATOM     34  O   UNL     1       3.779  -5.140  22.768  0.00  0.00    -0.186 OA
BRANCH  34  35
ATOM     35  P   UNL     1       3.010  -6.494  23.522  0.00  0.00    +0.481 P 
ATOM     36  O   UNL     1       2.323  -7.706  24.196  0.00  0.00    -0.227 OA
BRANCH  35  37
ATOM     37  O   UNL     1       3.138  -5.645  24.911  0.00  0.00    -0.302 OA
ATOM     38  H   UNL     1       2.341  -5.098  25.024  0.00  0.00    +0.222 HD
ENDBRANCH  35  37
BRANCH  35  39
ATOM     39  O   UNL     1       4.516  -7.136  23.613  0.00  0.00    -0.302 OA
ATOM     40  H   UNL     1       4.722  -7.648  22.808  0.00  0.00    +0.222 HD
ENDBRANCH  35  39
ENDBRANCH  34  35
ENDBRANCH  30  34
ENDBRANCH  29  30
ENDBRANCH  28  29
ENDBRANCH   5  28
TORSDOF 13
ENDMDL
MODEL 8
REMARK VINA RESULT:      -7.0      2.348      3.574
REMARK  Name = 
REMARK  13 active torsions:
REMARK  status: ('A' for Active; 'I' for Inactive)
REMARK    1  A    between atoms: O_1  and  C_2
REMARK    2  A    between atoms: C_4  and  C_6
REMARK    3  A    between atoms: C_6  and  O_7
REMARK    4  A    between atoms: O_7  and  P_8
REMARK    5  A    between atoms: P_8  and  O_9
REMARK    6  A    between atoms: P_8  and  O_11
REMARK    7  A    between atoms: O_11  and  P_12
REMARK    8  A    between atoms: P_12  and  O_13
REMARK    9  A    between atoms: P_12  and  O_14
REMARK   10  A    between atoms: C_17  and  N_22
REMARK   11  A    between atoms: C_19  and  O_21
REMARK   12  A    between atoms: N_31  and  C_32
REMARK   13  A    between atoms: C_32  and  C_33
REMARK                            x       y       z     vdW  Elec       q    Type
REMARK                         _______ _______ _______ _____ _____    ______ ____
ROOT
ATOM      1  C   UNL     1       6.427  -5.249  24.891  0.00  0.00    +0.178 C 
ATOM      2  C   UNL     1       7.285  -4.390  23.965  0.00  0.00    +0.195 C 
ATOM      3  C   UNL     1       6.353  -3.239  23.548  0.00  0.00    +0.253 C 
ATOM      4  O   UNL     1       5.129  -3.373  24.316  0.00  0.00    -0.346 OA
ATOM      5  C   UNL     1       5.408  -4.252  25.420  0.00  0.00    +0.178 C 
ENDROOT
BRANCH   3   6
ATOM      6  N   UNL     1       6.922  -1.921  23.792  0.00  0.00    -0.286 N 
ATOM      7  C   UNL     1       8.161  -1.488  23.382  0.00  0.00    +0.167 A 
ATOM      8  N   UNL     1       9.075  -2.144  22.655  0.00  0.00    -0.216 NA
ATOM      9  C   UNL     1      10.185  -1.382  22.497  0.00  0.00    +0.225 A 
ATOM     10  N   UNL     1      10.449  -0.146  22.988  0.00  0.00    -0.219 NA
ATOM     11  C   UNL     1       9.506   0.461  23.753  0.00  0.00    +0.150 A 
ATOM     12  N   UNL     1       9.729   1.686  24.378  0.00  0.00    -0.323 N 
ATOM     13  H   UNL     1       8.856   2.079  24.723  0.00  0.00    +0.148 HD
ATOM     14  C   UNL     1       8.287  -0.219  23.938  0.00  0.00    +0.147 A 
ATOM     15  N   UNL     1       7.133   0.141  24.604  0.00  0.00    -0.231 NA
ATOM     16  C   UNL     1       6.329  -0.892  24.478  0.00  0.00    +0.203 A 
BRANCH  12  17
ATOM     17  C   UNL     1      10.619   2.626  23.730  0.00  0.00    +0.138 C 
BRANCH  17  18
ATOM     18  C   UNL     1       9.895   3.948  23.561  0.00  0.00    -0.030 A 
ATOM     19  C   UNL     1       8.533   3.980  23.218  0.00  0.00    +0.005 A 
ATOM     20  C   UNL     1       7.860   5.201  23.111  0.00  0.00    +0.000 A 
ATOM     21  C   UNL     1       8.531   6.398  23.354  0.00  0.00    +0.000 A 
ATOM     22  C   UNL     1       9.877   6.377  23.713  0.00  0.00    +0.000 A 
ATOM     23  C   UNL     1      10.556   5.160  23.822  0.00  0.00    +0.005 A 
ENDBRANCH  17  18
ENDBRANCH  12  17
ENDBRANCH   3   6
BRANCH   1  24
ATOM     24  O   UNL     1       7.211  -5.811  25.939  0.00  0.00    -0.386 OA
ATOM     25  H   UNL     1       7.762  -6.516  25.545  0.00  0.00    +0.210 HD
ENDBRANCH   1  24
BRANCH   2  26
ATOM     26  O   UNL     1       7.704  -5.154  22.827  0.00  0.00    -0.385 OA
ATOM     27  H   UNL     1       7.547  -6.093  23.044  0.00  0.00    +0.210 HD
ENDBRANCH   2  26
BRANCH   5  28
ATOM     28  C   UNL     1       4.108  -4.890  25.908  0.00  0.00    +0.206 C 
BRANCH  28  29
ATOM     29  O   UNL     1       4.301  -6.209  26.411  0.00  0.00    -0.284 OA
BRANCH  29  30
ATOM     30  P   UNL     1       3.383  -6.570  27.734  0.00  0.00    +0.483 P 
ATOM     31  O   UNL     1       2.148  -5.678  27.726  0.00  0.00    -0.227 OA
BRANCH  30  32
ATOM     32  O   UNL     1       2.481  -7.703  26.788  0.00  0.00    -0.302 OA
ATOM     33  H   UNL     1       2.340  -8.446  27.414  0.00  0.00    +0.222 HD
ENDBRANCH  30  32
BRANCH  30  34
ATOM     34  O   UNL     1       4.285  -5.437  28.680  0.00  0.00    -0.186 OA
BRANCH  34  35
ATOM     35  P   UNL     1       5.500  -6.277  29.580  0.00  0.00    +0.481 P 
ATOM     36  O   UNL     1       6.588  -7.029  30.386  0.00  0.00    -0.227 OA
BRANCH  35  37
ATOM     37  O   UNL     1       6.570  -5.581  28.561  0.00  0.00    -0.302 OA
ATOM     38  H   UNL     1       6.123  -4.874  28.064  0.00  0.00    +0.222 HD
ENDBRANCH  35  37
BRANCH  35  39
ATOM     39  O   UNL     1       5.175  -7.545  28.593  0.00  0.00    -0.302 OA
ATOM     40  H   UNL     1       5.974  -8.090  28.458  0.00  0.00    +0.222 HD
ENDBRANCH  35  39
ENDBRANCH  34  35
ENDBRANCH  30  34
ENDBRANCH  29  30
ENDBRANCH  28  29
ENDBRANCH   5  28
TORSDOF 13
ENDMDL
MODEL 9
REMARK VINA RESULT:      -7.0      3.364      5.721
REMARK  Name = 
REMARK  13 active torsions:
REMARK  status: ('A' for Active; 'I' for Inactive)
REMARK    1  A    between atoms: O_1  and  C_2
REMARK    2  A    between atoms: C_4  and  C_6
REMARK    3  A    between atoms: C_6  and  O_7
REMARK    4  A    between atoms: O_7  and  P_8
REMARK    5  A    between atoms: P_8  and  O_9
REMARK    6  A    between atoms: P_8  and  O_11
REMARK    7  A    between atoms: O_11  and  P_12
REMARK    8  A    between atoms: P_12  and  O_13
REMARK    9  A    between atoms: P_12  and  O_14
REMARK   10  A    between atoms: C_17  and  N_22
REMARK   11  A    between atoms: C_19  and  O_21
REMARK   12  A    between atoms: N_31  and  C_32
REMARK   13  A    between atoms: C_32  and  C_33
REMARK                            x       y       z     vdW  Elec       q    Type
REMARK                         _______ _______ _______ _____ _____    ______ ____
ROOT
ATOM      1  C   UNL     1       2.388  -7.319  25.158  0.00  0.00    +0.178 C 
ATOM      2  C   UNL     1       3.012  -6.671  23.924  0.00  0.00    +0.195 C 
ATOM      3  C   UNL     1       2.651  -5.181  24.060  0.00  0.00    +0.253 C 
ATOM      4  O   UNL     1       2.013  -5.005  25.352  0.00  0.00    -0.346 OA
ATOM      5  C   UNL     1       2.322  -6.165  26.145  0.00  0.00    +0.178 C 
ENDROOT
BRANCH   3   6
ATOM      6  N   UNL     1       3.807  -4.299  23.979  0.00  0.00    -0.286 N 
ATOM      7  C   UNL     1       4.848  -4.412  23.088  0.00  0.00    +0.167 A 
ATOM      8  N   UNL     1       5.007  -5.304  22.101  0.00  0.00    -0.216 NA
ATOM      9  C   UNL     1       6.190  -5.101  21.472  0.00  0.00    +0.225 A 
ATOM     10  N   UNL     1       7.157  -4.189  21.742  0.00  0.00    -0.219 NA
ATOM     11  C   UNL     1       6.965  -3.333  22.779  0.00  0.00    +0.150 A 
ATOM     12  N   UNL     1       7.944  -2.430  23.189  0.00  0.00    -0.323 N 
ATOM     13  H   UNL     1       7.553  -1.739  23.826  0.00  0.00    +0.148 HD
ATOM     14  C   UNL     1       5.742  -3.418  23.470  0.00  0.00    +0.147 A 
ATOM     15  N   UNL     1       5.230  -2.673  24.515  0.00  0.00    -0.231 NA
ATOM     16  C   UNL     1       4.061  -3.214  24.779  0.00  0.00    +0.203 A 
BRANCH  12  17
ATOM     17  C   UNL     1       8.848  -1.908  22.187  0.00  0.00    +0.138 C 
BRANCH  17  18
ATOM     18  C   UNL     1       9.406  -0.584  22.674  0.00  0.00    -0.030 A 
ATOM     19  C   UNL     1       9.678   0.456  21.770  0.00  0.00    +0.005 A 
ATOM     20  C   UNL     1      10.146   1.690  22.232  0.00  0.00    +0.000 A 
ATOM     21  C   UNL     1      10.338   1.904  23.595  0.00  0.00    +0.000 A 
ATOM     22  C   UNL     1      10.055   0.885  24.503  0.00  0.00    +0.000 A 
ATOM     23  C   UNL     1       9.586  -0.350  24.048  0.00  0.00    +0.005 A 
ENDBRANCH  17  18
ENDBRANCH  12  17
ENDBRANCH   3   6
BRANCH   1  24
ATOM     24  O   UNL     1       3.200  -8.384  25.641  0.00  0.00    -0.386 OA
ATOM     25  H   UNL     1       2.604  -9.050  26.038  0.00  0.00    +0.210 HD
ENDBRANCH   1  24
BRANCH   2  26
ATOM     26  O   UNL     1       2.452  -7.232  22.731  0.00  0.00    -0.385 OA
ATOM     27  H   UNL     1       2.163  -8.138  22.954  0.00  0.00    +0.210 HD
ENDBRANCH   2  26
BRANCH   5  28
ATOM     28  C   UNL     1       1.265  -6.336  27.235  0.00  0.00    +0.206 C 
BRANCH  28  29
ATOM     29  O   UNL     1       1.774  -6.067  28.537  0.00  0.00    -0.284 OA
BRANCH  29  30
ATOM     30  P   UNL     1       3.059  -7.008  28.969  0.00  0.00    +0.483 P 
ATOM     31  O   UNL     1       3.040  -7.193  30.481  0.00  0.00    -0.227 OA
BRANCH  30  32
ATOM     32  O   UNL     1       2.057  -8.413  28.857  0.00  0.00    -0.302 OA
ATOM     33  H   UNL     1       2.685  -9.105  28.555  0.00  0.00    +0.222 HD
ENDBRANCH  30  32
BRANCH  30  34
ATOM     34  O   UNL     1       4.062  -5.602  29.080  0.00  0.00    -0.186 OA
BRANCH  34  35
ATOM     35  P   UNL     1       5.693  -6.025  28.689  0.00  0.00    +0.481 P 
ATOM     36  O   UNL     1       7.153  -6.405  28.338  0.00  0.00    -0.227 OA
BRANCH  35  37
ATOM     37  O   UNL     1       5.445  -5.216  27.293  0.00  0.00    -0.302 OA
ATOM     38  H   UNL     1       6.290  -5.136  26.816  0.00  0.00    +0.222 HD
ENDBRANCH  35  37
BRANCH  35  39
ATOM     39  O   UNL     1       5.062  -7.437  28.143  0.00  0.00    -0.302 OA
ATOM     40  H   UNL     1       4.176  -7.589  28.524  0.00  0.00    +0.222 HD
ENDBRANCH  35  39
ENDBRANCH  34  35
ENDBRANCH  30  34
ENDBRANCH  29  30
ENDBRANCH  28  29
ENDBRANCH   5  28
TORSDOF 13
ENDMDL
