MODEL 1
REMARK VINA RESULT:      -4.0      0.000      0.000
REMARK  Name = 
REMARK  6 active torsions:
REMARK  status: ('A' for Active; 'I' for Inactive)
REMARK    1  A    between atoms: N_1  and  CA_2
REMARK    2  A    between atoms: CA_2  and  CB_4
REMARK    3  A    between atoms: CA_2  and  C_8
REMARK    4  A    between atoms: CB_4  and  CG_5
REMARK    5  A    between atoms: CG_5  and  OD1_6
REMARK    6  A    between atoms: C_8  and  O_9
REMARK                            x       y       z     vdW  Elec       q    Type
REMARK                         _______ _______ _______ _____ _____    ______ ____
ROOT
ATOM      1  CA  ASP A   1       9.106  -4.676  26.278  0.00  0.00    +0.171 C 
ENDROOT
BRANCH   1   2
ATOM      2  N   ASP A   1       9.933  -5.542  25.384  0.00  0.00    -0.318 NA
ATOM      3  H1  ASP A   1      10.544  -6.126  25.966  0.00  0.00    +0.119 HD
ATOM      4  H2  ASP A   1       9.312  -6.212  24.919  0.00  0.00    +0.119 HD
ENDBRANCH   1   2
BRANCH   1   5
ATOM      5  C   ASP A   1       7.769  -5.408  26.492  0.00  0.00    +0.322 C 
ATOM      6  OXT ASP A   1       6.881  -5.489  25.662  0.00  0.00    -0.249 OA
BRANCH   5   7
ATOM      7  O   ASP A   1       7.722  -6.002  27.708  0.00  0.00    -0.480 OA
ATOM      8  H   ASP A   1       8.650  -6.016  28.055  0.00  0.00    +0.295 HD
ENDBRANCH   5   7
ENDBRANCH   1   5
BRANCH   1   9
ATOM      9  CB  ASP A   1       8.862  -3.307  25.660  0.00  0.00    +0.150 C 
BRANCH   9  10
ATOM     10  CG  ASP A   1       9.183  -3.305  24.185  0.00  0.00    +0.307 C 
ATOM     11  OD2 ASP A   1      10.244  -2.885  23.740  0.00  0.00    -0.251 OA
BRANCH  10  12
ATOM     12  OD1 ASP A   1       8.213  -3.803  23.399  0.00  0.00    -0.481 OA
ATOM     13  HD1 ASP A   1       7.887  -4.693  23.667  0.00  0.00    +0.295 HD
ENDBRANCH  10  12
ENDBRANCH   9  10
ENDBRANCH   1   9
TORSDOF 6
ENDMDL
MODEL 2
REMARK VINA RESULT:      -3.7      3.870      5.141
REMARK  Name = 
REMARK  6 active torsions:
REMARK  status: ('A' for Active; 'I' for Inactive)
REMARK    1  A    between atoms: N_1  and  CA_2
REMARK    2  A    between atoms: CA_2  and  CB_4
REMARK    3  A    between atoms: CA_2  and  C_8
REMARK    4  A    between atoms: CB_4  and  CG_5
REMARK    5  A    between atoms: CG_5  and  OD1_6
REMARK    6  A    between atoms: C_8  and  O_9
REMARK                            x       y       z     vdW  Elec       q    Type
REMARK                         _______ _______ _______ _____ _____    ______ ____
ROOT
ATOM      1  CA  ASP A   1      10.442  -1.199  22.706  0.00  0.00    +0.171 C 
ENDROOT
BRANCH   1   2
ATOM      2  N   ASP A   1       9.886  -1.375  21.330  0.00  0.00    -0.318 NA
ATOM      3  H1  ASP A   1       8.895  -1.630  21.405  0.00  0.00    +0.119 HD
ATOM      4  H2  ASP A   1       9.876  -0.460  20.867  0.00  0.00    +0.119 HD
ENDBRANCH   1   2
BRANCH   1   5
ATOM      5  C   ASP A   1       9.680  -2.176  23.620  0.00  0.00    +0.322 C 
ATOM      6  OXT ASP A   1      10.124  -3.235  24.028  0.00  0.00    -0.249 OA
BRANCH   5   7
ATOM      7  O   ASP A   1       8.466  -1.685  23.961  0.00  0.00    -0.480 OA
ATOM      8  H   ASP A   1       7.793  -2.215  23.464  0.00  0.00    +0.295 HD
ENDBRANCH   5   7
ENDBRANCH   1   5
BRANCH   1   9
ATOM      9  CB  ASP A   1      10.268   0.229  23.201  0.00  0.00    +0.150 C 
BRANCH   9  10
ATOM     10  CG  ASP A   1       9.391   1.030  22.269  0.00  0.00    +0.307 C 
ATOM     11  OD2 ASP A   1       8.177   0.883  22.214  0.00  0.00    -0.251 OA
BRANCH  10  12
ATOM     12  OD1 ASP A   1      10.050   1.920  21.506  0.00  0.00    -0.481 OA
ATOM     13  HD1 ASP A   1      11.032   1.849  21.553  0.00  0.00    +0.295 HD
ENDBRANCH  10  12
ENDBRANCH   9  10
ENDBRANCH   1   9
TORSDOF 6
ENDMDL
MODEL 3
REMARK VINA RESULT:      -3.7      4.566      6.430
REMARK  Name = 
REMARK  6 active torsions:
REMARK  status: ('A' for Active; 'I' for Inactive)
REMARK    1  A    between atoms: N_1  and  CA_2
REMARK    2  A    between atoms: CA_2  and  CB_4
REMARK    3  A    between atoms: CA_2  and  C_8
REMARK    4  A    between atoms: CB_4  and  CG_5
REMARK    5  A    between atoms: CG_5  and  OD1_6
REMARK    6  A    between atoms: C_8  and  O_9
REMARK                            x       y       z     vdW  Elec       q    Type
REMARK                         _______ _______ _______ _____ _____    ______ ____
ROOT
ATOM      1  CA  ASP A   1       8.924   0.691  23.116  0.00  0.00    +0.171 C 
ENDROOT
BRANCH   1   2
ATOM      2  N   ASP A   1       7.829  -0.310  22.938  0.00  0.00    -0.318 NA
ATOM      3  H1  ASP A   1       7.742  -0.860  23.800  0.00  0.00    +0.119 HD
ATOM      4  H2  ASP A   1       6.939   0.193  22.868  0.00  0.00    +0.119 HD
ENDBRANCH   1   2
BRANCH   1   5
ATOM      5  C   ASP A   1       8.842   1.656  21.919  0.00  0.00    +0.322 C 
ATOM      6  OXT ASP A   1       7.808   2.001  21.375  0.00  0.00    -0.249 OA
BRANCH   5   7
ATOM      7  O   ASP A   1      10.067   2.118  21.574  0.00  0.00    -0.480 OA
ATOM      8  H   ASP A   1       9.926   2.821  20.891  0.00  0.00    +0.295 HD
ENDBRANCH   5   7
ENDBRANCH   1   5
BRANCH   1   9
ATOM      9  CB  ASP A   1      10.290   0.023  23.160  0.00  0.00    +0.150 C 
BRANCH   9  10
ATOM     10  CG  ASP A   1      10.211  -1.420  22.726  0.00  0.00    +0.307 C 
ATOM     11  OD2 ASP A   1      10.187  -2.350  23.523  0.00  0.00    -0.251 OA
BRANCH  10  12
ATOM     12  OD1 ASP A   1      10.166  -1.604  21.395  0.00  0.00    -0.481 OA
ATOM     13  HD1 ASP A   1      10.790  -2.287  21.056  0.00  0.00    +0.295 HD
ENDBRANCH  10  12
ENDBRANCH   9  10
ENDBRANCH   1   9
TORSDOF 6
ENDMDL
MODEL 4
REMARK VINA RESULT:      -3.6      4.393      5.953
REMARK  Name = 
REMARK  6 active torsions:
REMARK  status: ('A' for Active; 'I' for Inactive)
REMARK    1  A    between atoms: N_1  and  CA_2
REMARK    2  A    between atoms: CA_2  and  CB_4
REMARK    3  A    between atoms: CA_2  and  C_8
REMARK    4  A    between atoms: CB_4  and  CG_5
REMARK    5  A    between atoms: CG_5  and  OD1_6
REMARK    6  A    between atoms: C_8  and  O_9
REMARK                            x       y       z     vdW  Elec       q    Type
REMARK                         _______ _______ _______ _____ _____    ______ ____
ROOT
ATOM      1  CA  ASP A   1       9.560  -0.349  23.443  0.00  0.00    +0.171 C 
ENDROOT
BRANCH   1   2
ATOM      2  N   ASP A   1      10.731   0.381  24.018  0.00  0.00    -0.318 NA
ATOM      3  H1  ASP A   1      11.465  -0.300  24.243  0.00  0.00    +0.119 HD
ATOM      4  H2  ASP A   1      11.143   0.962  23.281  0.00  0.00    +0.119 HD
ENDBRANCH   1   2
BRANCH   1   5
ATOM      5  C   ASP A   1      10.099  -1.673  22.872  0.00  0.00    +0.322 C 
ATOM      6  OXT ASP A   1      10.288  -2.684  23.524  0.00  0.00    -0.249 OA
BRANCH   5   7
ATOM      7  O   ASP A   1      10.290  -1.591  21.534  0.00  0.00    -0.480 OA
ATOM      8  H   ASP A   1       9.428  -1.301  21.140  0.00  0.00    +0.295 HD
ENDBRANCH   5   7
ENDBRANCH   1   5
BRANCH   1   9
ATOM      9  CB  ASP A   1       8.882   0.459  22.346  0.00  0.00    +0.150 C 
BRANCH   9  10
ATOM     10  CG  ASP A   1       9.299   1.909  22.394  0.00  0.00    +0.307 C 
ATOM     11  OD2 ASP A   1       8.787   2.718  23.157  0.00  0.00    -0.251 OA
BRANCH  10  12
ATOM     12  OD1 ASP A   1      10.277   2.240  21.534  0.00  0.00    -0.481 OA
ATOM     13  HD1 ASP A   1       9.978   2.367  20.604  0.00  0.00    +0.295 HD
ENDBRANCH  10  12
ENDBRANCH   9  10
ENDBRANCH   1   9
TORSDOF 6
ENDMDL
MODEL 5
REMARK VINA RESULT:      -3.6      4.539      6.639
REMARK  Name = 
REMARK  6 active torsions:
REMARK  status: ('A' for Active; 'I' for Inactive)
REMARK    1  A    between atoms: N_1  and  CA_2
REMARK    2  A    between atoms: CA_2  and  CB_4
REMARK    3  A    between atoms: CA_2  and  C_8
REMARK    4  A    between atoms: CB_4  and  CG_5
REMARK    5  A    between atoms: CG_5  and  OD1_6
REMARK    6  A    between atoms: C_8  and  O_9
REMARK                            x       y       z     vdW  Elec       q    Type
REMARK                         _______ _______ _______ _____ _____    ______ ____
ROOT
ATOM      1  CA  ASP A   1       9.514   0.826  23.454  0.00  0.00    +0.171 C 
ENDROOT
BRANCH   1   2
ATOM      2  N   ASP A   1       8.290   0.443  22.687  0.00  0.00    -0.318 NA
ATOM      3  H1  ASP A   1       8.175   1.096  21.903  0.00  0.00    +0.119 HD
ATOM      4  H2  ASP A   1       8.460  -0.463  22.239  0.00  0.00    +0.119 HD
ENDBRANCH   1   2
BRANCH   1   5
ATOM      5  C   ASP A   1      10.090   2.081  22.773  0.00  0.00    +0.322 C 
ATOM      6  OXT ASP A   1      10.701   2.964  23.349  0.00  0.00    -0.249 OA
BRANCH   5   7
ATOM      7  O   ASP A   1       9.878   2.057  21.436  0.00  0.00    -0.480 OA
ATOM      8  H   ASP A   1       8.908   2.208  21.298  0.00  0.00    +0.295 HD
ENDBRANCH   5   7
ENDBRANCH   1   5
BRANCH   1   9
ATOM      9  CB  ASP A   1      10.545  -0.292  23.454  0.00  0.00    +0.150 C 
BRANCH   9  10
ATOM     10  CG  ASP A   1      10.025  -1.520  22.748  0.00  0.00    +0.307 C 
ATOM     11  OD2 ASP A   1       9.465  -2.435  23.338  0.00  0.00    -0.251 OA
BRANCH  10  12
ATOM     12  OD1 ASP A   1      10.224  -1.529  21.418  0.00  0.00    -0.481 OA
ATOM     13  HD1 ASP A   1      10.995  -0.994  21.118  0.00  0.00    +0.295 HD
ENDBRANCH  10  12
ENDBRANCH   9  10
ENDBRANCH   1   9
TORSDOF 6
ENDMDL
MODEL 6
REMARK VINA RESULT:      -3.5      1.165      3.518
REMARK  Name = 
REMARK  6 active torsions:
REMARK  status: ('A' for Active; 'I' for Inactive)
REMARK    1  A    between atoms: N_1  and  CA_2
REMARK    2  A    between atoms: CA_2  and  CB_4
REMARK    3  A    between atoms: CA_2  and  C_8
REMARK    4  A    between atoms: CB_4  and  CG_5
REMARK    5  A    between atoms: CG_5  and  OD1_6
REMARK    6  A    between atoms: C_8  and  O_9
REMARK                            x       y       z     vdW  Elec       q    Type
REMARK                         _______ _______ _______ _____ _____    ______ ____
ROOT
ATOM      1  CA  ASP A   1       8.556  -4.993  24.302  0.00  0.00    +0.171 C 
ENDROOT
BRANCH   1   2
ATOM      2  N   ASP A   1       9.821  -5.466  24.942  0.00  0.00    -0.318 NA
ATOM      3  H1  ASP A   1       9.685  -5.492  25.959  0.00  0.00    +0.119 HD
ATOM      4  H2  ASP A   1       9.967  -6.446  24.681  0.00  0.00    +0.119 HD
ENDBRANCH   1   2
BRANCH   1   5
ATOM      5  C   ASP A   1       8.779  -3.519  23.914  0.00  0.00    +0.322 C 
ATOM      6  OXT ASP A   1       7.891  -2.736  23.624  0.00  0.00    -0.249 OA
BRANCH   5   7
ATOM      7  O   ASP A   1      10.088  -3.184  23.988  0.00  0.00    -0.480 OA
ATOM      8  H   ASP A   1      10.316  -2.734  23.135  0.00  0.00    +0.295 HD
ENDBRANCH   5   7
ENDBRANCH   1   5
BRANCH   1   9
ATOM      9  CB  ASP A   1       7.371  -5.114  25.249  0.00  0.00    +0.150 C 
BRANCH   9  10
ATOM     10  CG  ASP A   1       7.803  -4.975  26.689  0.00  0.00    +0.307 C 
ATOM     11  OD2 ASP A   1       8.099  -3.897  27.189  0.00  0.00    -0.251 OA
BRANCH  10  12
ATOM     12  OD1 ASP A   1       7.833  -6.128  27.378  0.00  0.00    -0.481 OA
ATOM     13  HD1 ASP A   1       8.059  -6.027  28.332  0.00  0.00    +0.295 HD
ENDBRANCH  10  12
ENDBRANCH   9  10
ENDBRANCH   1   9
TORSDOF 6
ENDMDL
MODEL 7
REMARK VINA RESULT:      -3.4      5.980      7.248
REMARK  Name = 
REMARK  6 active torsions:
REMARK  status: ('A' for Active; 'I' for Inactive)
REMARK    1  A    between atoms: N_1  and  CA_2
REMARK    2  A    between atoms: CA_2  and  CB_4
REMARK    3  A    between atoms: CA_2  and  C_8
REMARK    4  A    between atoms: CB_4  and  CG_5
REMARK    5  A    between atoms: CG_5  and  OD1_6
REMARK    6  A    between atoms: C_8  and  O_9
REMARK                            x       y       z     vdW  Elec       q    Type
REMARK                         _______ _______ _______ _____ _____    ______ ____
ROOT
ATOM      1  CA  ASP A   1       9.913   1.218  21.960  0.00  0.00    +0.171 C 
ENDROOT
BRANCH   1   2
ATOM      2  N   ASP A   1       8.920   2.186  21.403  0.00  0.00    -0.318 NA
ATOM      3  H1  ASP A   1       7.987   1.762  21.444  0.00  0.00    +0.119 HD
ATOM      4  H2  ASP A   1       8.861   2.989  22.038  0.00  0.00    +0.119 HD
ENDBRANCH   1   2
BRANCH   1   5
ATOM      5  C   ASP A   1       9.222  -0.158  21.988  0.00  0.00    +0.322 C 
ATOM      6  OXT ASP A   1       8.143  -0.382  22.507  0.00  0.00    -0.249 OA
BRANCH   5   7
ATOM      7  O   ASP A   1       9.943  -1.084  21.314  0.00  0.00    -0.480 OA
ATOM      8  H   ASP A   1       9.990  -1.887  21.893  0.00  0.00    +0.295 HD
ENDBRANCH   5   7
ENDBRANCH   1   5
BRANCH   1   9
ATOM      9  CB  ASP A   1      10.354   1.613  23.361  0.00  0.00    +0.150 C 
BRANCH   9  10
ATOM     10  CG  ASP A   1      10.224   3.101  23.579  0.00  0.00    +0.307 C 
ATOM     11  OD2 ASP A   1       9.349   3.592  24.281  0.00  0.00    -0.251 OA
BRANCH  10  12
ATOM     12  OD1 ASP A   1      11.146   3.843  22.942  0.00  0.00    -0.481 OA
ATOM     13  HD1 ASP A   1      11.771   3.326  22.383  0.00  0.00    +0.295 HD
ENDBRANCH  10  12
ENDBRANCH   9  10
ENDBRANCH   1   9
TORSDOF 6
ENDMDL
MODEL 8
REMARK VINA RESULT:      -3.4      4.850      6.686
REMARK  Name = 
REMARK  6 active torsions:
REMARK  status: ('A' for Active; 'I' for Inactive)
REMARK    1  A    between atoms: N_1  and  CA_2
REMARK    2  A    between atoms: CA_2  and  CB_4
REMARK    3  A    between atoms: CA_2  and  C_8
REMARK    4  A    between atoms: CB_4  and  CG_5
REMARK    5  A    between atoms: CG_5  and  OD1_6
REMARK    6  A    between atoms: C_8  and  O_9
REMARK                            x       y       z     vdW  Elec       q    Type
REMARK                         _______ _______ _______ _____ _____    ______ ____
ROOT
ATOM      1  CA  ASP A   1       9.068   1.574  23.378  0.00  0.00    +0.171 C 
ENDROOT
BRANCH   1   2
ATOM      2  N   ASP A   1       7.873   0.687  23.516  0.00  0.00    -0.318 NA
ATOM      3  H1  ASP A   1       7.370   0.670  22.622  0.00  0.00    +0.119 HD
ATOM      4  H2  ASP A   1       8.199  -0.276  23.641  0.00  0.00    +0.119 HD
ENDBRANCH   1   2
BRANCH   1   5
ATOM      5  C   ASP A   1       9.602   1.379  21.948  0.00  0.00    +0.322 C 
ATOM      6  OXT ASP A   1       9.318   0.442  21.223  0.00  0.00    -0.249 OA
BRANCH   5   7
ATOM      7  O   ASP A   1      10.392   2.412  21.572  0.00  0.00    -0.480 OA
ATOM      8  H   ASP A   1      11.236   2.018  21.233  0.00  0.00    +0.295 HD
ENDBRANCH   5   7
ENDBRANCH   1   5
BRANCH   1   9
ATOM      9  CB  ASP A   1      10.145   1.223  24.394  0.00  0.00    +0.150 C 
BRANCH   9  10
ATOM     10  CG  ASP A   1       9.903  -0.137  25.003  0.00  0.00    +0.307 C 
ATOM     11  OD2 ASP A   1      10.084  -1.179  24.385  0.00  0.00    -0.251 OA
BRANCH  10  12
ATOM     12  OD1 ASP A   1       9.477  -0.114  26.277  0.00  0.00    -0.481 OA
ATOM     13  HD1 ASP A   1       8.522  -0.329  26.392  0.00  0.00    +0.295 HD
ENDBRANCH  10  12
ENDBRANCH   9  10
ENDBRANCH   1   9
TORSDOF 6
ENDMDL
MODEL 9
REMARK VINA RESULT:      -3.3      2.989      5.228
REMARK  Name = 
REMARK  6 active torsions:
REMARK  status: ('A' for Active; 'I' for Inactive)
REMARK    1  A    between atoms: N_1  and  CA_2
REMARK    2  A    between atoms: CA_2  and  CB_4
REMARK    3  A    between atoms: CA_2  and  C_8
REMARK    4  A    between atoms: CB_4  and  CG_5
REMARK    5  A    between atoms: CG_5  and  OD1_6
REMARK    6  A    between atoms: C_8  and  O_9
REMARK                            x       y       z     vdW  Elec       q    Type
REMARK                         _______ _______ _______ _____ _____    ______ ____
ROOT
ATOM      1  CA  ASP A   1       8.440  -0.957  22.847  0.00  0.00    +0.171 C 
ENDROOT
BRANCH   1   2
ATOM      2  N   ASP A   1       7.849  -2.224  22.318  0.00  0.00    -0.318 NA
ATOM      3  H1  ASP A   1       7.527  -2.062  21.358  0.00  0.00    +0.119 HD
ATOM      4  H2  ASP A   1       8.601  -2.914  22.220  0.00  0.00    +0.119 HD
ENDBRANCH   1   2
BRANCH   1   5
ATOM      5  C   ASP A   1       9.513  -0.512  21.836  0.00  0.00    +0.322 C 
ATOM      6  OXT ASP A   1       9.691   0.637  21.474  0.00  0.00    -0.249 OA
BRANCH   5   7
ATOM      7  O   ASP A   1      10.275  -1.557  21.436  0.00  0.00    -0.480 OA
ATOM      8  H   ASP A   1      10.192  -1.610  20.450  0.00  0.00    +0.295 HD
ENDBRANCH   5   7
ENDBRANCH   1   5
BRANCH   1   9
ATOM      9  CB  ASP A   1       9.063  -1.160  24.220  0.00  0.00    +0.150 C 
BRANCH   9  10
ATOM     10  CG  ASP A   1       9.168  -2.626  24.563  0.00  0.00    +0.307 C 
ATOM     11  OD2 ASP A   1       8.375  -3.190  25.306  0.00  0.00    -0.251 OA
BRANCH  10  12
ATOM     12  OD1 ASP A   1      10.202  -3.265  23.987  0.00  0.00    -0.481 OA
ATOM     13  HD1 ASP A   1      10.109  -3.396  23.015  0.00  0.00    +0.295 HD
ENDBRANCH  10  12
ENDBRANCH   9  10
ENDBRANCH   1   9
TORSDOF 6
ENDMDL
