MODEL 1
REMARK VINA RESULT:      -6.6      0.000      0.000
REMARK  Name = 
REMARK  9 active torsions:
REMARK  status: ('A' for Active; 'I' for Inactive)
REMARK    1  A    between atoms: C_2  and  C_33
REMARK    2  A    between atoms: C_3  and  C_5
REMARK    3  A    between atoms: C_9  and  C_11
REMARK    4  A    between atoms: C_21  and  N_27
REMARK    5  A    between atoms: C_28  and  O_29
REMARK    6  A    between atoms: C_28  and  O_30
REMARK    7  A    between atoms: O_30  and  C_31
REMARK    8  A    between atoms: C_31  and  C_32
REMARK    9  A    between atoms: C_36  and  C_39
REMARK                            x       y       z     vdW  Elec       q    Type
REMARK                         _______ _______ _______ _____ _____    ______ ____
ROOT
ATOM      1  C   UNL     1       9.133   0.250  25.045  0.00  0.00    +0.022 C 
ATOM      2  C   UNL     1       8.527  -1.154  25.197  0.00  0.00    -0.000 C 
ATOM      3  C   UNL     1       9.116  -2.231  24.292  0.00  0.00    -0.005 C 
ATOM      4  C   UNL     1       8.286  -3.522  24.447  0.00  0.00    +0.030 C 
ATOM      5  C   UNL     1       8.007  -3.944  25.905  0.00  0.00    +0.112 C 
ATOM      6  C   UNL     1       7.589  -2.781  26.809  0.00  0.00    +0.027 C 
ATOM      7  C   UNL     1       9.066  -1.718  22.844  0.00  0.00    +0.019 C 
ATOM      8  C   UNL     1       9.932  -0.483  22.642  0.00  0.00    +0.105 C 
ATOM      9  C   UNL     1       9.539   0.393  21.483  0.00  0.00    +0.311 C 
ATOM     10  O   UNL     1       9.070   0.019  20.422  0.00  0.00    -0.251 OA
ATOM     11  O   UNL     1       9.917   1.680  21.745  0.00  0.00    -0.461 OA
ATOM     12  C   UNL     1       9.853   1.880  23.155  0.00  0.00    +0.178 C 
ATOM     13  C   UNL     1      10.897   2.884  23.622  0.00  0.00    +0.052 C 
ATOM     14  C   UNL     1       8.545  -1.611  26.662  0.00  0.00    +0.006 C 
ATOM     15  C   UNL     1      10.014   0.499  23.801  0.00  0.00    +0.050 C 
ENDROOT
BRANCH   1  17
ATOM     16  C   UNL     1       6.774   0.946  24.638  0.00  0.00    +0.024 C 
ATOM     17  C   UNL     1       7.961   1.192  25.208  0.00  0.00    -0.021 C 
BRANCH  16  18
ATOM     18  C   UNL     1       5.610   1.825  24.678  0.00  0.00    +0.064 A 
ATOM     19  C   UNL     1       5.013   2.041  25.912  0.00  0.00    +0.028 A 
ATOM     20  C   UNL     1       3.961   2.944  25.999  0.00  0.00    +0.012 A 
ATOM     21  C   UNL     1       3.493   3.601  24.854  0.00  0.00    +0.000 A 
ATOM     22  C   UNL     1       4.128   3.258  23.659  0.00  0.00    +0.120 A 
ATOM     23  N   UNL     1       5.176   2.403  23.544  0.00  0.00    -0.255 NA
BRANCH  21  24
ATOM     24  C   UNL     1       2.426   4.620  24.939  0.00  0.00    -0.014 A 
ATOM     25  C   UNL     1       1.654   4.968  23.816  0.00  0.00    +0.009 A 
ATOM     26  C   UNL     1       0.669   5.960  23.880  0.00  0.00    +0.003 A 
ATOM     27  C   UNL     1       0.443   6.639  25.072  0.00  0.00    +0.038 A 
ATOM     28  C   UNL     1       1.202   6.316  26.186  0.00  0.00    +0.124 A 
ATOM     29  F   UNL     1       1.004   6.977  27.335  0.00  0.00    -0.205 F 
ATOM     30  C   UNL     1       2.174   5.321  26.133  0.00  0.00    +0.047 A 
ENDBRANCH  21  24
ENDBRANCH  16  18
ENDBRANCH   1  17
BRANCH   5  31
ATOM     31  N   UNL     1       6.888  -4.879  25.890  0.00  0.00    -0.213 NA
ATOM     32  C   UNL     1       6.747  -5.800  26.760  0.00  0.00    +0.384 C 
BRANCH  32  33
ATOM     33  O   UNL     1       7.581  -6.064  27.775  0.00  0.00    -0.466 OA
ATOM     34  H   UNL     1       7.725  -5.287  28.322  0.00  0.00    +0.297 HD
ENDBRANCH  32  33
BRANCH  32  35
ATOM     35  O   UNL     1       5.717  -6.669  26.784  0.00  0.00    -0.450 OA
BRANCH  35  36
ATOM     36  C   UNL     1       4.511  -6.237  26.139  0.00  0.00    +0.230 C 
ATOM     37  C   UNL     1       4.352  -7.025  24.853  0.00  0.00    +0.048 C 
ENDBRANCH  35  36
ENDBRANCH  32  35
ENDBRANCH   5  31
TORSDOF 7
ENDMDL
MODEL 2
REMARK VINA RESULT:      -6.5      1.997      2.643
REMARK  Name = 
REMARK  9 active torsions:
REMARK  status: ('A' for Active; 'I' for Inactive)
REMARK    1  A    between atoms: C_2  and  C_33
REMARK    2  A    between atoms: C_3  and  C_5
REMARK    3  A    between atoms: C_9  and  C_11
REMARK    4  A    between atoms: C_21  and  N_27
REMARK    5  A    between atoms: C_28  and  O_29
REMARK    6  A    between atoms: C_28  and  O_30
REMARK    7  A    between atoms: O_30  and  C_31
REMARK    8  A    between atoms: C_31  and  C_32
REMARK    9  A    between atoms: C_36  and  C_39
REMARK                            x       y       z     vdW  Elec       q    Type
REMARK                         _______ _______ _______ _____ _____    ______ ____
ROOT
ATOM      1  C   UNL     1       8.443  -1.249  25.559  0.00  0.00    +0.022 C 
ATOM      2  C   UNL     1       7.478  -2.443  25.488  0.00  0.00    -0.000 C 
ATOM      3  C   UNL     1       8.006  -3.678  24.766  0.00  0.00    -0.005 C 
ATOM      4  C   UNL     1       6.863  -4.706  24.636  0.00  0.00    +0.030 C 
ATOM      5  C   UNL     1       6.073  -4.970  25.936  0.00  0.00    +0.112 C 
ATOM      6  C   UNL     1       5.726  -3.694  26.709  0.00  0.00    +0.027 C 
ATOM      7  C   UNL     1       8.511  -3.244  23.382  0.00  0.00    +0.019 C 
ATOM      8  C   UNL     1       9.687  -2.282  23.477  0.00  0.00    +0.105 C 
ATOM      9  C   UNL     1       9.888  -1.394  22.278  0.00  0.00    +0.311 C 
ATOM     10  O   UNL     1       9.666  -1.689  21.116  0.00  0.00    -0.251 OA
ATOM     11  O   UNL     1      10.491  -0.234  22.674  0.00  0.00    -0.461 OA
ATOM     12  C   UNL     1      10.076   0.047  24.008  0.00  0.00    +0.178 C 
ATOM     13  C   UNL     1      11.161   0.774  24.788  0.00  0.00    +0.052 C 
ATOM     14  C   UNL     1       6.951  -2.815  26.881  0.00  0.00    +0.006 C 
ATOM     15  C   UNL     1       9.680  -1.295  24.636  0.00  0.00    +0.050 C 
ENDROOT
BRANCH   1  17
ATOM     16  C   UNL     1       6.734   0.104  24.350  0.00  0.00    +0.024 C 
ATOM     17  C   UNL     1       7.558  -0.033  25.396  0.00  0.00    -0.021 C 
BRANCH  16  18
ATOM     18  C   UNL     1       5.897   1.268  24.070  0.00  0.00    +0.064 A 
ATOM     19  C   UNL     1       6.235   2.051  22.976  0.00  0.00    +0.028 A 
ATOM     20  C   UNL     1       5.407   3.110  22.628  0.00  0.00    +0.012 A 
ATOM     21  C   UNL     1       4.267   3.400  23.388  0.00  0.00    +0.000 A 
ATOM     22  C   UNL     1       4.063   2.584  24.503  0.00  0.00    +0.120 A 
ATOM     23  N   UNL     1       4.836   1.525  24.853  0.00  0.00    -0.255 NA
BRANCH  21  24
ATOM     24  C   UNL     1       3.334   4.474  22.991  0.00  0.00    -0.014 A 
ATOM     25  C   UNL     1       3.091   5.580  23.825  0.00  0.00    +0.009 A 
ATOM     26  C   UNL     1       2.180   6.582  23.472  0.00  0.00    +0.003 A 
ATOM     27  C   UNL     1       1.477   6.490  22.276  0.00  0.00    +0.038 A 
ATOM     28  C   UNL     1       1.696   5.402  21.446  0.00  0.00    +0.124 A 
ATOM     29  F   UNL     1       1.010   5.296  20.300  0.00  0.00    -0.205 F 
ATOM     30  C   UNL     1       2.612   4.410  21.785  0.00  0.00    +0.047 A 
ENDBRANCH  21  24
ENDBRANCH  16  18
ENDBRANCH   1  17
BRANCH   5  31
ATOM     31  N   UNL     1       4.805  -5.589  25.568  0.00  0.00    -0.213 NA
ATOM     32  C   UNL     1       4.359  -6.637  26.137  0.00  0.00    +0.384 C 
BRANCH  32  33
ATOM     33  O   UNL     1       4.966  -7.329  27.111  0.00  0.00    -0.466 OA
ATOM     34  H   UNL     1       5.681  -7.870  26.764  0.00  0.00    +0.297 HD
ENDBRANCH  32  33
BRANCH  32  35
ATOM     35  O   UNL     1       3.184  -7.224  25.832  0.00  0.00    -0.450 OA
BRANCH  35  36
ATOM     36  C   UNL     1       2.968  -7.522  24.447  0.00  0.00    +0.230 C 
ATOM     37  C   UNL     1       1.825  -8.513  24.347  0.00  0.00    +0.048 C 
ENDBRANCH  35  36
ENDBRANCH  32  35
ENDBRANCH   5  31
TORSDOF 7
ENDMDL
MODEL 3
REMARK VINA RESULT:      -6.5      5.035      9.914
REMARK  Name = 
REMARK  9 active torsions:
REMARK  status: ('A' for Active; 'I' for Inactive)
REMARK    1  A    between atoms: C_2  and  C_33
REMARK    2  A    between atoms: C_3  and  C_5
REMARK    3  A    between atoms: C_9  and  C_11
REMARK    4  A    between atoms: C_21  and  N_27
REMARK    5  A    between atoms: C_28  and  O_29
REMARK    6  A    between atoms: C_28  and  O_30
REMARK    7  A    between atoms: O_30  and  C_31
REMARK    8  A    between atoms: C_31  and  C_32
REMARK    9  A    between atoms: C_36  and  C_39
REMARK                            x       y       z     vdW  Elec       q    Type
REMARK                         _______ _______ _______ _____ _____    ______ ____
ROOT
ATOM      1  C   UNL     1       4.930   4.133  24.975  0.00  0.00    +0.022 C 
ATOM      2  C   UNL     1       6.323   4.706  24.671  0.00  0.00    -0.000 C 
ATOM      3  C   UNL     1       6.363   6.183  24.292  0.00  0.00    -0.005 C 
ATOM      4  C   UNL     1       7.798   6.547  23.856  0.00  0.00    +0.030 C 
ATOM      5  C   UNL     1       8.910   6.066  24.812  0.00  0.00    +0.112 C 
ATOM      6  C   UNL     1       8.716   4.627  25.300  0.00  0.00    +0.027 C 
ATOM      7  C   UNL     1       5.368   6.407  23.142  0.00  0.00    +0.019 C 
ATOM      8  C   UNL     1       3.933   6.123  23.563  0.00  0.00    +0.105 C 
ATOM      9  C   UNL     1       2.993   5.774  22.439  0.00  0.00    +0.311 C 
ATOM     10  O   UNL     1       3.030   6.217  21.304  0.00  0.00    -0.251 OA
ATOM     11  O   UNL     1       1.994   4.977  22.921  0.00  0.00    -0.461 OA
ATOM     12  C   UNL     1       2.526   4.203  23.994  0.00  0.00    +0.178 C 
ATOM     13  C   UNL     1       1.464   3.899  25.040  0.00  0.00    +0.052 C 
ATOM     14  C   UNL     1       7.305   4.416  25.816  0.00  0.00    +0.006 C 
ATOM     15  C   UNL     1       3.716   4.990  24.555  0.00  0.00    +0.050 C 
ENDROOT
BRANCH   1  17
ATOM     16  C   UNL     1       5.758   1.782  24.916  0.00  0.00    +0.024 C 
ATOM     17  C   UNL     1       4.962   2.731  24.406  0.00  0.00    -0.021 C 
BRANCH  16  18
ATOM     18  C   UNL     1       5.911   0.427  24.394  0.00  0.00    +0.064 A 
ATOM     19  C   UNL     1       6.762   0.250  23.312  0.00  0.00    +0.028 A 
ATOM     20  C   UNL     1       7.000  -1.038  22.851  0.00  0.00    +0.012 A 
ATOM     21  C   UNL     1       6.368  -2.135  23.449  0.00  0.00    +0.000 A 
ATOM     22  C   UNL     1       5.485  -1.830  24.487  0.00  0.00    +0.120 A 
ATOM     23  N   UNL     1       5.252  -0.587  24.980  0.00  0.00    -0.255 NA
BRANCH  21  24
ATOM     24  C   UNL     1       6.667  -3.518  23.022  0.00  0.00    -0.014 A 
ATOM     25  C   UNL     1       7.505  -4.355  23.781  0.00  0.00    +0.009 A 
ATOM     26  C   UNL     1       7.823  -5.652  23.363  0.00  0.00    +0.003 A 
ATOM     27  C   UNL     1       7.318  -6.137  22.162  0.00  0.00    +0.038 A 
ATOM     28  C   UNL     1       6.500  -5.323  21.395  0.00  0.00    +0.124 A 
ATOM     29  F   UNL     1       6.023  -5.775  20.228  0.00  0.00    -0.205 F 
ATOM     30  C   UNL     1       6.168  -4.037  21.813  0.00  0.00    +0.047 A 
ENDBRANCH  21  24
ENDBRANCH  16  18
ENDBRANCH   1  17
BRANCH   5  31
ATOM     31  N   UNL     1      10.168   6.087  24.076  0.00  0.00    -0.213 NA
ATOM     32  C   UNL     1      11.272   6.435  24.607  0.00  0.00    +0.384 C 
BRANCH  32  33
ATOM     33  O   UNL     1      11.449   6.844  25.870  0.00  0.00    -0.466 OA
ATOM     34  H   UNL     1      10.610   7.058  26.290  0.00  0.00    +0.297 HD
ENDBRANCH  32  33
BRANCH  32  35
ATOM     35  O   UNL     1      12.455   6.450  23.959  0.00  0.00    -0.450 OA
BRANCH  35  36
ATOM     36  C   UNL     1      12.779   5.271  23.210  0.00  0.00    +0.230 C 
ATOM     37  C   UNL     1      13.493   5.697  21.942  0.00  0.00    +0.048 C 
ENDBRANCH  35  36
ENDBRANCH  32  35
ENDBRANCH   5  31
TORSDOF 7
ENDMDL
MODEL 4
REMARK VINA RESULT:      -6.3      4.833      9.405
REMARK  Name = 
REMARK  9 active torsions:
REMARK  status: ('A' for Active; 'I' for Inactive)
REMARK    1  A    between atoms: C_2  and  C_33
REMARK    2  A    between atoms: C_3  and  C_5
REMARK    3  A    between atoms: C_9  and  C_11
REMARK    4  A    between atoms: C_21  and  N_27
REMARK    5  A    between atoms: C_28  and  O_29
REMARK    6  A    between atoms: C_28  and  O_30
REMARK    7  A    between atoms: O_30  and  C_31
REMARK    8  A    between atoms: C_31  and  C_32
REMARK    9  A    between atoms: C_36  and  C_39
REMARK                            x       y       z     vdW  Elec       q    Type
REMARK                         _______ _______ _______ _____ _____    ______ ____
ROOT
ATOM      1  C   UNL     1       9.300   5.206  23.154  0.00  0.00    +0.022 C 
ATOM      2  C   UNL     1       7.845   5.492  23.558  0.00  0.00    -0.000 C 
ATOM      3  C   UNL     1       7.582   6.871  24.154  0.00  0.00    -0.005 C 
ATOM      4  C   UNL     1       6.125   6.926  24.658  0.00  0.00    +0.030 C 
ATOM      5  C   UNL     1       5.070   6.411  23.657  0.00  0.00    +0.112 C 
ATOM      6  C   UNL     1       5.475   5.110  22.957  0.00  0.00    +0.027 C 
ATOM      7  C   UNL     1       8.570   7.088  25.310  0.00  0.00    +0.019 C 
ATOM      8  C   UNL     1      10.015   7.108  24.833  0.00  0.00    +0.105 C 
ATOM      9  C   UNL     1      11.041   6.760  25.880  0.00  0.00    +0.311 C 
ATOM     10  O   UNL     1      10.976   7.022  27.069  0.00  0.00    -0.251 OA
ATOM     11  O   UNL     1      12.136   6.217  25.271  0.00  0.00    -0.461 OA
ATOM     12  C   UNL     1      11.697   5.529  24.102  0.00  0.00    +0.178 C 
ATOM     13  C   UNL     1      12.753   5.560  23.008  0.00  0.00    +0.052 C 
ATOM     14  C   UNL     1       6.881   5.213  22.396  0.00  0.00    +0.006 C 
ATOM     15  C   UNL     1      10.375   6.182  23.681  0.00  0.00    +0.050 C 
ENDROOT
BRANCH   1  17
ATOM     16  C   UNL     1       8.524   2.855  23.439  0.00  0.00    +0.024 C 
ATOM     17  C   UNL     1       9.516   3.751  23.507  0.00  0.00    -0.021 C 
BRANCH  16  18
ATOM     18  C   UNL     1       8.616   1.450  23.825  0.00  0.00    +0.064 A 
ATOM     19  C   UNL     1       9.532   1.116  24.813  0.00  0.00    +0.028 A 
ATOM     20  C   UNL     1       9.579  -0.195  25.268  0.00  0.00    +0.012 A 
ATOM     21  C   UNL     1       8.737  -1.169  24.718  0.00  0.00    +0.000 A 
ATOM     22  C   UNL     1       7.902  -0.731  23.687  0.00  0.00    +0.120 A 
ATOM     23  N   UNL     1       7.811   0.547  23.239  0.00  0.00    -0.255 NA
BRANCH  21  24
ATOM     24  C   UNL     1       8.719  -2.550  25.240  0.00  0.00    -0.014 A 
ATOM     25  C   UNL     1       9.551  -3.549  24.702  0.00  0.00    +0.009 A 
ATOM     26  C   UNL     1       9.511  -4.868  25.166  0.00  0.00    +0.003 A 
ATOM     27  C   UNL     1       8.623  -5.222  26.176  0.00  0.00    +0.038 A 
ATOM     28  C   UNL     1       7.788  -4.254  26.710  0.00  0.00    +0.124 A 
ATOM     29  F   UNL     1       6.916  -4.590  27.671  0.00  0.00    -0.205 F 
ATOM     30  C   UNL     1       7.833  -2.937  26.263  0.00  0.00    +0.047 A 
ENDBRANCH  21  24
ENDBRANCH  16  18
ENDBRANCH   1  17
BRANCH   5  31
ATOM     31  N   UNL     1       3.853   6.118  24.404  0.00  0.00    -0.213 NA
ATOM     32  C   UNL     1       2.688   6.363  23.951  0.00  0.00    +0.384 C 
BRANCH  32  33
ATOM     33  O   UNL     1       2.401   6.930  22.771  0.00  0.00    -0.466 OA
ATOM     34  H   UNL     1       1.475   7.183  22.720  0.00  0.00    +0.297 HD
ENDBRANCH  32  33
BRANCH  32  35
ATOM     35  O   UNL     1       1.544   6.089  24.609  0.00  0.00    -0.450 OA
BRANCH  35  36
ATOM     36  C   UNL     1       0.590   5.282  23.908  0.00  0.00    +0.230 C 
ATOM     37  C   UNL     1       0.993   3.828  24.064  0.00  0.00    +0.048 C 
ENDBRANCH  35  36
ENDBRANCH  32  35
ENDBRANCH   5  31
TORSDOF 7
ENDMDL
MODEL 5
REMARK VINA RESULT:      -6.1      2.088      2.696
REMARK  Name = 
REMARK  9 active torsions:
REMARK  status: ('A' for Active; 'I' for Inactive)
REMARK    1  A    between atoms: C_2  and  C_33
REMARK    2  A    between atoms: C_3  and  C_5
REMARK    3  A    between atoms: C_9  and  C_11
REMARK    4  A    between atoms: C_21  and  N_27
REMARK    5  A    between atoms: C_28  and  O_29
REMARK    6  A    between atoms: C_28  and  O_30
REMARK    7  A    between atoms: O_30  and  C_31
REMARK    8  A    between atoms: C_31  and  C_32
REMARK    9  A    between atoms: C_36  and  C_39
REMARK                            x       y       z     vdW  Elec       q    Type
REMARK                         _______ _______ _______ _____ _____    ______ ____
ROOT
ATOM      1  C   UNL     1       8.434  -1.635  24.900  0.00  0.00    +0.022 C 
ATOM      2  C   UNL     1       7.360  -2.599  24.369  0.00  0.00    -0.000 C 
ATOM      3  C   UNL     1       7.685  -3.288  23.048  0.00  0.00    -0.005 C 
ATOM      4  C   UNL     1       6.444  -4.076  22.579  0.00  0.00    +0.030 C 
ATOM      5  C   UNL     1       5.789  -4.962  23.658  0.00  0.00    +0.112 C 
ATOM      6  C   UNL     1       5.652  -4.268  25.018  0.00  0.00    +0.027 C 
ATOM      7  C   UNL     1       8.067  -2.207  22.026  0.00  0.00    +0.019 C 
ATOM      8  C   UNL     1       9.329  -1.458  22.427  0.00  0.00    +0.105 C 
ATOM      9  C   UNL     1       9.472  -0.080  21.838  0.00  0.00    +0.311 C 
ATOM     10  O   UNL     1       9.093   0.277  20.736  0.00  0.00    -0.251 OA
ATOM     11  O   UNL     1      10.222   0.692  22.680  0.00  0.00    -0.461 OA
ATOM     12  C   UNL     1       9.990   0.246  24.013  0.00  0.00    +0.178 C 
ATOM     13  C   UNL     1      11.220   0.440  24.887  0.00  0.00    +0.052 C 
ATOM     14  C   UNL     1       6.964  -3.631  25.434  0.00  0.00    +0.006 C 
ATOM     15  C   UNL     1       9.547  -1.218  23.914  0.00  0.00    +0.050 C 
ENDROOT
BRANCH   1  17
ATOM     16  C   UNL     1       6.477  -0.095  25.013  0.00  0.00    +0.024 C 
ATOM     17  C   UNL     1       7.652  -0.495  25.515  0.00  0.00    -0.021 C 
BRANCH  16  18
ATOM     18  C   UNL     1       5.686   1.036  25.491  0.00  0.00    +0.064 A 
ATOM     19  C   UNL     1       5.905   1.466  26.792  0.00  0.00    +0.028 A 
ATOM     20  C   UNL     1       5.236   2.596  27.246  0.00  0.00    +0.012 A 
ATOM     21  C   UNL     1       4.335   3.270  26.414  0.00  0.00    +0.000 A 
ATOM     22  C   UNL     1       4.147   2.709  25.149  0.00  0.00    +0.120 A 
ATOM     23  N   UNL     1       4.805   1.625  24.665  0.00  0.00    -0.255 NA
BRANCH  21  24
ATOM     24  C   UNL     1       3.672   4.515  26.852  0.00  0.00    -0.014 A 
ATOM     25  C   UNL     1       2.591   5.061  26.137  0.00  0.00    +0.009 A 
ATOM     26  C   UNL     1       1.984   6.261  26.524  0.00  0.00    +0.003 A 
ATOM     27  C   UNL     1       2.457   6.952  27.635  0.00  0.00    +0.038 A 
ATOM     28  C   UNL     1       3.528   6.434  28.345  0.00  0.00    +0.124 A 
ATOM     29  F   UNL     1       4.003   7.102  29.406  0.00  0.00    -0.205 F 
ATOM     30  C   UNL     1       4.127   5.234  27.973  0.00  0.00    +0.047 A 
ENDBRANCH  21  24
ENDBRANCH  16  18
ENDBRANCH   1  17
BRANCH   5  31
ATOM     31  N   UNL     1       4.435  -5.274  23.216  0.00  0.00    -0.213 NA
ATOM     32  C   UNL     1       3.861  -6.380  23.480  0.00  0.00    +0.384 C 
BRANCH  32  33
ATOM     33  O   UNL     1       4.392  -7.405  24.160  0.00  0.00    -0.466 OA
ATOM     34  H   UNL     1       3.959  -8.235  23.938  0.00  0.00    +0.297 HD
ENDBRANCH  32  33
BRANCH  32  35
ATOM     35  O   UNL     1       2.606  -6.693  23.099  0.00  0.00    -0.450 OA
BRANCH  35  36
ATOM     36  C   UNL     1       2.026  -7.846  23.724  0.00  0.00    +0.230 C 
ATOM     37  C   UNL     1       1.075  -8.493  22.736  0.00  0.00    +0.048 C 
ENDBRANCH  35  36
ENDBRANCH  32  35
ENDBRANCH   5  31
TORSDOF 7
ENDMDL
MODEL 6
REMARK VINA RESULT:      -6.0      4.178      9.149
REMARK  Name = 
REMARK  9 active torsions:
REMARK  status: ('A' for Active; 'I' for Inactive)
REMARK    1  A    between atoms: C_2  and  C_33
REMARK    2  A    between atoms: C_3  and  C_5
REMARK    3  A    between atoms: C_9  and  C_11
REMARK    4  A    between atoms: C_21  and  N_27
REMARK    5  A    between atoms: C_28  and  O_29
REMARK    6  A    between atoms: C_28  and  O_30
REMARK    7  A    between atoms: O_30  and  C_31
REMARK    8  A    between atoms: C_31  and  C_32
REMARK    9  A    between atoms: C_36  and  C_39
REMARK                            x       y       z     vdW  Elec       q    Type
REMARK                         _______ _______ _______ _____ _____    ______ ____
ROOT
ATOM      1  C   UNL     1       7.926  -0.051  23.075  0.00  0.00    +0.022 C 
ATOM      2  C   UNL     1       7.186   1.285  23.241  0.00  0.00    -0.000 C 
ATOM      3  C   UNL     1       7.819   2.277  24.212  0.00  0.00    -0.005 C 
ATOM      4  C   UNL     1       6.867   3.478  24.389  0.00  0.00    +0.030 C 
ATOM      5  C   UNL     1       6.321   4.075  23.075  0.00  0.00    +0.112 C 
ATOM      6  C   UNL     1       5.864   3.017  22.066  0.00  0.00    +0.027 C 
ATOM      7  C   UNL     1       8.047   1.556  25.550  0.00  0.00    +0.019 C 
ATOM      8  C   UNL     1       9.037   0.408  25.421  0.00  0.00    +0.105 C 
ATOM      9  C   UNL     1       8.913  -0.666  26.470  0.00  0.00    +0.311 C 
ATOM     10  O   UNL     1       8.591  -0.504  27.634  0.00  0.00    -0.251 OA
ATOM     11  O   UNL     1       9.352  -1.851  25.952  0.00  0.00    -0.461 OA
ATOM     12  C   UNL     1       9.079  -1.850  24.553  0.00  0.00    +0.178 C 
ATOM     13  C   UNL     1      10.115  -2.655  23.783  0.00  0.00    +0.052 C 
ATOM     14  C   UNL     1       6.927   1.950  21.882  0.00  0.00    +0.006 C 
ATOM     15  C   UNL     1       9.015  -0.381  24.120  0.00  0.00    +0.050 C 
ENDROOT
BRANCH   1  17
ATOM     16  C   UNL     1       6.179  -1.569  24.002  0.00  0.00    +0.024 C 
ATOM     17  C   UNL     1       6.828  -1.082  22.936  0.00  0.00    -0.021 C 
BRANCH  16  18
ATOM     18  C   UNL     1       5.159  -2.612  23.976  0.00  0.00    +0.064 A 
ATOM     19  C   UNL     1       5.260  -3.583  22.989  0.00  0.00    +0.028 A 
ATOM     20  C   UNL     1       4.359  -4.640  22.993  0.00  0.00    +0.012 A 
ATOM     21  C   UNL     1       3.348  -4.708  23.959  0.00  0.00    +0.000 A 
ATOM     22  C   UNL     1       3.305  -3.643  24.862  0.00  0.00    +0.120 A 
ATOM     23  N   UNL     1       4.186  -2.611  24.903  0.00  0.00    -0.255 NA
BRANCH  21  24
ATOM     24  C   UNL     1       2.428  -5.862  24.026  0.00  0.00    -0.014 A 
ATOM     25  C   UNL     1       1.840  -6.262  25.240  0.00  0.00    +0.009 A 
ATOM     26  C   UNL     1       0.999  -7.377  25.317  0.00  0.00    +0.003 A 
ATOM     27  C   UNL     1       0.738  -8.130  24.177  0.00  0.00    +0.038 A 
ATOM     28  C   UNL     1       1.318  -7.757  22.975  0.00  0.00    +0.124 A 
ATOM     29  F   UNL     1       1.087  -8.487  21.875  0.00  0.00    -0.205 F 
ATOM     30  C   UNL     1       2.144  -6.640  22.889  0.00  0.00    +0.047 A 
ENDBRANCH  21  24
ENDBRANCH  16  18
ENDBRANCH   1  17
BRANCH   5  31
ATOM     31  N   UNL     1       5.144   4.870  23.403  0.00  0.00    -0.213 NA
ATOM     32  C   UNL     1       4.856   5.957  22.804  0.00  0.00    +0.384 C 
BRANCH  32  33
ATOM     33  O   UNL     1       5.570   6.537  21.830  0.00  0.00    -0.466 OA
ATOM     34  H   UNL     1       6.477   6.215  21.821  0.00  0.00    +0.297 HD
ENDBRANCH  32  33
BRANCH  32  35
ATOM     35  O   UNL     1       3.768   6.706  23.073  0.00  0.00    -0.450 OA
BRANCH  35  36
ATOM     36  C   UNL     1       2.507   6.025  23.030  0.00  0.00    +0.230 C 
ATOM     37  C   UNL     1       2.125   5.823  21.576  0.00  0.00    +0.048 C 
ENDBRANCH  35  36
ENDBRANCH  32  35
ENDBRANCH   5  31
TORSDOF 7
ENDMDL
MODEL 7
REMARK VINA RESULT:      -5.9      5.103      8.386
REMARK  Name = 
REMARK  9 active torsions:
REMARK  status: ('A' for Active; 'I' for Inactive)
REMARK    1  A    between atoms: C_2  and  C_33
REMARK    2  A    between atoms: C_3  and  C_5
REMARK    3  A    between atoms: C_9  and  C_11
REMARK    4  A    between atoms: C_21  and  N_27
REMARK    5  A    between atoms: C_28  and  O_29
REMARK    6  A    between atoms: C_28  and  O_30
REMARK    7  A    between atoms: O_30  and  C_31
REMARK    8  A    between atoms: C_31  and  C_32
REMARK    9  A    between atoms: C_36  and  C_39
REMARK                            x       y       z     vdW  Elec       q    Type
REMARK                         _______ _______ _______ _____ _____    ______ ____
ROOT
ATOM      1  C   UNL     1       2.659  -4.066  27.287  0.00  0.00    +0.022 C 
ATOM      2  C   UNL     1       2.284  -5.014  26.137  0.00  0.00    -0.000 C 
ATOM      3  C   UNL     1       2.204  -6.493  26.498  0.00  0.00    -0.005 C 
ATOM      4  C   UNL     1       1.990  -7.310  25.206  0.00  0.00    +0.030 C 
ATOM      5  C   UNL     1       0.877  -6.781  24.279  0.00  0.00    +0.112 C 
ATOM      6  C   UNL     1       0.903  -5.260  24.097  0.00  0.00    +0.027 C 
ATOM      7  C   UNL     1       3.521  -6.889  27.184  0.00  0.00    +0.019 C 
ATOM      8  C   UNL     1       3.727  -6.150  28.499  0.00  0.00    +0.105 C 
ATOM      9  C   UNL     1       5.158  -6.032  28.950  0.00  0.00    +0.311 C 
ATOM     10  O   UNL     1       6.040  -6.856  28.777  0.00  0.00    -0.251 OA
ATOM     11  O   UNL     1       5.296  -4.907  29.713  0.00  0.00    -0.461 OA
ATOM     12  C   UNL     1       4.363  -3.937  29.244  0.00  0.00    +0.178 C 
ATOM     13  C   UNL     1       3.882  -3.036  30.372  0.00  0.00    +0.052 C 
ATOM     14  C   UNL     1       0.995  -4.557  25.439  0.00  0.00    +0.006 C 
ATOM     15  C   UNL     1       3.226  -4.714  28.568  0.00  0.00    +0.050 C 
ENDROOT
BRANCH   1  17
ATOM     16  C   UNL     1       4.417  -3.328  25.680  0.00  0.00    +0.024 C 
ATOM     17  C   UNL     1       3.542  -3.018  26.645  0.00  0.00    -0.021 C 
BRANCH  16  18
ATOM     18  C   UNL     1       5.358  -2.405  25.053  0.00  0.00    +0.064 A 
ATOM     19  C   UNL     1       5.207  -1.053  25.327  0.00  0.00    +0.028 A 
ATOM     20  C   UNL     1       6.140  -0.158  24.820  0.00  0.00    +0.012 A 
ATOM     21  C   UNL     1       7.198  -0.611  24.022  0.00  0.00    +0.000 A 
ATOM     22  C   UNL     1       7.212  -1.982  23.761  0.00  0.00    +0.120 A 
ATOM     23  N   UNL     1       6.333  -2.887  24.264  0.00  0.00    -0.255 NA
BRANCH  21  24
ATOM     24  C   UNL     1       8.242   0.315  23.537  0.00  0.00    -0.014 A 
ATOM     25  C   UNL     1       8.070   1.062  22.358  0.00  0.00    +0.009 A 
ATOM     26  C   UNL     1       9.071   1.911  21.872  0.00  0.00    +0.003 A 
ATOM     27  C   UNL     1      10.278   2.021  22.552  0.00  0.00    +0.038 A 
ATOM     28  C   UNL     1      10.470   1.284  23.710  0.00  0.00    +0.124 A 
ATOM     29  F   UNL     1      11.637   1.369  24.363  0.00  0.00    -0.205 F 
ATOM     30  C   UNL     1       9.473   0.449  24.206  0.00  0.00    +0.047 A 
ENDBRANCH  21  24
ENDBRANCH  16  18
ENDBRANCH   1  17
BRANCH   5  31
ATOM     31  N   UNL     1       1.088  -7.359  22.956  0.00  0.00    -0.213 NA
ATOM     32  C   UNL     1       0.866  -8.586  22.696  0.00  0.00    +0.384 C 
BRANCH  32  33
ATOM     33  O   UNL     1       0.443  -9.515  23.564  0.00  0.00    -0.466 OA
ATOM     34  H   UNL     1       0.765 -10.390  23.325  0.00  0.00    +0.297 HD
ENDBRANCH  32  33
BRANCH  32  35
ATOM     35  O   UNL     1       1.036  -9.147  21.482  0.00  0.00    -0.450 OA
BRANCH  35  36
ATOM     36  C   UNL     1       1.135  -8.240  20.376  0.00  0.00    +0.230 C 
ATOM     37  C   UNL     1       1.888  -8.935  19.258  0.00  0.00    +0.048 C 
ENDBRANCH  35  36
ENDBRANCH  32  35
ENDBRANCH   5  31
TORSDOF 7
ENDMDL
MODEL 8
REMARK VINA RESULT:      -5.8      2.959      6.444
REMARK  Name = 
REMARK  9 active torsions:
REMARK  status: ('A' for Active; 'I' for Inactive)
REMARK    1  A    between atoms: C_2  and  C_33
REMARK    2  A    between atoms: C_3  and  C_5
REMARK    3  A    between atoms: C_9  and  C_11
REMARK    4  A    between atoms: C_21  and  N_27
REMARK    5  A    between atoms: C_28  and  O_29
REMARK    6  A    between atoms: C_28  and  O_30
REMARK    7  A    between atoms: O_30  and  C_31
REMARK    8  A    between atoms: C_31  and  C_32
REMARK    9  A    between atoms: C_36  and  C_39
REMARK                            x       y       z     vdW  Elec       q    Type
REMARK                         _______ _______ _______ _____ _____    ______ ____
ROOT
ATOM      1  C   UNL     1       5.447  -3.911  24.407  0.00  0.00    +0.022 C 
ATOM      2  C   UNL     1       6.777  -3.210  24.089  0.00  0.00    -0.000 C 
ATOM      3  C   UNL     1       8.030  -4.064  24.248  0.00  0.00    -0.005 C 
ATOM      4  C   UNL     1       9.272  -3.168  24.060  0.00  0.00    +0.030 C 
ATOM      5  C   UNL     1       9.233  -2.254  22.818  0.00  0.00    +0.112 C 
ATOM      6  C   UNL     1       7.883  -1.559  22.613  0.00  0.00    +0.027 C 
ATOM      7  C   UNL     1       8.010  -4.684  25.654  0.00  0.00    +0.019 C 
ATOM      8  C   UNL     1       6.833  -5.630  25.847  0.00  0.00    +0.105 C 
ATOM      9  C   UNL     1       6.408  -5.840  27.275  0.00  0.00    +0.311 C 
ATOM     10  O   UNL     1       7.138  -5.858  28.251  0.00  0.00    -0.251 OA
ATOM     11  O   UNL     1       5.077  -6.147  27.306  0.00  0.00    -0.461 OA
ATOM     12  C   UNL     1       4.445  -5.488  26.212  0.00  0.00    +0.178 C 
ATOM     13  C   UNL     1       3.259  -6.285  25.690  0.00  0.00    +0.052 C 
ATOM     14  C   UNL     1       6.742  -2.556  22.700  0.00  0.00    +0.006 C 
ATOM     15  C   UNL     1       5.530  -5.260  25.152  0.00  0.00    +0.050 C 
ENDROOT
BRANCH   1  17
ATOM     16  C   UNL     1       5.142  -1.962  25.931  0.00  0.00    +0.024 C 
ATOM     17  C   UNL     1       4.607  -2.848  25.081  0.00  0.00    -0.021 C 
BRANCH  16  18
ATOM     18  C   UNL     1       4.405  -0.949  26.682  0.00  0.00    +0.064 A 
ATOM     19  C   UNL     1       5.142   0.046  27.308  0.00  0.00    +0.028 A 
ATOM     20  C   UNL     1       4.467   1.075  27.953  0.00  0.00    +0.012 A 
ATOM     21  C   UNL     1       3.068   1.090  27.995  0.00  0.00    +0.000 A 
ATOM     22  C   UNL     1       2.435   0.004  27.385  0.00  0.00    +0.120 A 
ATOM     23  N   UNL     1       3.063  -1.001  26.723  0.00  0.00    -0.255 NA
BRANCH  21  24
ATOM     24  C   UNL     1       2.332   2.214  28.609  0.00  0.00    -0.014 A 
ATOM     25  C   UNL     1       1.167   2.000  29.367  0.00  0.00    +0.009 A 
ATOM     26  C   UNL     1       0.443   3.063  29.919  0.00  0.00    +0.003 A 
ATOM     27  C   UNL     1       0.865   4.371  29.712  0.00  0.00    +0.038 A 
ATOM     28  C   UNL     1       2.006   4.602  28.959  0.00  0.00    +0.124 A 
ATOM     29  F   UNL     1       2.410   5.860  28.738  0.00  0.00    -0.205 F 
ATOM     30  C   UNL     1       2.738   3.547  28.419  0.00  0.00    +0.047 A 
ENDBRANCH  21  24
ENDBRANCH  16  18
ENDBRANCH   1  17
BRANCH   5  31
ATOM     31  N   UNL     1      10.217  -1.196  23.013  0.00  0.00    -0.213 NA
ATOM     32  C   UNL     1      10.153  -0.362  23.973  0.00  0.00    +0.384 C 
BRANCH  32  33
ATOM     33  O   UNL     1       9.197  -0.306  24.911  0.00  0.00    -0.466 OA
ATOM     34  H   UNL     1       9.212   0.534  25.378  0.00  0.00    +0.297 HD
ENDBRANCH  32  33
BRANCH  32  35
ATOM     35  O   UNL     1      11.054   0.617  24.190  0.00  0.00    -0.450 OA
BRANCH  35  36
ATOM     36  C   UNL     1      10.571   1.960  24.063  0.00  0.00    +0.230 C 
ATOM     37  C   UNL     1      10.232   2.207  22.606  0.00  0.00    +0.048 C 
ENDBRANCH  35  36
ENDBRANCH  32  35
ENDBRANCH   5  31
TORSDOF 7
ENDMDL
MODEL 9
REMARK VINA RESULT:      -5.7      4.918      9.492
REMARK  Name = 
REMARK  9 active torsions:
REMARK  status: ('A' for Active; 'I' for Inactive)
REMARK    1  A    between atoms: C_2  and  C_33
REMARK    2  A    between atoms: C_3  and  C_5
REMARK    3  A    between atoms: C_9  and  C_11
REMARK    4  A    between atoms: C_21  and  N_27
REMARK    5  A    between atoms: C_28  and  O_29
REMARK    6  A    between atoms: C_28  and  O_30
REMARK    7  A    between atoms: O_30  and  C_31
REMARK    8  A    between atoms: C_31  and  C_32
REMARK    9  A    between atoms: C_36  and  C_39
REMARK                            x       y       z     vdW  Elec       q    Type
REMARK                         _______ _______ _______ _____ _____    ______ ____
ROOT
ATOM      1  C   UNL     1       9.179   5.156  23.276  0.00  0.00    +0.022 C 
ATOM      2  C   UNL     1       7.847   5.545  23.938  0.00  0.00    -0.000 C 
ATOM      3  C   UNL     1       7.791   6.945  24.540  0.00  0.00    -0.005 C 
ATOM      4  C   UNL     1       6.461   7.106  25.305  0.00  0.00    +0.030 C 
ATOM      5  C   UNL     1       5.205   6.654  24.531  0.00  0.00    +0.112 C 
ATOM      6  C   UNL     1       5.386   5.321  23.799  0.00  0.00    +0.027 C 
ATOM      7  C   UNL     1       8.991   7.107  25.486  0.00  0.00    +0.019 C 
ATOM      8  C   UNL     1      10.319   7.023  24.748  0.00  0.00    +0.105 C 
ATOM      9  C   UNL     1      11.497   6.617  25.592  0.00  0.00    +0.311 C 
ATOM     10  O   UNL     1      11.674   6.896  26.766  0.00  0.00    -0.251 OA
ATOM     11  O   UNL     1      12.421   5.993  24.803  0.00  0.00    -0.461 OA
ATOM     12  C   UNL     1      11.726   5.324  23.753  0.00  0.00    +0.178 C 
ATOM     13  C   UNL     1      12.558   5.270  22.481  0.00  0.00    +0.052 C 
ATOM     14  C   UNL     1       6.665   5.320  22.983  0.00  0.00    +0.006 C 
ATOM     15  C   UNL     1      10.394   6.061  23.570  0.00  0.00    +0.050 C 
ENDROOT
BRANCH   1  17
ATOM     16  C   UNL     1       8.964   2.721  22.788  0.00  0.00    +0.024 C 
ATOM     17  C   UNL     1       9.361   3.694  23.618  0.00  0.00    -0.021 C 
BRANCH  16  18
ATOM     18  C   UNL     1       9.032   1.288  23.059  0.00  0.00    +0.064 A 
ATOM     19  C   UNL     1       9.024   0.886  24.387  0.00  0.00    +0.028 A 
ATOM     20  C   UNL     1       8.995  -0.472  24.676  0.00  0.00    +0.012 A 
ATOM     21  C   UNL     1       9.004  -1.419  23.645  0.00  0.00    +0.000 A 
ATOM     22  C   UNL     1       9.078  -0.899  22.351  0.00  0.00    +0.120 A 
ATOM     23  N   UNL     1       9.079   0.421  22.033  0.00  0.00    -0.255 NA
BRANCH  21  24
ATOM     24  C   UNL     1       8.897  -2.864  23.930  0.00  0.00    -0.014 A 
ATOM     25  C   UNL     1       7.844  -3.638  23.411  0.00  0.00    +0.009 A 
ATOM     26  C   UNL     1       7.715  -4.999  23.710  0.00  0.00    +0.003 A 
ATOM     27  C   UNL     1       8.636  -5.616  24.549  0.00  0.00    +0.038 A 
ATOM     28  C   UNL     1       9.674  -4.866  25.079  0.00  0.00    +0.124 A 
ATOM     29  F   UNL     1      10.556  -5.448  25.903  0.00  0.00    -0.205 F 
ATOM     30  C   UNL     1       9.816  -3.515  24.774  0.00  0.00    +0.047 A 
ENDBRANCH  21  24
ENDBRANCH  16  18
ENDBRANCH   1  17
BRANCH   5  31
ATOM     31  N   UNL     1       4.134   6.453  25.499  0.00  0.00    -0.213 NA
ATOM     32  C   UNL     1       4.204   5.595  26.437  0.00  0.00    +0.384 C 
BRANCH  32  33
ATOM     33  O   UNL     1       5.222   4.754  26.667  0.00  0.00    -0.466 OA
ATOM     34  H   UNL     1       5.843   5.120  27.304  0.00  0.00    +0.297 HD
ENDBRANCH  32  33
BRANCH  32  35
ATOM     35  O   UNL     1       3.239   5.396  27.357  0.00  0.00    -0.450 OA
BRANCH  35  36
ATOM     36  C   UNL     1       3.554   5.791  28.699  0.00  0.00    +0.230 C 
ATOM     37  C   UNL     1       2.389   6.595  29.243  0.00  0.00    +0.048 C 
ENDBRANCH  35  36
ENDBRANCH  32  35
ENDBRANCH   5  31
TORSDOF 7
ENDMDL
