MODEL 1
REMARK VINA RESULT:      -8.1      0.000      0.000
REMARK  Name = 
REMARK  5 active torsions:
REMARK  status: ('A' for Active; 'I' for Inactive)
REMARK    1  A    between atoms: C_2  and  C_4
REMARK    2  A    between atoms: C_7  and  C_8
REMARK    3  A    between atoms: C_8  and  N_9
REMARK    4  A    between atoms: N_12  and  S_16
REMARK    5  A    between atoms: S_16  and  C_19
REMARK                            x       y       z     vdW  Elec       q    Type
REMARK                         _______ _______ _______ _____ _____    ______ ____
ROOT
ATOM      1  N   UNL     1       9.241  -1.015  24.368  0.00  0.00    -0.295 N 
ATOM      2  C   UNL     1       9.524  -1.618  23.142  0.00  0.00    +0.232 C 
ATOM      3  O   UNL     1      10.550  -1.378  22.505  0.00  0.00    -0.274 OA
ATOM      4  C   UNL     1       8.415  -2.468  22.528  0.00  0.00    +0.205 C 
ATOM      5  N   UNL     1       7.554  -3.186  23.503  0.00  0.00    -0.166 NA
ATOM      6  C   UNL     1       7.064  -2.234  24.535  0.00  0.00    +0.129 C 
ATOM      7  C   UNL     1       8.214  -1.540  25.261  0.00  0.00    +0.125 C 
ENDROOT
BRANCH   5   8
ATOM      8  S   UNL     1       8.239  -4.647  24.036  0.00  0.00    +0.068 S 
ATOM      9  O   UNL     1       9.512  -4.347  24.659  0.00  0.00    -0.152 OA
ATOM     10  O   UNL     1       8.138  -5.624  22.973  0.00  0.00    -0.152 OA
BRANCH   8  11
ATOM     11  C   UNL     1       7.235  -5.254  25.364  0.00  0.00    +0.144 A 
ATOM     12  S   UNL     1       5.689  -5.830  24.945  0.00  0.00    -0.068 S 
ATOM     13  C   UNL     1       5.223  -5.993  26.594  0.00  0.00    +0.023 A 
ATOM     14  C   UNL     1       3.961  -6.383  27.080  0.00  0.00    +0.035 A 
ATOM     15  C   UNL     1       3.769  -6.441  28.460  0.00  0.00    +0.042 A 
ATOM     16  C   UNL     1       4.797  -6.134  29.341  0.00  0.00    +0.020 A 
ATOM     17  C   UNL     1       6.050  -5.755  28.851  0.00  0.00    +0.010 A 
ATOM     18 CL   UNL     1       2.228  -6.893  29.079  0.00  0.00    -0.084 Cl
ATOM     19  C   UNL     1       6.275  -5.674  27.457  0.00  0.00    -0.009 A 
ATOM     20  C   UNL     1       7.441  -5.278  26.727  0.00  0.00    +0.045 A 
ENDBRANCH   8  11
ENDBRANCH   5   8
BRANCH   1  21
ATOM     21  C   UNL     1      10.197  -0.074  24.933  0.00  0.00    +0.143 C 
BRANCH  21  25
ATOM     22  C   UNL     1       9.665   4.081  23.871  0.00  0.00    +0.065 A 
ATOM     23  C   UNL     1      10.772   3.373  23.397  0.00  0.00    +0.016 A 
ATOM     24  C   UNL     1      10.917   2.018  23.702  0.00  0.00    +0.006 A 
ATOM     25  C   UNL     1       9.953   1.348  24.473  0.00  0.00    -0.030 A 
ATOM     26  C   UNL     1       8.808   2.048  24.878  0.00  0.00    +0.006 A 
ATOM     27  C   UNL     1       8.666   3.409  24.583  0.00  0.00    +0.016 A 
BRANCH  22  31
ATOM     28  N   UNL     1       8.758   6.076  22.717  0.00  0.00    -0.247 N 
ATOM     29  H   UNL     1       7.947   5.505  22.502  0.00  0.00    +0.288 HD
ATOM     30  H   UNL     1       8.494   7.044  22.859  0.00  0.00    +0.288 HD
ATOM     31  C   UNL     1       9.595   5.556  23.665  0.00  0.00    +0.308 C 
ATOM     32  N   UNL     1      10.296   6.343  24.413  0.00  0.00    -0.099 NA
ATOM     33  H   UNL     1      10.146   7.313  24.134  0.00  0.00    +0.363 HD
ENDBRANCH  22  31
ENDBRANCH  21  25
ENDBRANCH   1  21
TORSDOF 5
ENDMDL
MODEL 2
REMARK VINA RESULT:      -7.9      2.102      2.748
REMARK  Name = 
REMARK  5 active torsions:
REMARK  status: ('A' for Active; 'I' for Inactive)
REMARK    1  A    between atoms: C_2  and  C_4
REMARK    2  A    between atoms: C_7  and  C_8
REMARK    3  A    between atoms: C_8  and  N_9
REMARK    4  A    between atoms: N_12  and  S_16
REMARK    5  A    between atoms: S_16  and  C_19
REMARK                            x       y       z     vdW  Elec       q    Type
REMARK                         _______ _______ _______ _____ _____    ______ ____
ROOT
ATOM      1  N   UNL     1       8.776  -0.966  24.151  0.00  0.00    -0.295 N 
ATOM      2  C   UNL     1       9.223  -1.746  23.084  0.00  0.00    +0.232 C 
ATOM      3  O   UNL     1      10.399  -1.761  22.719  0.00  0.00    -0.274 OA
ATOM      4  C   UNL     1       8.151  -2.457  22.263  0.00  0.00    +0.205 C 
ATOM      5  N   UNL     1       6.956  -2.898  23.027  0.00  0.00    -0.166 NA
ATOM      6  C   UNL     1       6.428  -1.764  23.832  0.00  0.00    +0.129 C 
ATOM      7  C   UNL     1       7.481  -1.200  24.781  0.00  0.00    +0.125 C 
ENDROOT
BRANCH   5   8
ATOM      8  S   UNL     1       7.193  -4.385  23.817  0.00  0.00    +0.068 S 
ATOM      9  O   UNL     1       7.552  -4.112  25.193  0.00  0.00    -0.152 OA
ATOM     10  O   UNL     1       8.019  -5.230  22.981  0.00  0.00    -0.152 OA
BRANCH   8  11
ATOM     11  C   UNL     1       5.616  -5.186  23.928  0.00  0.00    +0.144 A 
ATOM     12  S   UNL     1       5.358  -6.167  25.295  0.00  0.00    -0.068 S 
ATOM     13  C   UNL     1       3.873  -6.775  24.670  0.00  0.00    +0.023 A 
ATOM     14  C   UNL     1       3.051  -7.757  25.252  0.00  0.00    +0.035 A 
ATOM     15  C   UNL     1       1.888  -8.132  24.582  0.00  0.00    +0.042 A 
ATOM     16  C   UNL     1       1.535  -7.547  23.373  0.00  0.00    +0.020 A 
ATOM     17  C   UNL     1       2.353  -6.567  22.804  0.00  0.00    +0.010 A 
ATOM     18 CL   UNL     1       0.876  -9.348  25.262  0.00  0.00    -0.084 Cl
ATOM     19  C   UNL     1       3.547  -6.172  23.452  0.00  0.00    -0.009 A 
ATOM     20  C   UNL     1       4.551  -5.232  23.054  0.00  0.00    +0.045 A 
ENDBRANCH   8  11
ENDBRANCH   5   8
BRANCH   1  21
ATOM     21  C   UNL     1       9.732  -0.146  24.880  0.00  0.00    +0.143 C 
BRANCH  21  25
ATOM     22  C   UNL     1       9.839   4.057  23.879  0.00  0.00    +0.065 A 
ATOM     23  C   UNL     1      10.801   3.189  23.358  0.00  0.00    +0.016 A 
ATOM     24  C   UNL     1      10.737   1.823  23.645  0.00  0.00    +0.006 A 
ATOM     25  C   UNL     1       9.705   1.304  24.443  0.00  0.00    -0.030 A 
ATOM     26  C   UNL     1       8.701   2.173  24.896  0.00  0.00    +0.006 A 
ATOM     27  C   UNL     1       8.770   3.543  24.620  0.00  0.00    +0.016 A 
BRANCH  22  31
ATOM     28  N   UNL     1      11.066   6.176  24.250  0.00  0.00    -0.247 N 
ATOM     29  H   UNL     1      11.888   5.601  24.400  0.00  0.00    +0.288 HD
ATOM     30  H   UNL     1      11.312   7.057  23.814  0.00  0.00    +0.288 HD
ATOM     31  C   UNL     1      10.001   5.527  23.690  0.00  0.00    +0.308 C 
ATOM     32  N   UNL     1       9.156   6.178  22.961  0.00  0.00    -0.099 NA
ATOM     33  H   UNL     1       9.399   7.169  22.946  0.00  0.00    +0.363 HD
ENDBRANCH  22  31
ENDBRANCH  21  25
ENDBRANCH   1  21
TORSDOF 5
ENDMDL
MODEL 3
REMARK VINA RESULT:      -7.8      4.263      9.506
REMARK  Name = 
REMARK  5 active torsions:
REMARK  status: ('A' for Active; 'I' for Inactive)
REMARK    1  A    between atoms: C_2  and  C_4
REMARK    2  A    between atoms: C_7  and  C_8
REMARK    3  A    between atoms: C_8  and  N_9
REMARK    4  A    between atoms: N_12  and  S_16
REMARK    5  A    between atoms: S_16  and  C_19
REMARK                            x       y       z     vdW  Elec       q    Type
REMARK                         _______ _______ _______ _____ _____    ______ ____
ROOT
ATOM      1  N   UNL     1       7.724  -4.110  25.500  0.00  0.00    -0.295 N 
ATOM      2  C   UNL     1       8.795  -4.244  24.616  0.00  0.00    +0.232 C 
ATOM      3  O   UNL     1       9.128  -5.329  24.135  0.00  0.00    -0.274 OA
ATOM      4  C   UNL     1       9.659  -3.006  24.398  0.00  0.00    +0.205 C 
ATOM      5  N   UNL     1       8.937  -1.710  24.464  0.00  0.00    -0.166 NA
ATOM      6  C   UNL     1       8.124  -1.651  25.708  0.00  0.00    +0.129 C 
ATOM      7  C   UNL     1       7.135  -2.809  25.797  0.00  0.00    +0.125 C 
ENDROOT
BRANCH   5   8
ATOM      8  S   UNL     1       8.173  -1.308  23.000  0.00  0.00    +0.068 S 
ATOM      9  O   UNL     1       6.764  -1.620  23.127  0.00  0.00    -0.152 OA
ATOM     10  O   UNL     1       8.960  -1.832  21.904  0.00  0.00    -0.152 OA
BRANCH   8  11
ATOM     11  C   UNL     1       8.216   0.457  22.843  0.00  0.00    +0.144 A 
ATOM     12  S   UNL     1       9.492   1.258  23.635  0.00  0.00    -0.068 S 
ATOM     13  C   UNL     1       8.819   2.809  23.307  0.00  0.00    +0.023 A 
ATOM     14  C   UNL     1       9.313   4.052  23.741  0.00  0.00    +0.035 A 
ATOM     15  C   UNL     1       8.615   5.206  23.384  0.00  0.00    +0.042 A 
ATOM     16  C   UNL     1       7.464   5.138  22.611  0.00  0.00    +0.020 A 
ATOM     17  C   UNL     1       6.982   3.899  22.178  0.00  0.00    +0.010 A 
ATOM     18 CL   UNL     1       9.188   6.738  23.921  0.00  0.00    -0.084 Cl
ATOM     19  C   UNL     1       7.660   2.709  22.532  0.00  0.00    -0.009 A 
ATOM     20  C   UNL     1       7.344   1.342  22.247  0.00  0.00    +0.045 A 
ENDBRANCH   8  11
ENDBRANCH   5   8
BRANCH   1  21
ATOM     21  C   UNL     1       6.953  -5.290  25.865  0.00  0.00    +0.143 C 
BRANCH  21  25
ATOM     22  C   UNL     1       3.322  -5.961  23.620  0.00  0.00    +0.065 A 
ATOM     23  C   UNL     1       3.269  -5.806  25.007  0.00  0.00    +0.016 A 
ATOM     24  C   UNL     1       4.437  -5.542  25.725  0.00  0.00    +0.006 A 
ATOM     25  C   UNL     1       5.672  -5.416  25.067  0.00  0.00    -0.030 A 
ATOM     26  C   UNL     1       5.701  -5.495  23.668  0.00  0.00    +0.006 A 
ATOM     27  C   UNL     1       4.534  -5.771  22.947  0.00  0.00    +0.016 A 
BRANCH  22  31
ATOM     28  N   UNL     1       1.926  -7.701  22.545  0.00  0.00    -0.247 N 
ATOM     29  H   UNL     1       2.399  -8.365  23.149  0.00  0.00    +0.288 HD
ATOM     30  H   UNL     1       0.967  -7.982  22.378  0.00  0.00    +0.288 HD
ATOM     31  C   UNL     1       2.098  -6.388  22.883  0.00  0.00    +0.308 C 
ATOM     32  N   UNL     1       1.181  -5.521  22.603  0.00  0.00    -0.099 NA
ATOM     33  H   UNL     1       0.423  -5.969  22.089  0.00  0.00    +0.363 HD
ENDBRANCH  22  31
ENDBRANCH  21  25
ENDBRANCH   1  21
TORSDOF 5
ENDMDL
MODEL 4
REMARK VINA RESULT:      -7.8      4.136      9.700
REMARK  Name = 
REMARK  5 active torsions:
REMARK  status: ('A' for Active; 'I' for Inactive)
REMARK    1  A    between atoms: C_2  and  C_4
REMARK    2  A    between atoms: C_7  and  C_8
REMARK    3  A    between atoms: C_8  and  N_9
REMARK    4  A    between atoms: N_12  and  S_16
REMARK    5  A    between atoms: S_16  and  C_19
REMARK                            x       y       z     vdW  Elec       q    Type
REMARK                         _______ _______ _______ _____ _____    ______ ____
ROOT
ATOM      1  N   UNL     1       7.107  -3.946  24.334  0.00  0.00    -0.295 N 
ATOM      2  C   UNL     1       8.423  -4.352  24.105  0.00  0.00    +0.232 C 
ATOM      3  O   UNL     1       8.714  -5.500  23.766  0.00  0.00    -0.274 OA
ATOM      4  C   UNL     1       9.517  -3.352  24.464  0.00  0.00    +0.205 C 
ATOM      5  N   UNL     1       9.160  -1.924  24.268  0.00  0.00    -0.166 NA
ATOM      6  C   UNL     1       7.859  -1.637  24.930  0.00  0.00    +0.129 C 
ATOM      7  C   UNL     1       6.743  -2.535  24.404  0.00  0.00    +0.125 C 
ENDROOT
BRANCH   5   8
ATOM      8  S   UNL     1       9.359  -1.410  22.660  0.00  0.00    +0.068 S 
ATOM      9  O   UNL     1       8.251  -1.924  21.882  0.00  0.00    -0.152 OA
ATOM     10  O   UNL     1      10.730  -1.650  22.261  0.00  0.00    -0.152 OA
BRANCH   8  11
ATOM     11  C   UNL     1       9.135   0.348  22.630  0.00  0.00    +0.144 A 
ATOM     12  S   UNL     1      10.258   1.272  23.514  0.00  0.00    -0.068 S 
ATOM     13  C   UNL     1       9.362   2.723  23.279  0.00  0.00    +0.023 A 
ATOM     14  C   UNL     1       9.652   3.991  23.813  0.00  0.00    +0.035 A 
ATOM     15  C   UNL     1       8.792   5.049  23.520  0.00  0.00    +0.042 A 
ATOM     16  C   UNL     1       7.678   4.865  22.712  0.00  0.00    +0.020 A 
ATOM     17  C   UNL     1       7.399   3.604  22.178  0.00  0.00    +0.010 A 
ATOM     18 CL   UNL     1       9.113   6.606  24.181  0.00  0.00    -0.084 Cl
ATOM     19  C   UNL     1       8.245   2.507  22.466  0.00  0.00    -0.009 A 
ATOM     20  C   UNL     1       8.148   1.133  22.074  0.00  0.00    +0.045 A 
ENDBRANCH   8  11
ENDBRANCH   5   8
BRANCH   1  21
ATOM     21  C   UNL     1       6.027  -4.904  24.154  0.00  0.00    +0.143 C 
BRANCH  21  25
ATOM     22  C   UNL     1       4.642  -6.619  27.871  0.00  0.00    +0.065 A 
ATOM     23  C   UNL     1       4.157  -7.102  26.654  0.00  0.00    +0.016 A 
ATOM     24  C   UNL     1       4.642  -6.579  25.453  0.00  0.00    +0.006 A 
ATOM     25  C   UNL     1       5.625  -5.577  25.450  0.00  0.00    -0.030 A 
ATOM     26  C   UNL     1       6.161  -5.154  26.675  0.00  0.00    +0.006 A 
ATOM     27  C   UNL     1       5.669  -5.668  27.880  0.00  0.00    +0.016 A 
BRANCH  22  31
ATOM     28  N   UNL     1       2.780  -7.664  29.125  0.00  0.00    -0.247 N 
ATOM     29  H   UNL     1       2.540  -8.131  28.256  0.00  0.00    +0.288 HD
ATOM     30  H   UNL     1       2.570  -8.251  29.923  0.00  0.00    +0.288 HD
ATOM     31  C   UNL     1       4.014  -7.077  29.143  0.00  0.00    +0.308 C 
ATOM     32  N   UNL     1       4.658  -6.956  30.257  0.00  0.00    -0.099 NA
ATOM     33  H   UNL     1       4.087  -7.301  31.029  0.00  0.00    +0.363 HD
ENDBRANCH  22  31
ENDBRANCH  21  25
ENDBRANCH   1  21
TORSDOF 5
ENDMDL
MODEL 5
REMARK VINA RESULT:      -7.6      4.323     10.090
REMARK  Name = 
REMARK  5 active torsions:
REMARK  status: ('A' for Active; 'I' for Inactive)
REMARK    1  A    between atoms: C_2  and  C_4
REMARK    2  A    between atoms: C_7  and  C_8
REMARK    3  A    between atoms: C_8  and  N_9
REMARK    4  A    between atoms: N_12  and  S_16
REMARK    5  A    between atoms: S_16  and  C_19
REMARK                            x       y       z     vdW  Elec       q    Type
REMARK                         _______ _______ _______ _____ _____    ______ ____
ROOT
ATOM      1  N   UNL     1       7.040  -3.929  24.487  0.00  0.00    -0.295 N 
ATOM      2  C   UNL     1       6.575  -2.660  24.836  0.00  0.00    +0.232 C 
ATOM      3  O   UNL     1       6.064  -2.418  25.931  0.00  0.00    -0.274 OA
ATOM      4  C   UNL     1       6.566  -1.610  23.730  0.00  0.00    +0.205 C 
ATOM      5  N   UNL     1       7.662  -1.727  22.736  0.00  0.00    -0.166 NA
ATOM      6  C   UNL     1       7.728  -3.122  22.223  0.00  0.00    +0.129 C 
ATOM      7  C   UNL     1       7.929  -4.132  23.349  0.00  0.00    +0.125 C 
ENDROOT
BRANCH   5   8
ATOM      8  S   UNL     1       9.110  -1.010  23.264  0.00  0.00    +0.068 S 
ATOM      9  O   UNL     1      10.158  -1.369  22.331  0.00  0.00    -0.152 OA
ATOM     10  O   UNL     1       9.257  -1.250  24.684  0.00  0.00    -0.152 OA
BRANCH   8  11
ATOM     11  C   UNL     1       8.938   0.743  23.073  0.00  0.00    +0.144 A 
ATOM     12  S   UNL     1      10.015   1.714  23.967  0.00  0.00    -0.068 S 
ATOM     13  C   UNL     1       9.180   3.158  23.542  0.00  0.00    +0.023 A 
ATOM     14  C   UNL     1       9.464   4.461  23.993  0.00  0.00    +0.035 A 
ATOM     15  C   UNL     1       8.660   5.508  23.547  0.00  0.00    +0.042 A 
ATOM     16  C   UNL     1       7.608   5.282  22.669  0.00  0.00    +0.020 A 
ATOM     17  C   UNL     1       7.336   3.987  22.219  0.00  0.00    +0.010 A 
ATOM     18 CL   UNL     1       8.972   7.108  24.102  0.00  0.00    -0.084 Cl
ATOM     19  C   UNL     1       8.126   2.900  22.662  0.00  0.00    -0.009 A 
ATOM     20  C   UNL     1       8.021   1.501  22.377  0.00  0.00    +0.045 A 
ENDBRANCH   8  11
ENDBRANCH   5   8
BRANCH   1  21
ATOM     21  C   UNL     1       6.935  -5.014  25.452  0.00  0.00    +0.143 C 
BRANCH  21  25
ATOM     22  C   UNL     1       3.292  -7.326  25.207  0.00  0.00    +0.065 A 
ATOM     23  C   UNL     1       3.899  -7.104  26.446  0.00  0.00    +0.016 A 
ATOM     24  C   UNL     1       5.049  -6.316  26.528  0.00  0.00    +0.006 A 
ATOM     25  C   UNL     1       5.603  -5.730  25.379  0.00  0.00    -0.030 A 
ATOM     26  C   UNL     1       4.943  -5.896  24.152  0.00  0.00    +0.006 A 
ATOM     27  C   UNL     1       3.796  -6.694  24.065  0.00  0.00    +0.016 A 
BRANCH  22  31
ATOM     28  N   UNL     1       0.906  -7.835  24.786  0.00  0.00    -0.247 N 
ATOM     29  H   UNL     1       0.886  -6.984  24.234  0.00  0.00    +0.288 HD
ATOM     30  H   UNL     1       0.282  -8.534  24.399  0.00  0.00    +0.288 HD
ATOM     31  C   UNL     1       2.155  -8.286  25.110  0.00  0.00    +0.308 C 
ATOM     32  N   UNL     1       2.363  -9.548  25.290  0.00  0.00    -0.099 NA
ATOM     33  H   UNL     1       1.485 -10.061  25.204  0.00  0.00    +0.363 HD
ENDBRANCH  22  31
ENDBRANCH  21  25
ENDBRANCH   1  21
TORSDOF 5
ENDMDL
MODEL 6
REMARK VINA RESULT:      -7.6      4.353      9.153
REMARK  Name = 
REMARK  5 active torsions:
REMARK  status: ('A' for Active; 'I' for Inactive)
REMARK    1  A    between atoms: C_2  and  C_4
REMARK    2  A    between atoms: C_7  and  C_8
REMARK    3  A    between atoms: C_8  and  N_9
REMARK    4  A    between atoms: N_12  and  S_16
REMARK    5  A    between atoms: S_16  and  C_19
REMARK                            x       y       z     vdW  Elec       q    Type
REMARK                         _______ _______ _______ _____ _____    ______ ____
ROOT
ATOM      1  N   UNL     1       8.683  -1.249  23.337  0.00  0.00    -0.295 N 
ATOM      2  C   UNL     1      10.057  -1.089  23.148  0.00  0.00    +0.232 C 
ATOM      3  O   UNL     1      10.729  -1.870  22.474  0.00  0.00    -0.274 OA
ATOM      4  C   UNL     1      10.734   0.008  23.962  0.00  0.00    +0.205 C 
ATOM      5  N   UNL     1       9.899   1.208  24.227  0.00  0.00    -0.166 NA
ATOM      6  C   UNL     1       8.582   0.790  24.779  0.00  0.00    +0.129 C 
ATOM      7  C   UNL     1       7.849  -0.164  23.842  0.00  0.00    +0.125 C 
ENDROOT
BRANCH   5   8
ATOM      8  S   UNL     1       9.900   2.309  22.933  0.00  0.00    +0.068 S 
ATOM      9  O   UNL     1       9.768   1.558  21.702  0.00  0.00    -0.152 OA
ATOM     10  O   UNL     1      10.983   3.250  23.123  0.00  0.00    -0.152 OA
BRANCH   8  11
ATOM     11  C   UNL     1       8.402   3.251  23.033  0.00  0.00    +0.144 A 
ATOM     12  S   UNL     1       8.391   4.545  24.139  0.00  0.00    -0.068 S 
ATOM     13  C   UNL     1       6.706   4.816  23.918  0.00  0.00    +0.023 A 
ATOM     14  C   UNL     1       5.904   5.750  24.599  0.00  0.00    +0.035 A 
ATOM     15  C   UNL     1       4.546   5.810  24.291  0.00  0.00    +0.042 A 
ATOM     16  C   UNL     1       3.991   4.979  23.328  0.00  0.00    +0.020 A 
ATOM     17  C   UNL     1       4.794   4.057  22.650  0.00  0.00    +0.010 A 
ATOM     18 CL   UNL     1       3.539   6.930  25.127  0.00  0.00    -0.084 Cl
ATOM     19  C   UNL     1       6.174   3.963  22.947  0.00  0.00    -0.009 A 
ATOM     20  C   UNL     1       7.177   3.086  22.423  0.00  0.00    +0.045 A 
ENDBRANCH   8  11
ENDBRANCH   5   8
BRANCH   1  21
ATOM     21  C   UNL     1       8.006  -2.371  22.704  0.00  0.00    +0.143 C 
BRANCH  21  25
ATOM     22  C   UNL     1       6.867  -5.194  25.772  0.00  0.00    +0.065 A 
ATOM     23  C   UNL     1       5.902  -4.375  25.181  0.00  0.00    +0.016 A 
ATOM     24  C   UNL     1       6.264  -3.498  24.156  0.00  0.00    +0.006 A 
ATOM     25  C   UNL     1       7.590  -3.434  23.700  0.00  0.00    -0.030 A 
ATOM     26  C   UNL     1       8.535  -4.315  24.247  0.00  0.00    +0.006 A 
ATOM     27  C   UNL     1       8.177  -5.187  25.281  0.00  0.00    +0.016 A 
BRANCH  22  31
ATOM     28  N   UNL     1       5.346  -6.748  26.958  0.00  0.00    -0.247 N 
ATOM     29  H   UNL     1       5.018  -7.029  26.039  0.00  0.00    +0.288 HD
ATOM     30  H   UNL     1       5.327  -7.527  27.604  0.00  0.00    +0.288 HD
ATOM     31  C   UNL     1       6.501  -6.016  26.961  0.00  0.00    +0.308 C 
ATOM     32  N   UNL     1       7.299  -6.070  27.975  0.00  0.00    -0.099 NA
ATOM     33  H   UNL     1       6.897  -6.660  28.704  0.00  0.00    +0.363 HD
ENDBRANCH  22  31
ENDBRANCH  21  25
ENDBRANCH   1  21
TORSDOF 5
ENDMDL
MODEL 7
REMARK VINA RESULT:      -7.6      3.728      5.660
REMARK  Name = 
REMARK  5 active torsions:
REMARK  status: ('A' for Active; 'I' for Inactive)
REMARK    1  A    between atoms: C_2  and  C_4
REMARK    2  A    between atoms: C_7  and  C_8
REMARK    3  A    between atoms: C_8  and  N_9
REMARK    4  A    between atoms: N_12  and  S_16
REMARK    5  A    between atoms: S_16  and  C_19
REMARK                            x       y       z     vdW  Elec       q    Type
REMARK                         _______ _______ _______ _____ _____    ______ ____
ROOT
ATOM      1  N   UNL     1       8.740  -2.248  23.094  0.00  0.00    -0.295 N 
ATOM      2  C   UNL     1       9.047  -3.298  23.962  0.00  0.00    +0.232 C 
ATOM      3  O   UNL     1      10.193  -3.723  24.110  0.00  0.00    -0.274 OA
ATOM      4  C   UNL     1       7.866  -4.023  24.599  0.00  0.00    +0.205 C 
ATOM      5  N   UNL     1       6.681  -3.175  24.885  0.00  0.00    -0.166 NA
ATOM      6  C   UNL     1       6.312  -2.401  23.669  0.00  0.00    +0.129 C 
ATOM      7  C   UNL     1       7.468  -1.539  23.170  0.00  0.00    +0.125 C 
ENDROOT
BRANCH   5   8
ATOM      8  S   UNL     1       6.818  -2.325  26.350  0.00  0.00    +0.068 S 
ATOM      9  O   UNL     1       8.191  -2.423  26.801  0.00  0.00    -0.152 OA
ATOM     10  O   UNL     1       5.718  -2.703  27.212  0.00  0.00    -0.152 OA
BRANCH   8  11
ATOM     11  C   UNL     1       6.597  -0.604  25.992  0.00  0.00    +0.144 A 
ATOM     12  S   UNL     1       4.991  -0.052  25.875  0.00  0.00    -0.068 S 
ATOM     13  C   UNL     1       5.486   1.494  25.303  0.00  0.00    +0.023 A 
ATOM     14  C   UNL     1       4.651   2.550  24.894  0.00  0.00    +0.035 A 
ATOM     15  C   UNL     1       5.243   3.729  24.443  0.00  0.00    +0.042 A 
ATOM     16  C   UNL     1       6.624   3.870  24.405  0.00  0.00    +0.020 A 
ATOM     17  C   UNL     1       7.448   2.819  24.819  0.00  0.00    +0.010 A 
ATOM     18 CL   UNL     1       4.243   5.028  23.915  0.00  0.00    -0.084 Cl
ATOM     19  C   UNL     1       6.879   1.606  25.271  0.00  0.00    -0.009 A 
ATOM     20  C   UNL     1       7.505   0.393  25.704  0.00  0.00    +0.045 A 
ENDBRANCH   8  11
ENDBRANCH   5   8
BRANCH   1  21
ATOM     21  C   UNL     1       9.812  -1.614  22.341  0.00  0.00    +0.143 C 
BRANCH  21  25
ATOM     22  C   UNL     1      10.568   2.557  23.183  0.00  0.00    +0.065 A 
ATOM     23  C   UNL     1       9.858   2.191  22.037  0.00  0.00    +0.016 A 
ATOM     24  C   UNL     1       9.574   0.846  21.792  0.00  0.00    +0.006 A 
ATOM     25  C   UNL     1       9.982  -0.151  22.692  0.00  0.00    -0.030 A 
ATOM     26  C   UNL     1      10.626   0.234  23.877  0.00  0.00    +0.006 A 
ATOM     27  C   UNL     1      10.922   1.580  24.120  0.00  0.00    +0.016 A 
BRANCH  22  31
ATOM     28  N   UNL     1      12.322   4.296  23.359  0.00  0.00    -0.247 N 
ATOM     29  H   UNL     1      12.917   3.660  22.837  0.00  0.00    +0.288 HD
ATOM     30  H   UNL     1      12.533   5.260  23.131  0.00  0.00    +0.288 HD
ATOM     31  C   UNL     1      10.993   3.975  23.360  0.00  0.00    +0.308 C 
ATOM     32  N   UNL     1      10.102   4.904  23.471  0.00  0.00    -0.099 NA
ATOM     33  H   UNL     1      10.556   5.808  23.599  0.00  0.00    +0.363 HD
ENDBRANCH  22  31
ENDBRANCH  21  25
ENDBRANCH   1  21
TORSDOF 5
ENDMDL
MODEL 8
REMARK VINA RESULT:      -7.5      4.415     10.043
REMARK  Name = 
REMARK  5 active torsions:
REMARK  status: ('A' for Active; 'I' for Inactive)
REMARK    1  A    between atoms: C_2  and  C_4
REMARK    2  A    between atoms: C_7  and  C_8
REMARK    3  A    between atoms: C_8  and  N_9
REMARK    4  A    between atoms: N_12  and  S_16
REMARK    5  A    between atoms: S_16  and  C_19
REMARK                            x       y       z     vdW  Elec       q    Type
REMARK                         _______ _______ _______ _____ _____    ______ ____
ROOT
ATOM      1  N   UNL     1       7.590  -3.402  25.121  0.00  0.00    -0.295 N 
ATOM      2  C   UNL     1       8.818  -2.844  24.765  0.00  0.00    +0.232 C 
ATOM      3  O   UNL     1       9.712  -3.498  24.226  0.00  0.00    -0.274 OA
ATOM      4  C   UNL     1       9.080  -1.416  25.232  0.00  0.00    +0.205 C 
ATOM      5  N   UNL     1       7.883  -0.540  25.295  0.00  0.00    -0.166 NA
ATOM      6  C   UNL     1       6.802  -1.222  26.057  0.00  0.00    +0.129 C 
ATOM      7  C   UNL     1       6.436  -2.570  25.443  0.00  0.00    +0.125 C 
ENDROOT
BRANCH   5   8
ATOM      8  S   UNL     1       7.482   0.135  23.788  0.00  0.00    +0.068 S 
ATOM      9  O   UNL     1       6.096   0.556  23.837  0.00  0.00    -0.152 OA
ATOM     10  O   UNL     1       7.961  -0.742  22.742  0.00  0.00    -0.152 OA
BRANCH   8  11
ATOM     11  C   UNL     1       8.391   1.647  23.622  0.00  0.00    +0.144 A 
ATOM     12  S   UNL     1      10.010   1.508  23.113  0.00  0.00    -0.068 S 
ATOM     13  C   UNL     1      10.321   3.177  23.402  0.00  0.00    +0.023 A 
ATOM     14  C   UNL     1      11.553   3.841  23.266  0.00  0.00    +0.035 A 
ATOM     15  C   UNL     1      11.610   5.202  23.563  0.00  0.00    +0.042 A 
ATOM     16  C   UNL     1      10.480   5.896  23.974  0.00  0.00    +0.020 A 
ATOM     17  C   UNL     1       9.257   5.230  24.101  0.00  0.00    +0.010 A 
ATOM     18 CL   UNL     1      13.112   6.034  23.427  0.00  0.00    -0.084 Cl
ATOM     19  C   UNL     1       9.167   3.847  23.818  0.00  0.00    -0.009 A 
ATOM     20  C   UNL     1       8.053   2.952  23.909  0.00  0.00    +0.045 A 
ENDBRANCH   8  11
ENDBRANCH   5   8
BRANCH   1  21
ATOM     21  C   UNL     1       7.339  -4.807  24.836  0.00  0.00    +0.143 C 
BRANCH  21  25
ATOM     22  C   UNL     1       5.064  -6.535  28.079  0.00  0.00    +0.065 A 
ATOM     23  C   UNL     1       4.612  -6.659  26.763  0.00  0.00    +0.016 A 
ATOM     24  C   UNL     1       5.373  -6.141  25.712  0.00  0.00    +0.006 A 
ATOM     25  C   UNL     1       6.600  -5.505  25.959  0.00  0.00    -0.030 A 
ATOM     26  C   UNL     1       7.081  -5.454  27.276  0.00  0.00    +0.006 A 
ATOM     27  C   UNL     1       6.315  -5.962  28.332  0.00  0.00    +0.016 A 
BRANCH  22  31
ATOM     28  N   UNL     1       2.962  -7.526  28.936  0.00  0.00    -0.247 N 
ATOM     29  H   UNL     1       2.898  -8.006  28.043  0.00  0.00    +0.288 HD
ATOM     30  H   UNL     1       2.579  -8.094  29.682  0.00  0.00    +0.288 HD
ATOM     31  C   UNL     1       4.177  -6.958  29.200  0.00  0.00    +0.308 C 
ATOM     32  N   UNL     1       4.578  -6.825  30.422  0.00  0.00    -0.099 NA
ATOM     33  H   UNL     1       3.853  -7.146  31.063  0.00  0.00    +0.363 HD
ENDBRANCH  22  31
ENDBRANCH  21  25
ENDBRANCH   1  21
TORSDOF 5
ENDMDL
MODEL 9
REMARK VINA RESULT:      -7.5      2.135      2.736
REMARK  Name = 
REMARK  5 active torsions:
REMARK  status: ('A' for Active; 'I' for Inactive)
REMARK    1  A    between atoms: C_2  and  C_4
REMARK    2  A    between atoms: C_7  and  C_8
REMARK    3  A    between atoms: C_8  and  N_9
REMARK    4  A    between atoms: N_12  and  S_16
REMARK    5  A    between atoms: S_16  and  C_19
REMARK                            x       y       z     vdW  Elec       q    Type
REMARK                         _______ _______ _______ _____ _____    ______ ____
ROOT
ATOM      1  N   UNL     1       8.436  -0.077  24.711  0.00  0.00    -0.295 N 
ATOM      2  C   UNL     1       9.721  -0.555  24.449  0.00  0.00    +0.232 C 
ATOM      3  O   UNL     1      10.737   0.051  24.790  0.00  0.00    -0.274 OA
ATOM      4  C   UNL     1       9.820  -1.790  23.559  0.00  0.00    +0.205 C 
ATOM      5  N   UNL     1       8.703  -2.760  23.694  0.00  0.00    -0.166 NA
ATOM      6  C   UNL     1       7.403  -2.048  23.573  0.00  0.00    +0.129 C 
ATOM      7  C   UNL     1       7.263  -0.938  24.610  0.00  0.00    +0.125 C 
ENDROOT
BRANCH   5   8
ATOM      8  S   UNL     1       8.906  -3.817  25.009  0.00  0.00    +0.068 S 
ATOM      9  O   UNL     1       8.805  -3.043  26.230  0.00  0.00    -0.152 OA
ATOM     10  O   UNL     1      10.051  -4.665  24.753  0.00  0.00    -0.152 OA
BRANCH   8  11
ATOM     11  C   UNL     1       7.496  -4.889  25.054  0.00  0.00    +0.144 A 
ATOM     12  S   UNL     1       6.805  -5.299  23.553  0.00  0.00    -0.068 S 
ATOM     13  C   UNL     1       5.457  -6.067  24.300  0.00  0.00    +0.023 A 
ATOM     14  C   UNL     1       4.342  -6.631  23.653  0.00  0.00    +0.035 A 
ATOM     15  C   UNL     1       3.337  -7.198  24.436  0.00  0.00    +0.042 A 
ATOM     16  C   UNL     1       3.431  -7.219  25.821  0.00  0.00    +0.020 A 
ATOM     17  C   UNL     1       4.545  -6.662  26.456  0.00  0.00    +0.010 A 
ATOM     18 CL   UNL     1       1.951  -7.874  23.670  0.00  0.00    -0.084 Cl
ATOM     19  C   UNL     1       5.577  -6.069  25.692  0.00  0.00    -0.009 A 
ATOM     20  C   UNL     1       6.779  -5.411  26.109  0.00  0.00    +0.045 A 
ENDBRANCH   8  11
ENDBRANCH   5   8
BRANCH   1  21
ATOM     21  C   UNL     1       8.280   1.181  25.428  0.00  0.00    +0.143 C 
BRANCH  21  25
ATOM     22  C   UNL     1       7.230   4.545  22.927  0.00  0.00    +0.065 A 
ATOM     23  C   UNL     1       7.900   4.752  24.135  0.00  0.00    +0.016 A 
ATOM     24  C   UNL     1       8.281   3.661  24.918  0.00  0.00    +0.006 A 
ATOM     25  C   UNL     1       8.009   2.348  24.502  0.00  0.00    -0.030 A 
ATOM     26  C   UNL     1       7.405   2.148  23.252  0.00  0.00    +0.006 A 
ATOM     27  C   UNL     1       7.012   3.241  22.470  0.00  0.00    +0.016 A 
BRANCH  22  31
ATOM     28  N   UNL     1       7.519   6.422  21.337  0.00  0.00    -0.247 N 
ATOM     29  H   UNL     1       8.296   5.893  20.952  0.00  0.00    +0.288 HD
ATOM     30  H   UNL     1       7.046   6.952  20.615  0.00  0.00    +0.288 HD
ATOM     31  C   UNL     1       6.698   5.716  22.173  0.00  0.00    +0.308 C 
ATOM     32  N   UNL     1       5.451   6.037  22.279  0.00  0.00    -0.099 NA
ATOM     33  H   UNL     1       5.255   6.864  21.715  0.00  0.00    +0.363 HD
ENDBRANCH  22  31
ENDBRANCH  21  25
ENDBRANCH   1  21
TORSDOF 5
ENDMDL
