MODEL 1
REMARK VINA RESULT:      -4.5      0.000      0.000
REMARK  Name = 
REMARK  5 active torsions:
REMARK  status: ('A' for Active; 'I' for Inactive)
REMARK    1  A    between atoms: O_1  and  C_2
REMARK    2  A    between atoms: C_5  and  C_14
REMARK    3  A    between atoms: C_8  and  O_10
REMARK    4  A    between atoms: C_11  and  O_13
REMARK    5  A    between atoms: C_14  and  O_15
REMARK                            x       y       z     vdW  Elec       q    Type
REMARK                         _______ _______ _______ _____ _____    ______ ____
ROOT
ATOM      1  C   UNL     1       8.945   2.300  22.366  0.00  0.00    +0.151 C 
ATOM      2  C   UNL     1       9.256   2.590  23.836  0.00  0.00    +0.199 C 
ATOM      3  C   UNL     1       9.785   1.303  24.509  0.00  0.00    +0.279 C 
ATOM      4  O   UNL     1       8.929   0.173  24.339  0.00  0.00    -0.334 OA
ATOM      5  C   UNL     1       8.556  -0.119  22.991  0.00  0.00    +0.232 C 
ATOM      6  C   UNL     1       8.009   1.101  22.251  0.00  0.00    +0.077 C 
ENDROOT
BRANCH   1   7
ATOM      7  O   UNL     1      10.172   2.035  21.681  0.00  0.00    -0.389 OA
ATOM      8  H   UNL     1      10.184   2.583  20.871  0.00  0.00    +0.210 HD
ENDBRANCH   1   7
BRANCH   2   9
ATOM      9  O   UNL     1       8.071   3.070  24.478  0.00  0.00    -0.384 OA
ATOM     10  H   UNL     1       7.314   2.846  23.908  0.00  0.00    +0.210 HD
ENDBRANCH   2   9
BRANCH   3  11
ATOM     11  O   UNL     1      11.096   0.957  24.100  0.00  0.00    -0.365 OA
ATOM     12  H   UNL     1      11.620   1.787  24.070  0.00  0.00    +0.213 HD
ENDBRANCH   3  11
BRANCH   5  13
ATOM     13  C   UNL     1       9.633  -0.862  22.180  0.00  0.00    +0.334 C 
ATOM     14  O   UNL     1      10.550  -1.505  22.670  0.00  0.00    -0.248 OA
BRANCH  13  15
ATOM     15  O   UNL     1       9.491  -0.691  20.844  0.00  0.00    -0.479 OA
ATOM     16  H   UNL     1       8.804  -1.308  20.501  0.00  0.00    +0.295 HD
ENDBRANCH  13  15
ENDBRANCH   5  13
TORSDOF 5
ENDMDL
MODEL 2
REMARK VINA RESULT:      -4.4      1.629      3.003
REMARK  Name = 
REMARK  5 active torsions:
REMARK  status: ('A' for Active; 'I' for Inactive)
REMARK    1  A    between atoms: O_1  and  C_2
REMARK    2  A    between atoms: C_5  and  C_14
REMARK    3  A    between atoms: C_8  and  O_10
REMARK    4  A    between atoms: C_11  and  O_13
REMARK    5  A    between atoms: C_14  and  O_15
REMARK                            x       y       z     vdW  Elec       q    Type
REMARK                         _______ _______ _______ _____ _____    ______ ____
ROOT
ATOM      1  C   UNL     1       7.977   0.892  22.857  0.00  0.00    +0.151 C 
ATOM      2  C   UNL     1       8.883   0.952  21.625  0.00  0.00    +0.199 C 
ATOM      3  C   UNL     1       9.897  -0.213  21.681  0.00  0.00    +0.279 C 
ATOM      4  O   UNL     1      10.632  -0.276  22.902  0.00  0.00    -0.334 OA
ATOM      5  C   UNL     1       9.846  -0.279  24.095  0.00  0.00    +0.232 C 
ATOM      6  C   UNL     1       8.819   0.853  24.129  0.00  0.00    +0.077 C 
ENDROOT
BRANCH   1   7
ATOM      7  O   UNL     1       7.160  -0.278  22.769  0.00  0.00    -0.389 OA
ATOM      8  H   UNL     1       6.351  -0.039  22.273  0.00  0.00    +0.210 HD
ENDBRANCH   1   7
BRANCH   2   9
ATOM      9  O   UNL     1       9.541   2.221  21.590  0.00  0.00    -0.384 OA
ATOM     10  H   UNL     1       9.911   2.339  20.697  0.00  0.00    +0.210 HD
ENDBRANCH   2   9
BRANCH   3  11
ATOM     11  O   UNL     1       9.310  -1.477  21.427  0.00  0.00    -0.365 OA
ATOM     12  H   UNL     1       8.734  -1.691  22.193  0.00  0.00    +0.213 HD
ENDBRANCH   3  11
BRANCH   5  13
ATOM     13  C   UNL     1       9.226  -1.644  24.443  0.00  0.00    +0.334 C 
ATOM     14  O   UNL     1       8.189  -1.795  25.074  0.00  0.00    -0.248 OA
BRANCH  13  15
ATOM     15  O   UNL     1       9.981  -2.685  24.017  0.00  0.00    -0.479 OA
ATOM     16  H   UNL     1      10.378  -2.472  23.142  0.00  0.00    +0.295 HD
ENDBRANCH  13  15
ENDBRANCH   5  13
TORSDOF 5
ENDMDL
MODEL 3
REMARK VINA RESULT:      -4.4      1.499      3.143
REMARK  Name = 
REMARK  5 active torsions:
REMARK  status: ('A' for Active; 'I' for Inactive)
REMARK    1  A    between atoms: O_1  and  C_2
REMARK    2  A    between atoms: C_5  and  C_14
REMARK    3  A    between atoms: C_8  and  O_10
REMARK    4  A    between atoms: C_11  and  O_13
REMARK    5  A    between atoms: C_14  and  O_15
REMARK                            x       y       z     vdW  Elec       q    Type
REMARK                         _______ _______ _______ _____ _____    ______ ____
ROOT
ATOM      1  C   UNL     1      10.503   0.161  24.250  0.00  0.00    +0.151 C 
ATOM      2  C   UNL     1       9.331  -0.474  25.002  0.00  0.00    +0.199 C 
ATOM      3  C   UNL     1       8.003   0.001  24.371  0.00  0.00    +0.279 C 
ATOM      4  O   UNL     1       7.890   1.421  24.273  0.00  0.00    -0.334 OA
ATOM      5  C   UNL     1       8.980   2.082  23.629  0.00  0.00    +0.232 C 
ATOM      6  C   UNL     1      10.339   1.677  24.202  0.00  0.00    +0.077 C 
ENDROOT
BRANCH   1   7
ATOM      7  O   UNL     1      10.543  -0.374  22.925  0.00  0.00    -0.389 OA
ATOM      8  H   UNL     1       9.735  -0.077  22.461  0.00  0.00    +0.210 HD
ENDBRANCH   1   7
BRANCH   2   9
ATOM      9  O   UNL     1       9.414  -0.117  26.385  0.00  0.00    -0.384 OA
ATOM     10  H   UNL     1       8.509  -0.110  26.743  0.00  0.00    +0.210 HD
ENDBRANCH   2   9
BRANCH   3  11
ATOM     11  O   UNL     1       7.751  -0.573  23.101  0.00  0.00    -0.365 OA
ATOM     12  H   UNL     1       7.448   0.149  22.509  0.00  0.00    +0.213 HD
ENDBRANCH   3  11
BRANCH   5  13
ATOM     13  C   UNL     1       8.947   2.012  22.092  0.00  0.00    +0.334 C 
ATOM     14  O   UNL     1       7.949   1.773  21.429  0.00  0.00    -0.248 OA
BRANCH  13  15
ATOM     15  O   UNL     1      10.168   2.198  21.534  0.00  0.00    -0.479 OA
ATOM     16  H   UNL     1      10.745   2.697  22.157  0.00  0.00    +0.295 HD
ENDBRANCH  13  15
ENDBRANCH   5  13
TORSDOF 5
ENDMDL
MODEL 4
REMARK VINA RESULT:      -4.4      1.304      3.751
REMARK  Name = 
REMARK  5 active torsions:
REMARK  status: ('A' for Active; 'I' for Inactive)
REMARK    1  A    between atoms: O_1  and  C_2
REMARK    2  A    between atoms: C_5  and  C_14
REMARK    3  A    between atoms: C_8  and  O_10
REMARK    4  A    between atoms: C_11  and  O_13
REMARK    5  A    between atoms: C_14  and  O_15
REMARK                            x       y       z     vdW  Elec       q    Type
REMARK                         _______ _______ _______ _____ _____    ______ ____
ROOT
ATOM      1  C   UNL     1      10.237  -0.360  23.518  0.00  0.00    +0.151 C 
ATOM      2  C   UNL     1      10.201  -0.393  21.988  0.00  0.00    +0.199 C 
ATOM      3  C   UNL     1       9.306   0.757  21.474  0.00  0.00    +0.279 C 
ATOM      4  O   UNL     1       8.003   0.774  22.055  0.00  0.00    -0.334 OA
ATOM      5  C   UNL     1       7.965   0.750  23.482  0.00  0.00    +0.232 C 
ATOM      6  C   UNL     1       8.818  -0.370  24.078  0.00  0.00    +0.077 C 
ENDROOT
BRANCH   1   7
ATOM      7  O   UNL     1      10.925   0.821  23.935  0.00  0.00    -0.389 OA
ATOM      8  H   UNL     1      11.694   0.543  24.471  0.00  0.00    +0.210 HD
ENDBRANCH   1   7
BRANCH   2   9
ATOM      9  O   UNL     1       9.716  -1.669  21.559  0.00  0.00    -0.384 OA
ATOM     10  H   UNL     1       9.242  -1.538  20.718  0.00  0.00    +0.210 HD
ENDBRANCH   2   9
BRANCH   3  11
ATOM     11  O   UNL     1       9.898   2.035  21.625  0.00  0.00    -0.365 OA
ATOM     12  H   UNL     1       9.177   2.668  21.835  0.00  0.00    +0.213 HD
ENDBRANCH   3  11
BRANCH   5  13
ATOM     13  C   UNL     1       8.236   2.111  24.148  0.00  0.00    +0.334 C 
ATOM     14  O   UNL     1       8.135   3.192  23.586  0.00  0.00    -0.248 OA
BRANCH  13  15
ATOM     15  O   UNL     1       8.655   1.991  25.432  0.00  0.00    -0.479 OA
ATOM     16  H   UNL     1       9.265   1.222  25.511  0.00  0.00    +0.295 HD
ENDBRANCH  13  15
ENDBRANCH   5  13
TORSDOF 5
ENDMDL
MODEL 5
REMARK VINA RESULT:      -4.4      1.420      2.713
REMARK  Name = 
REMARK  5 active torsions:
REMARK  status: ('A' for Active; 'I' for Inactive)
REMARK    1  A    between atoms: O_1  and  C_2
REMARK    2  A    between atoms: C_5  and  C_14
REMARK    3  A    between atoms: C_8  and  O_10
REMARK    4  A    between atoms: C_11  and  O_13
REMARK    5  A    between atoms: C_14  and  O_15
REMARK                            x       y       z     vdW  Elec       q    Type
REMARK                         _______ _______ _______ _____ _____    ______ ____
ROOT
ATOM      1  C   UNL     1       9.538  -0.097  22.082  0.00  0.00    +0.151 C 
ATOM      2  C   UNL     1      10.106   1.323  22.165  0.00  0.00    +0.199 C 
ATOM      3  C   UNL     1      10.204   1.745  23.649  0.00  0.00    +0.279 C 
ATOM      4  O   UNL     1       8.982   1.597  24.370  0.00  0.00    -0.334 OA
ATOM      5  C   UNL     1       8.371   0.309  24.288  0.00  0.00    +0.232 C 
ATOM      6  C   UNL     1       8.222  -0.184  22.848  0.00  0.00    +0.077 C 
ENDROOT
BRANCH   1   7
ATOM      7  O   UNL     1      10.494  -1.006  22.634  0.00  0.00    -0.389 OA
ATOM      8  H   UNL     1      10.209  -1.218  23.545  0.00  0.00    +0.210 HD
ENDBRANCH   1   7
BRANCH   2   9
ATOM      9  O   UNL     1       9.263   2.207  21.421  0.00  0.00    -0.384 OA
ATOM     10  H   UNL     1       9.145   3.017  21.949  0.00  0.00    +0.210 HD
ENDBRANCH   2   9
BRANCH   3  11
ATOM     11  O   UNL     1      11.241   1.082  24.351  0.00  0.00    -0.365 OA
ATOM     12  H   UNL     1      11.487   0.289  23.827  0.00  0.00    +0.213 HD
ENDBRANCH   3  11
BRANCH   5  13
ATOM     13  C   UNL     1       8.997  -0.753  25.210  0.00  0.00    +0.334 C 
ATOM     14  O   UNL     1       9.036  -1.950  24.965  0.00  0.00    -0.248 OA
BRANCH  13  15
ATOM     15  O   UNL     1       9.470  -0.227  26.366  0.00  0.00    -0.479 OA
ATOM     16  H   UNL     1       8.718  -0.017  26.966  0.00  0.00    +0.295 HD
ENDBRANCH  13  15
ENDBRANCH   5  13
TORSDOF 5
ENDMDL
MODEL 6
REMARK VINA RESULT:      -4.4      1.593      3.459
REMARK  Name = 
REMARK  5 active torsions:
REMARK  status: ('A' for Active; 'I' for Inactive)
REMARK    1  A    between atoms: O_1  and  C_2
REMARK    2  A    between atoms: C_5  and  C_14
REMARK    3  A    between atoms: C_8  and  O_10
REMARK    4  A    between atoms: C_11  and  O_13
REMARK    5  A    between atoms: C_14  and  O_15
REMARK                            x       y       z     vdW  Elec       q    Type
REMARK                         _______ _______ _______ _____ _____    ______ ____
ROOT
ATOM      1  C   UNL     1       8.497  -1.583  22.615  0.00  0.00    +0.151 C 
ATOM      2  C   UNL     1       9.186  -1.841  23.958  0.00  0.00    +0.199 C 
ATOM      3  C   UNL     1       9.872  -0.541  24.436  0.00  0.00    +0.279 C 
ATOM      4  O   UNL     1      10.750   0.034  23.469  0.00  0.00    -0.334 OA
ATOM      5  C   UNL     1      10.183   0.250  22.175  0.00  0.00    +0.232 C 
ATOM      6  C   UNL     1       9.490  -0.994  21.618  0.00  0.00    +0.077 C 
ENDROOT
BRANCH   1   7
ATOM      7  O   UNL     1       7.410  -0.678  22.823  0.00  0.00    -0.389 OA
ATOM      8  H   UNL     1       7.237  -0.221  21.976  0.00  0.00    +0.210 HD
ENDBRANCH   1   7
BRANCH   2   9
ATOM      9  O   UNL     1      10.127  -2.907  23.803  0.00  0.00    -0.384 OA
ATOM     10  H   UNL     1      10.802  -2.616  23.165  0.00  0.00    +0.210 HD
ENDBRANCH   2   9
BRANCH   3  11
ATOM     11  O   UNL     1       8.955   0.445  24.876  0.00  0.00    -0.365 OA
ATOM     12  H   UNL     1       9.314   0.826  25.707  0.00  0.00    +0.213 HD
ENDBRANCH   3  11
BRANCH   5  13
ATOM     13  C   UNL     1       9.303   1.509  22.069  0.00  0.00    +0.334 C 
ATOM     14  O   UNL     1       9.280   2.412  22.892  0.00  0.00    -0.248 OA
BRANCH  13  15
ATOM     15  O   UNL     1       8.503   1.496  20.975  0.00  0.00    -0.479 OA
ATOM     16  H   UNL     1       7.599   1.798  21.222  0.00  0.00    +0.295 HD
ENDBRANCH  13  15
ENDBRANCH   5  13
TORSDOF 5
ENDMDL
MODEL 7
REMARK VINA RESULT:      -4.4      1.431      3.137
REMARK  Name = 
REMARK  5 active torsions:
REMARK  status: ('A' for Active; 'I' for Inactive)
REMARK    1  A    between atoms: O_1  and  C_2
REMARK    2  A    between atoms: C_5  and  C_14
REMARK    3  A    between atoms: C_8  and  O_10
REMARK    4  A    between atoms: C_11  and  O_13
REMARK    5  A    between atoms: C_14  and  O_15
REMARK                            x       y       z     vdW  Elec       q    Type
REMARK                         _______ _______ _______ _____ _____    ______ ____
ROOT
ATOM      1  C   UNL     1       8.911   2.035  23.442  0.00  0.00    +0.151 C 
ATOM      2  C   UNL     1       9.242   1.530  22.035  0.00  0.00    +0.199 C 
ATOM      3  C   UNL     1       9.618   0.033  22.107  0.00  0.00    +0.279 C 
ATOM      4  O   UNL     1      10.649  -0.255  23.052  0.00  0.00    -0.334 OA
ATOM      5  C   UNL     1      10.427   0.238  24.374  0.00  0.00    +0.232 C 
ATOM      6  C   UNL     1      10.058   1.722  24.397  0.00  0.00    +0.077 C 
ENDROOT
BRANCH   1   7
ATOM      7  O   UNL     1       7.710   1.401  23.887  0.00  0.00    -0.389 OA
ATOM      8  H   UNL     1       7.432   0.772  23.191  0.00  0.00    +0.210 HD
ENDBRANCH   1   7
BRANCH   2   9
ATOM      9  O   UNL     1      10.308   2.316  21.494  0.00  0.00    -0.384 OA
ATOM     10  H   UNL     1      10.325   3.162  21.975  0.00  0.00    +0.210 HD
ENDBRANCH   2   9
BRANCH   3  11
ATOM     11  O   UNL     1       8.509  -0.811  22.359  0.00  0.00    -0.365 OA
ATOM     12  H   UNL     1       7.796  -0.251  22.735  0.00  0.00    +0.213 HD
ENDBRANCH   3  11
BRANCH   5  13
ATOM     13  C   UNL     1       9.467  -0.618  25.219  0.00  0.00    +0.334 C 
ATOM     14  O   UNL     1       9.158  -1.772  24.963  0.00  0.00    -0.248 OA
BRANCH  13  15
ATOM     15  O   UNL     1       8.948   0.063  26.270  0.00  0.00    -0.479 OA
ATOM     16  H   UNL     1       9.598   0.080  27.009  0.00  0.00    +0.295 HD
ENDBRANCH  13  15
ENDBRANCH   5  13
TORSDOF 5
ENDMDL
MODEL 8
REMARK VINA RESULT:      -4.4      5.402      6.831
REMARK  Name = 
REMARK  5 active torsions:
REMARK  status: ('A' for Active; 'I' for Inactive)
REMARK    1  A    between atoms: O_1  and  C_2
REMARK    2  A    between atoms: C_5  and  C_14
REMARK    3  A    between atoms: C_8  and  O_10
REMARK    4  A    between atoms: C_11  and  O_13
REMARK    5  A    between atoms: C_14  and  O_15
REMARK                            x       y       z     vdW  Elec       q    Type
REMARK                         _______ _______ _______ _____ _____    ______ ____
ROOT
ATOM      1  C   UNL     1       7.703  -3.964  24.264  0.00  0.00    +0.151 C 
ATOM      2  C   UNL     1       9.227  -3.908  24.400  0.00  0.00    +0.199 C 
ATOM      3  C   UNL     1       9.649  -4.625  25.702  0.00  0.00    +0.279 C 
ATOM      4  O   UNL     1       8.974  -4.145  26.865  0.00  0.00    -0.334 OA
ATOM      5  C   UNL     1       7.549  -4.120  26.783  0.00  0.00    +0.232 C 
ATOM      6  C   UNL     1       7.042  -3.416  25.524  0.00  0.00    +0.077 C 
ENDROOT
BRANCH   1   7
ATOM      7  O   UNL     1       7.311  -5.322  24.050  0.00  0.00    -0.389 OA
ATOM      8  H   UNL     1       6.441  -5.312  23.603  0.00  0.00    +0.210 HD
ENDBRANCH   1   7
BRANCH   2   9
ATOM      9  O   UNL     1       9.648  -2.541  24.391  0.00  0.00    -0.384 OA
ATOM     10  H   UNL     1       9.203  -2.099  23.646  0.00  0.00    +0.210 HD
ENDBRANCH   2   9
BRANCH   3  11
ATOM     11  O   UNL     1       9.513  -6.033  25.634  0.00  0.00    -0.365 OA
ATOM     12  H   UNL     1       8.713  -6.224  25.097  0.00  0.00    +0.213 HD
ENDBRANCH   3  11
BRANCH   5  13
ATOM     13  C   UNL     1       6.874  -5.486  27.003  0.00  0.00    +0.334 C 
ATOM     14  O   UNL     1       5.844  -5.848  26.453  0.00  0.00    -0.248 OA
BRANCH  13  15
ATOM     15  O   UNL     1       7.519  -6.245  27.921  0.00  0.00    -0.479 OA
ATOM     16  H   UNL     1       6.879  -6.851  28.360  0.00  0.00    +0.295 HD
ENDBRANCH  13  15
ENDBRANCH   5  13
TORSDOF 5
ENDMDL
MODEL 9
REMARK VINA RESULT:      -4.3      1.497      2.089
REMARK  Name = 
REMARK  5 active torsions:
REMARK  status: ('A' for Active; 'I' for Inactive)
REMARK    1  A    between atoms: O_1  and  C_2
REMARK    2  A    between atoms: C_5  and  C_14
REMARK    3  A    between atoms: C_8  and  O_10
REMARK    4  A    between atoms: C_11  and  O_13
REMARK    5  A    between atoms: C_14  and  O_15
REMARK                            x       y       z     vdW  Elec       q    Type
REMARK                         _______ _______ _______ _____ _____    ______ ____
ROOT
ATOM      1  C   UNL     1       7.736   0.878  23.835  0.00  0.00    +0.151 C 
ATOM      2  C   UNL     1       8.755   2.011  23.690  0.00  0.00    +0.199 C 
ATOM      3  C   UNL     1       9.971   1.503  22.883  0.00  0.00    +0.279 C 
ATOM      4  O   UNL     1      10.548   0.307  23.407  0.00  0.00    -0.334 OA
ATOM      5  C   UNL     1       9.639  -0.774  23.618  0.00  0.00    +0.232 C 
ATOM      6  C   UNL     1       8.406  -0.361  24.422  0.00  0.00    +0.077 C 
ENDROOT
BRANCH   1   7
ATOM      7  O   UNL     1       7.192   0.582  22.546  0.00  0.00    -0.389 OA
ATOM      8  H   UNL     1       6.652   1.348  22.269  0.00  0.00    +0.210 HD
ENDBRANCH   1   7
BRANCH   2   9
ATOM      9  O   UNL     1       9.139   2.463  24.991  0.00  0.00    -0.384 OA
ATOM     10  H   UNL     1       9.476   1.695  25.484  0.00  0.00    +0.210 HD
ENDBRANCH   2   9
BRANCH   3  11
ATOM     11  O   UNL     1       9.691   1.319  21.507  0.00  0.00    -0.365 OA
ATOM     12  H   UNL     1      10.014   0.425  21.260  0.00  0.00    +0.213 HD
ENDBRANCH   3  11
BRANCH   5  13
ATOM     13  C   UNL     1       9.273  -1.556  22.343  0.00  0.00    +0.334 C 
ATOM     14  O   UNL     1       8.211  -2.134  22.164  0.00  0.00    -0.248 OA
BRANCH  13  15
ATOM     15  O   UNL     1      10.282  -1.582  21.439  0.00  0.00    -0.479 OA
ATOM     16  H   UNL     1      10.663  -0.680  21.339  0.00  0.00    +0.295 HD
ENDBRANCH  13  15
ENDBRANCH   5  13
TORSDOF 5
ENDMDL
