MODEL 1
REMARK VINA RESULT:      -5.1      0.000      0.000
REMARK  Name = 
REMARK  5 active torsions:
REMARK  status: ('A' for Active; 'I' for Inactive)
REMARK    1  A    between atoms: C_1  and  N_2
REMARK    2  A    between atoms: N_2  and  C_3
REMARK    3  A    between atoms: N_2  and  C_4
REMARK    4  A    between atoms: C_7  and  C_10
REMARK    5  A    between atoms: C_10  and  O_11
REMARK                            x       y       z     vdW  Elec       q    Type
REMARK                         _______ _______ _______ _____ _____    ______ ____
ROOT
ATOM      1  C   UNL     1      10.484   2.527  23.412  0.00  0.00    +0.029 A 
ATOM      2  C   UNL     1      10.024   2.045  22.174  0.00  0.00    +0.024 A 
ATOM      3  C   UNL     1       9.888   0.672  21.915  0.00  0.00    +0.017 A 
ATOM      4  C   UNL     1      10.186  -0.261  22.907  0.00  0.00    +0.059 A 
ATOM      5  C   UNL     1      10.579   0.185  24.166  0.00  0.00    +0.017 A 
ATOM      6  C   UNL     1      10.730   1.559  24.403  0.00  0.00    +0.024 A 
ENDROOT
BRANCH   1   8
ATOM      7  C   UNL     1      11.932   4.491  23.269  0.00  0.00    +0.129 C 
ATOM      8  N   UNL     1      10.666   3.885  23.678  0.00  0.00    -0.336 N 
ATOM      9  C   UNL     1       9.516   4.778  23.782  0.00  0.00    +0.129 C 
ENDBRANCH   1   8
BRANCH   4  10
ATOM     10  C   UNL     1      10.043  -1.705  22.596  0.00  0.00    +0.337 C 
ATOM     11  O   UNL     1      10.261  -2.586  23.410  0.00  0.00    -0.245 OA
BRANCH  10  12
ATOM     12  O   UNL     1       9.593  -1.948  21.347  0.00  0.00    -0.477 OA
ATOM     13  H   UNL     1       8.623  -1.997  21.260  0.00  0.00    +0.295 HD
ENDBRANCH  10  12
ENDBRANCH   4  10
TORSDOF 3
ENDMDL
MODEL 2
REMARK VINA RESULT:      -5.1      3.359      4.949
REMARK  Name = 
REMARK  5 active torsions:
REMARK  status: ('A' for Active; 'I' for Inactive)
REMARK    1  A    between atoms: C_1  and  N_2
REMARK    2  A    between atoms: N_2  and  C_3
REMARK    3  A    between atoms: N_2  and  C_4
REMARK    4  A    between atoms: C_7  and  C_10
REMARK    5  A    between atoms: C_10  and  O_11
REMARK                            x       y       z     vdW  Elec       q    Type
REMARK                         _______ _______ _______ _____ _____    ______ ____
ROOT
ATOM      1  C   UNL     1       9.746  -0.569  23.010  0.00  0.00    +0.029 A 
ATOM      2  C   UNL     1       9.692   0.305  21.910  0.00  0.00    +0.024 A 
ATOM      3  C   UNL     1      10.031   1.663  22.023  0.00  0.00    +0.017 A 
ATOM      4  C   UNL     1      10.460   2.179  23.245  0.00  0.00    +0.059 A 
ATOM      5  C   UNL     1      10.588   1.325  24.337  0.00  0.00    +0.017 A 
ATOM      6  C   UNL     1      10.228  -0.025  24.214  0.00  0.00    +0.024 A 
ENDROOT
BRANCH   1   8
ATOM      7  C   UNL     1       9.823  -2.803  24.001  0.00  0.00    +0.129 C 
ATOM      8  N   UNL     1       9.376  -1.912  22.930  0.00  0.00    -0.336 N 
ATOM      9  C   UNL     1       8.164  -2.303  22.217  0.00  0.00    +0.129 C 
ENDBRANCH   1   8
BRANCH   4  10
ATOM     10  C   UNL     1      10.798   3.621  23.333  0.00  0.00    +0.337 C 
ATOM     11  O   UNL     1      11.943   4.034  23.385  0.00  0.00    -0.245 OA
BRANCH  10  12
ATOM     12  O   UNL     1       9.720   4.433  23.291  0.00  0.00    -0.477 OA
ATOM     13  H   UNL     1       9.566   4.871  22.433  0.00  0.00    +0.295 HD
ENDBRANCH  10  12
ENDBRANCH   4  10
TORSDOF 3
ENDMDL
MODEL 3
REMARK VINA RESULT:      -4.9      0.464      1.950
REMARK  Name = 
REMARK  5 active torsions:
REMARK  status: ('A' for Active; 'I' for Inactive)
REMARK    1  A    between atoms: C_1  and  N_2
REMARK    2  A    between atoms: N_2  and  C_3
REMARK    3  A    between atoms: N_2  and  C_4
REMARK    4  A    between atoms: C_7  and  C_10
REMARK    5  A    between atoms: C_10  and  O_11
REMARK                            x       y       z     vdW  Elec       q    Type
REMARK                         _______ _______ _______ _____ _____    ______ ____
ROOT
ATOM      1  C   UNL     1      10.410   2.413  23.159  0.00  0.00    +0.029 A 
ATOM      2  C   UNL     1      10.728   1.464  24.146  0.00  0.00    +0.024 A 
ATOM      3  C   UNL     1      10.466   0.096  23.973  0.00  0.00    +0.017 A 
ATOM      4  C   UNL     1       9.896  -0.364  22.786  0.00  0.00    +0.059 A 
ATOM      5  C   UNL     1       9.631   0.542  21.763  0.00  0.00    +0.017 A 
ATOM      6  C   UNL     1       9.881   1.908  21.958  0.00  0.00    +0.024 A 
ENDROOT
BRANCH   1   8
ATOM      7  C   UNL     1       9.614   4.541  24.061  0.00  0.00    +0.129 C 
ATOM      8  N   UNL     1      10.625   3.782  23.326  0.00  0.00    -0.336 N 
ATOM      9  C   UNL     1      11.981   4.322  23.331  0.00  0.00    +0.129 C 
ENDBRANCH   1   8
BRANCH   4  10
ATOM     10  C   UNL     1       9.620  -1.815  22.641  0.00  0.00    +0.337 C 
ATOM     11  O   UNL     1       8.662  -2.252  22.028  0.00  0.00    -0.245 OA
BRANCH  10  12
ATOM     12  O   UNL     1      10.562  -2.603  23.202  0.00  0.00    -0.477 OA
ATOM     13  H   UNL     1      10.417  -3.562  23.090  0.00  0.00    +0.295 HD
ENDBRANCH  10  12
ENDBRANCH   4  10
TORSDOF 3
ENDMDL
MODEL 4
REMARK VINA RESULT:      -4.9      3.372      5.276
REMARK  Name = 
REMARK  5 active torsions:
REMARK  status: ('A' for Active; 'I' for Inactive)
REMARK    1  A    between atoms: C_1  and  N_2
REMARK    2  A    between atoms: N_2  and  C_3
REMARK    3  A    between atoms: N_2  and  C_4
REMARK    4  A    between atoms: C_7  and  C_10
REMARK    5  A    between atoms: C_10  and  O_11
REMARK                            x       y       z     vdW  Elec       q    Type
REMARK                         _______ _______ _______ _____ _____    ______ ____
ROOT
ATOM      1  C   UNL     1       9.182  -2.184  23.411  0.00  0.00    +0.029 A 
ATOM      2  C   UNL     1       9.225  -1.621  22.124  0.00  0.00    +0.024 A 
ATOM      3  C   UNL     1       9.588  -0.281  21.911  0.00  0.00    +0.017 A 
ATOM      4  C   UNL     1       9.945   0.528  22.989  0.00  0.00    +0.059 A 
ATOM      5  C   UNL     1       9.977  -0.019  24.269  0.00  0.00    +0.017 A 
ATOM      6  C   UNL     1       9.593  -1.353  24.468  0.00  0.00    +0.024 A 
ENDROOT
BRANCH   1   8
ATOM      7  C   UNL     1       9.187  -4.110  24.917  0.00  0.00    +0.129 C 
ATOM      8  N   UNL     1       8.785  -3.501  23.650  0.00  0.00    -0.336 N 
ATOM      9  C   UNL     1       7.584  -4.037  23.017  0.00  0.00    +0.129 C 
ENDBRANCH   1   8
BRANCH   4  10
ATOM     10  C   UNL     1      10.311   1.942  22.730  0.00  0.00    +0.337 C 
ATOM     11  O   UNL     1      10.827   2.660  23.569  0.00  0.00    -0.245 OA
BRANCH  10  12
ATOM     12  O   UNL     1      10.072   2.340  21.462  0.00  0.00    -0.477 OA
ATOM     13  H   UNL     1      10.869   2.506  20.925  0.00  0.00    +0.295 HD
ENDBRANCH  10  12
ENDBRANCH   4  10
TORSDOF 3
ENDMDL
MODEL 5
REMARK VINA RESULT:      -4.8      3.383      5.460
REMARK  Name = 
REMARK  5 active torsions:
REMARK  status: ('A' for Active; 'I' for Inactive)
REMARK    1  A    between atoms: C_1  and  N_2
REMARK    2  A    between atoms: N_2  and  C_3
REMARK    3  A    between atoms: N_2  and  C_4
REMARK    4  A    between atoms: C_7  and  C_10
REMARK    5  A    between atoms: C_10  and  O_11
REMARK                            x       y       z     vdW  Elec       q    Type
REMARK                         _______ _______ _______ _____ _____    ______ ____
ROOT
ATOM      1  C   UNL     1       9.155  -2.209  23.459  0.00  0.00    +0.029 A 
ATOM      2  C   UNL     1       9.514  -1.341  24.504  0.00  0.00    +0.024 A 
ATOM      3  C   UNL     1       9.904  -0.013  24.266  0.00  0.00    +0.017 A 
ATOM      4  C   UNL     1       9.919   0.491  22.966  0.00  0.00    +0.059 A 
ATOM      5  C   UNL     1       9.505  -0.324  21.916  0.00  0.00    +0.017 A 
ATOM      6  C   UNL     1       9.137  -1.654  22.167  0.00  0.00    +0.024 A 
ENDROOT
BRANCH   1   8
ATOM      7  C   UNL     1       9.237  -4.170  24.917  0.00  0.00    +0.129 C 
ATOM      8  N   UNL     1       8.804  -3.544  23.668  0.00  0.00    -0.336 N 
ATOM      9  C   UNL     1       7.614  -4.103  23.033  0.00  0.00    +0.129 C 
ENDBRANCH   1   8
BRANCH   4  10
ATOM     10  C   UNL     1      10.348   1.894  22.749  0.00  0.00    +0.337 C 
ATOM     11  O   UNL     1      10.856   2.578  23.620  0.00  0.00    -0.245 OA
BRANCH  10  12
ATOM     12  O   UNL     1      10.175   2.322  21.480  0.00  0.00    -0.477 OA
ATOM     13  H   UNL     1      10.993   2.390  20.953  0.00  0.00    +0.295 HD
ENDBRANCH  10  12
ENDBRANCH   4  10
TORSDOF 3
ENDMDL
MODEL 6
REMARK VINA RESULT:      -4.6      3.394      4.457
REMARK  Name = 
REMARK  5 active torsions:
REMARK  status: ('A' for Active; 'I' for Inactive)
REMARK    1  A    between atoms: C_1  and  N_2
REMARK    2  A    between atoms: N_2  and  C_3
REMARK    3  A    between atoms: N_2  and  C_4
REMARK    4  A    between atoms: C_7  and  C_10
REMARK    5  A    between atoms: C_10  and  O_11
REMARK                            x       y       z     vdW  Elec       q    Type
REMARK                         _______ _______ _______ _____ _____    ______ ____
ROOT
ATOM      1  C   UNL     1       9.282  -1.009  24.959  0.00  0.00    +0.029 A 
ATOM      2  C   UNL     1       9.741  -1.985  24.058  0.00  0.00    +0.024 A 
ATOM      3  C   UNL     1       9.595  -3.358  24.313  0.00  0.00    +0.017 A 
ATOM      4  C   UNL     1       8.959  -3.792  25.474  0.00  0.00    +0.059 A 
ATOM      5  C   UNL     1       8.434  -2.850  26.355  0.00  0.00    +0.017 A 
ATOM      6  C   UNL     1       8.604  -1.482  26.097  0.00  0.00    +0.024 A 
ENDROOT
BRANCH   1   8
ATOM      7  C   UNL     1      10.801   0.837  24.446  0.00  0.00    +0.129 C 
ATOM      8  N   UNL     1       9.451   0.360  24.746  0.00  0.00    -0.336 N 
ATOM      9  C   UNL     1       8.344   1.174  24.252  0.00  0.00    +0.129 C 
ENDBRANCH   1   8
BRANCH   4  10
ATOM     10  C   UNL     1       8.833  -5.250  25.718  0.00  0.00    +0.337 C 
ATOM     11  O   UNL     1       7.895  -5.746  26.318  0.00  0.00    -0.245 OA
BRANCH  10  12
ATOM     12  O   UNL     1       9.826  -5.979  25.164  0.00  0.00    -0.477 OA
ATOM     13  H   UNL     1      10.318  -5.530  24.451  0.00  0.00    +0.295 HD
ENDBRANCH  10  12
ENDBRANCH   4  10
TORSDOF 3
ENDMDL
MODEL 7
REMARK VINA RESULT:      -4.5      4.293      6.048
REMARK  Name = 
REMARK  5 active torsions:
REMARK  status: ('A' for Active; 'I' for Inactive)
REMARK    1  A    between atoms: C_1  and  N_2
REMARK    2  A    between atoms: N_2  and  C_3
REMARK    3  A    between atoms: N_2  and  C_4
REMARK    4  A    between atoms: C_7  and  C_10
REMARK    5  A    between atoms: C_10  and  O_11
REMARK                            x       y       z     vdW  Elec       q    Type
REMARK                         _______ _______ _______ _____ _____    ______ ____
ROOT
ATOM      1  C   UNL     1       8.388  -2.917  24.101  0.00  0.00    +0.029 A 
ATOM      2  C   UNL     1       8.393  -4.305  24.321  0.00  0.00    +0.024 A 
ATOM      3  C   UNL     1       7.718  -5.195  23.471  0.00  0.00    +0.017 A 
ATOM      4  C   UNL     1       7.034  -4.716  22.354  0.00  0.00    +0.059 A 
ATOM      5  C   UNL     1       7.066  -3.353  22.071  0.00  0.00    +0.017 A 
ATOM      6  C   UNL     1       7.728  -2.474  22.940  0.00  0.00    +0.024 A 
ENDROOT
BRANCH   1   8
ATOM      7  C   UNL     1       9.728  -0.888  24.345  0.00  0.00    +0.129 C 
ATOM      8  N   UNL     1       9.018  -2.011  24.955  0.00  0.00    -0.336 N 
ATOM      9  C   UNL     1       8.527  -1.814  26.316  0.00  0.00    +0.129 C 
ENDBRANCH   1   8
BRANCH   4  10
ATOM     10  C   UNL     1       6.321  -5.682  21.483  0.00  0.00    +0.337 C 
ATOM     11  O   UNL     1       5.943  -5.410  20.357  0.00  0.00    -0.245 OA
BRANCH  10  12
ATOM     12  O   UNL     1       6.182  -6.907  22.034  0.00  0.00    -0.477 OA
ATOM     13  H   UNL     1       6.566  -7.004  22.926  0.00  0.00    +0.295 HD
ENDBRANCH  10  12
ENDBRANCH   4  10
TORSDOF 3
ENDMDL
MODEL 8
REMARK VINA RESULT:      -4.4      3.915      5.139
REMARK  Name = 
REMARK  5 active torsions:
REMARK  status: ('A' for Active; 'I' for Inactive)
REMARK    1  A    between atoms: C_1  and  N_2
REMARK    2  A    between atoms: N_2  and  C_3
REMARK    3  A    between atoms: N_2  and  C_4
REMARK    4  A    between atoms: C_7  and  C_10
REMARK    5  A    between atoms: C_10  and  O_11
REMARK                            x       y       z     vdW  Elec       q    Type
REMARK                         _______ _______ _______ _____ _____    ______ ____
ROOT
ATOM      1  C   UNL     1       8.298  -1.823  23.189  0.00  0.00    +0.029 A 
ATOM      2  C   UNL     1       7.873  -3.091  22.754  0.00  0.00    +0.024 A 
ATOM      3  C   UNL     1       7.987  -4.230  23.566  0.00  0.00    +0.017 A 
ATOM      4  C   UNL     1       8.509  -4.125  24.854  0.00  0.00    +0.059 A 
ATOM      5  C   UNL     1       8.876  -2.872  25.339  0.00  0.00    +0.017 A 
ATOM      6  C   UNL     1       8.776  -1.746  24.509  0.00  0.00    +0.024 A 
ENDROOT
BRANCH   1   8
ATOM      7  C   UNL     1       7.365   0.407  22.825  0.00  0.00    +0.129 C 
ATOM      8  N   UNL     1       8.233  -0.684  22.384  0.00  0.00    -0.336 N 
ATOM      9  C   UNL     1       9.355  -0.322  21.524  0.00  0.00    +0.129 C 
ENDBRANCH   1   8
BRANCH   4  10
ATOM     10  C   UNL     1       8.626  -5.351  25.682  0.00  0.00    +0.337 C 
ATOM     11  O   UNL     1       7.720  -5.772  26.379  0.00  0.00    -0.245 OA
BRANCH  10  12
ATOM     12  O   UNL     1       9.810  -5.986  25.543  0.00  0.00    -0.477 OA
ATOM     13  H   UNL     1      10.402  -5.926  26.316  0.00  0.00    +0.295 HD
ENDBRANCH  10  12
ENDBRANCH   4  10
TORSDOF 3
ENDMDL
MODEL 9
REMARK VINA RESULT:      -4.4      2.470      3.599
REMARK  Name = 
REMARK  5 active torsions:
REMARK  status: ('A' for Active; 'I' for Inactive)
REMARK    1  A    between atoms: C_1  and  N_2
REMARK    2  A    between atoms: N_2  and  C_3
REMARK    3  A    between atoms: N_2  and  C_4
REMARK    4  A    between atoms: C_7  and  C_10
REMARK    5  A    between atoms: C_10  and  O_11
REMARK                            x       y       z     vdW  Elec       q    Type
REMARK                         _______ _______ _______ _____ _____    ______ ____
ROOT
ATOM      1  C   UNL     1       9.610  -0.566  23.163  0.00  0.00    +0.029 A 
ATOM      2  C   UNL     1       8.805  -1.167  22.180  0.00  0.00    +0.024 A 
ATOM      3  C   UNL     1       8.266  -2.453  22.346  0.00  0.00    +0.017 A 
ATOM      4  C   UNL     1       8.499  -3.165  23.521  0.00  0.00    +0.059 A 
ATOM      5  C   UNL     1       9.237  -2.571  24.542  0.00  0.00    +0.017 A 
ATOM      6  C   UNL     1       9.786  -1.294  24.354  0.00  0.00    +0.024 A 
ENDROOT
BRANCH   1   8
ATOM      7  C   UNL     1       9.753   1.500  21.865  0.00  0.00    +0.129 C 
ATOM      8  N   UNL     1      10.190   0.693  23.003  0.00  0.00    -0.336 N 
ATOM      9  C   UNL     1      10.713   1.418  24.157  0.00  0.00    +0.129 C 
ENDBRANCH   1   8
BRANCH   4  10
ATOM     10  C   UNL     1       7.925  -4.526  23.659  0.00  0.00    +0.337 C 
ATOM     11  O   UNL     1       6.775  -4.796  23.359  0.00  0.00    -0.245 OA
BRANCH  10  12
ATOM     12  O   UNL     1       8.812  -5.447  24.094  0.00  0.00    -0.477 OA
ATOM     13  H   UNL     1       9.700  -5.382  23.697  0.00  0.00    +0.295 HD
ENDBRANCH  10  12
ENDBRANCH   4  10
TORSDOF 3
ENDMDL
