MODEL 1
REMARK VINA RESULT:      -7.1      0.000      0.000
REMARK  Name = 
REMARK  13 active torsions:
REMARK  status: ('A' for Active; 'I' for Inactive)
REMARK    1  A    between atoms: C_1  and  O_2
REMARK    2  A    between atoms: O_2  and  C_3
REMARK    3  A    between atoms: C_3  and  N_4
REMARK    4  A    between atoms: C_3  and  C_19
REMARK    5  A    between atoms: C_3  and  C_30
REMARK    6  A    between atoms: C_5  and  C_7
REMARK    7  A    between atoms: C_7  and  C_9
REMARK    8  A    between atoms: C_7  and  C_12
REMARK    9  A    between atoms: C_9  and  O_10
REMARK   10  A    between atoms: C_15  and  O_16
REMARK   11  A    between atoms: CA_25  and  C_27
REMARK   12  A    between atoms: C_27  and  O_28
REMARK   13  A    between atoms: C_30  and  O_31
REMARK                            x       y       z     vdW  Elec       q    Type
REMARK                         _______ _______ _______ _____ _____    ______ ____
ROOT
ATOM      1  C   UNL     1       6.359  -0.554  25.640  0.00  0.00    +0.282 C 
ENDROOT
BRANCH   1   2
ATOM      2  C   UNL     1       6.995  -0.013  24.268  0.00  0.00    +0.298 C 
ATOM      3  N   UNL     1       7.880  -1.040  23.673  0.00  0.00    -0.240 NA
ATOM      4  CA  UNL     1       9.146  -0.790  23.744  0.00  0.00    +0.150 C 
ATOM      5  C   UNL     1       9.767   0.445  24.297  0.00  0.00    +0.003 C 
ATOM      6  C   UNL     1      11.090   0.676  24.295  0.00  0.00    +0.017 C 
ATOM      7  C   UNL     1       8.802   1.459  24.822  0.00  0.00    +0.199 C 
ATOM      8  O   UNL     1       7.501   1.319  24.282  0.00  0.00    -0.346 OA
BRANCH   4   9
ATOM      9  C   UNL     1      10.027  -1.887  23.115  0.00  0.00    +0.355 C 
ATOM     10  OXT UNL     1      10.421  -2.883  23.684  0.00  0.00    -0.243 OA
BRANCH   9  11
ATOM     11  O   UNL     1      10.264  -1.586  21.822  0.00  0.00    -0.476 OA
ATOM     12  H   UNL     1       9.400  -1.549  21.348  0.00  0.00    +0.295 HD
ENDBRANCH   9  11
ENDBRANCH   4   9
ENDBRANCH   1   2
BRANCH   1  13
ATOM     13  N   UNL     1       6.277  -2.026  25.643  0.00  0.00    -0.274 N 
ATOM     14  H   UNL     1       5.499  -2.422  25.126  0.00  0.00    +0.152 HD
ATOM     15  C   UNL     1       7.175  -2.898  26.182  0.00  0.00    +0.234 C 
ATOM     16  O   UNL     1       8.258  -2.494  26.610  0.00  0.00    -0.274 OA
BRANCH  15  17
ATOM     17  C   UNL     1       6.771  -4.375  26.254  0.00  0.00    +0.213 C 
BRANCH  17  18
ATOM     18  C   UNL     1       6.513  -4.923  24.856  0.00  0.00    -0.025 A 
ATOM     19  C   UNL     1       5.308  -5.574  24.544  0.00  0.00    +0.008 A 
ATOM     20  C   UNL     1       5.082  -6.062  23.255  0.00  0.00    +0.046 A 
ATOM     21  C   UNL     1       6.051  -5.905  22.274  0.00  0.00    +0.117 A 
ATOM     22  C   UNL     1       7.259  -5.282  22.564  0.00  0.00    +0.046 A 
ATOM     23  C   UNL     1       7.490  -4.795  23.854  0.00  0.00    +0.008 A 
BRANCH  21  24
ATOM     24  O   UNL     1       5.776  -6.383  21.028  0.00  0.00    -0.507 OA
ATOM     25  H   UNL     1       6.587  -6.750  20.640  0.00  0.00    +0.292 HD
ENDBRANCH  21  24
ENDBRANCH  17  18
BRANCH  17  26
ATOM     26  C   UNL     1       7.696  -5.263  27.071  0.00  0.00    +0.321 C 
ATOM     27  O   UNL     1       7.319  -6.025  27.948  0.00  0.00    -0.250 OA
BRANCH  26  28
ATOM     28  O   UNL     1       9.004  -5.188  26.734  0.00  0.00    -0.480 OA
ATOM     29  H   UNL     1       9.612  -5.017  27.480  0.00  0.00    +0.295 HD
ENDBRANCH  26  28
ENDBRANCH  17  26
ENDBRANCH  15  17
ENDBRANCH   1  13
BRANCH   1  31
ATOM     30  C   UNL     1       6.769   0.509  27.807  0.00  0.00    +0.197 C 
ATOM     31  O   UNL     1       7.282  -0.224  26.696  0.00  0.00    -0.347 OA
ENDBRANCH   1  31
BRANCH   1  32
ATOM     32  C   UNL     1       4.931   0.099  25.770  0.00  0.00    +0.361 C 
ATOM     33  O   UNL     1       3.997  -0.397  26.389  0.00  0.00    -0.246 OA
BRANCH  32  34
ATOM     34  O   UNL     1       4.774   1.298  25.149  0.00  0.00    -0.477 OA
ATOM     35  H   UNL     1       4.807   2.084  25.747  0.00  0.00    +0.295 HD
ENDBRANCH  32  34
ENDBRANCH   1  32
TORSDOF 12
ENDMDL
MODEL 2
REMARK VINA RESULT:      -7.1      2.815      7.735
REMARK  Name = 
REMARK  13 active torsions:
REMARK  status: ('A' for Active; 'I' for Inactive)
REMARK    1  A    between atoms: C_1  and  O_2
REMARK    2  A    between atoms: O_2  and  C_3
REMARK    3  A    between atoms: C_3  and  N_4
REMARK    4  A    between atoms: C_3  and  C_19
REMARK    5  A    between atoms: C_3  and  C_30
REMARK    6  A    between atoms: C_5  and  C_7
REMARK    7  A    between atoms: C_7  and  C_9
REMARK    8  A    between atoms: C_7  and  C_12
REMARK    9  A    between atoms: C_9  and  O_10
REMARK   10  A    between atoms: C_15  and  O_16
REMARK   11  A    between atoms: CA_25  and  C_27
REMARK   12  A    between atoms: C_27  and  O_28
REMARK   13  A    between atoms: C_30  and  O_31
REMARK                            x       y       z     vdW  Elec       q    Type
REMARK                         _______ _______ _______ _____ _____    ______ ____
ROOT
ATOM      1  C   UNL     1       9.214  -0.645  23.811  0.00  0.00    +0.282 C 
ENDROOT
BRANCH   1   2
ATOM      2  C   UNL     1       7.995  -1.525  24.375  0.00  0.00    +0.298 C 
ATOM      3  N   UNL     1       8.510  -2.697  25.117  0.00  0.00    -0.240 NA
ATOM      4  CA  UNL     1       8.366  -3.836  24.524  0.00  0.00    +0.150 C 
ATOM      5  C   UNL     1       7.680  -4.067  23.223  0.00  0.00    +0.003 C 
ATOM      6  C   UNL     1       7.510  -5.283  22.678  0.00  0.00    +0.017 C 
ATOM      7  C   UNL     1       7.134  -2.839  22.567  0.00  0.00    +0.199 C 
ATOM      8  O   UNL     1       6.919  -1.775  23.475  0.00  0.00    -0.346 OA
BRANCH   4   9
ATOM      9  C   UNL     1       8.918  -5.027  25.333  0.00  0.00    +0.355 C 
ATOM     10  OXT UNL     1       8.282  -5.697  26.118  0.00  0.00    -0.243 OA
BRANCH   9  11
ATOM     11  O   UNL     1      10.211  -5.229  25.007  0.00  0.00    -0.476 OA
ATOM     12  H   UNL     1      10.523  -6.043  25.469  0.00  0.00    +0.295 HD
ENDBRANCH   9  11
ENDBRANCH   4   9
ENDBRANCH   1   2
BRANCH   1  13
ATOM     13  N   UNL     1       8.752   0.686  23.375  0.00  0.00    -0.274 N 
ATOM     14  H   UNL     1       8.733   0.836  22.372  0.00  0.00    +0.152 HD
ATOM     15  C   UNL     1       8.267   1.686  24.163  0.00  0.00    +0.234 C 
ATOM     16  O   UNL     1       8.036   1.484  25.357  0.00  0.00    -0.274 OA
BRANCH  15  17
ATOM     17  C   UNL     1       8.051   3.057  23.513  0.00  0.00    +0.213 C 
BRANCH  17  18
ATOM     18  C   UNL     1       9.320   3.895  23.605  0.00  0.00    -0.025 A 
ATOM     19  C   UNL     1      10.573   3.349  23.283  0.00  0.00    +0.008 A 
ATOM     20  C   UNL     1      11.726   4.133  23.362  0.00  0.00    +0.046 A 
ATOM     21  C   UNL     1      11.637   5.459  23.762  0.00  0.00    +0.117 A 
ATOM     22  C   UNL     1      10.411   6.015  24.104  0.00  0.00    +0.046 A 
ATOM     23  C   UNL     1       9.255   5.233  24.029  0.00  0.00    +0.008 A 
BRANCH  21  24
ATOM     24  O   UNL     1      12.788   6.186  23.807  0.00  0.00    -0.507 OA
ATOM     25  H   UNL     1      13.138   6.176  24.712  0.00  0.00    +0.292 HD
ENDBRANCH  21  24
ENDBRANCH  17  18
BRANCH  17  26
ATOM     26  C   UNL     1       7.469   3.025  22.107  0.00  0.00    +0.321 C 
ATOM     27  O   UNL     1       7.721   2.164  21.279  0.00  0.00    -0.250 OA
BRANCH  26  28
ATOM     28  O   UNL     1       6.597   4.021  21.829  0.00  0.00    -0.480 OA
ATOM     29  H   UNL     1       6.961   4.749  21.288  0.00  0.00    +0.295 HD
ENDBRANCH  26  28
ENDBRANCH  17  26
ENDBRANCH  15  17
ENDBRANCH   1  13
BRANCH   1  31
ATOM     30  C   UNL     1      11.280   0.370  24.647  0.00  0.00    +0.197 C 
ATOM     31  O   UNL     1      10.105  -0.393  24.915  0.00  0.00    -0.347 OA
ENDBRANCH   1  31
BRANCH   1  32
ATOM     32  C   UNL     1       9.844  -1.453  22.613  0.00  0.00    +0.361 C 
ATOM     33  O   UNL     1      10.674  -2.345  22.741  0.00  0.00    -0.246 OA
BRANCH  32  34
ATOM     34  O   UNL     1       9.397  -1.113  21.375  0.00  0.00    -0.477 OA
ATOM     35  H   UNL     1       8.798  -1.776  20.952  0.00  0.00    +0.295 HD
ENDBRANCH  32  34
ENDBRANCH   1  32
TORSDOF 12
ENDMDL
MODEL 3
REMARK VINA RESULT:      -6.9      1.547      2.410
REMARK  Name = 
REMARK  13 active torsions:
REMARK  status: ('A' for Active; 'I' for Inactive)
REMARK    1  A    between atoms: C_1  and  O_2
REMARK    2  A    between atoms: O_2  and  C_3
REMARK    3  A    between atoms: C_3  and  N_4
REMARK    4  A    between atoms: C_3  and  C_19
REMARK    5  A    between atoms: C_3  and  C_30
REMARK    6  A    between atoms: C_5  and  C_7
REMARK    7  A    between atoms: C_7  and  C_9
REMARK    8  A    between atoms: C_7  and  C_12
REMARK    9  A    between atoms: C_9  and  O_10
REMARK   10  A    between atoms: C_15  and  O_16
REMARK   11  A    between atoms: CA_25  and  C_27
REMARK   12  A    between atoms: C_27  and  O_28
REMARK   13  A    between atoms: C_30  and  O_31
REMARK                            x       y       z     vdW  Elec       q    Type
REMARK                         _______ _______ _______ _____ _____    ______ ____
ROOT
ATOM      1  C   UNL     1       7.023  -0.512  25.828  0.00  0.00    +0.282 C 
ENDROOT
BRANCH   1   2
ATOM      2  C   UNL     1       8.419   0.181  25.438  0.00  0.00    +0.298 C 
ATOM      3  N   UNL     1       8.236   1.083  24.279  0.00  0.00    -0.240 NA
ATOM      4  CA  UNL     1       8.737   0.662  23.164  0.00  0.00    +0.150 C 
ATOM      5  C   UNL     1       9.522  -0.588  22.971  0.00  0.00    +0.003 C 
ATOM      6  C   UNL     1      10.068  -0.949  21.798  0.00  0.00    +0.017 C 
ATOM      7  C   UNL     1       9.714  -1.412  24.204  0.00  0.00    +0.199 C 
ATOM      8  O   UNL     1       9.562  -0.668  25.398  0.00  0.00    -0.346 OA
BRANCH   4   9
ATOM      9  C   UNL     1       8.520   1.633  21.986  0.00  0.00    +0.355 C 
ATOM     10  OXT UNL     1       7.457   1.853  21.445  0.00  0.00    -0.243 OA
BRANCH   9  11
ATOM     11  O   UNL     1       9.690   2.226  21.671  0.00  0.00    -0.476 OA
ATOM     12  H   UNL     1       9.542   2.806  20.888  0.00  0.00    +0.295 HD
ENDBRANCH   9  11
ENDBRANCH   4   9
ENDBRANCH   1   2
BRANCH   1  13
ATOM     13  N   UNL     1       7.179  -1.971  25.979  0.00  0.00    -0.274 N 
ATOM     14  H   UNL     1       8.107  -2.334  25.793  0.00  0.00    +0.152 HD
ATOM     15  C   UNL     1       6.242  -2.856  26.422  0.00  0.00    +0.234 C 
ATOM     16  O   UNL     1       5.176  -2.453  26.892  0.00  0.00    -0.274 OA
BRANCH  15  17
ATOM     17  C   UNL     1       6.560  -4.349  26.288  0.00  0.00    +0.213 C 
BRANCH  17  18
ATOM     18  C   UNL     1       6.299  -4.822  24.865  0.00  0.00    -0.025 A 
ATOM     19  C   UNL     1       7.350  -4.967  23.945  0.00  0.00    +0.008 A 
ATOM     20  C   UNL     1       7.097  -5.412  22.645  0.00  0.00    +0.046 A 
ATOM     21  C   UNL     1       5.799  -5.714  22.257  0.00  0.00    +0.117 A 
ATOM     22  C   UNL     1       4.740  -5.560  23.144  0.00  0.00    +0.046 A 
ATOM     23  C   UNL     1       4.990  -5.112  24.444  0.00  0.00    +0.008 A 
BRANCH  21  24
ATOM     24  O   UNL     1       5.606  -6.161  20.985  0.00  0.00    -0.507 OA
ATOM     25  H   UNL     1       5.399  -5.407  20.409  0.00  0.00    +0.292 HD
ENDBRANCH  21  24
ENDBRANCH  17  18
BRANCH  17  26
ATOM     26  C   UNL     1       7.927  -4.771  26.806  0.00  0.00    +0.321 C 
ATOM     27  O   UNL     1       8.942  -4.101  26.690  0.00  0.00    -0.250 OA
BRANCH  26  28
ATOM     28  O   UNL     1       7.949  -5.956  27.458  0.00  0.00    -0.480 OA
ATOM     29  H   UNL     1       8.580  -6.004  28.203  0.00  0.00    +0.295 HD
ENDBRANCH  26  28
ENDBRANCH  17  26
ENDBRANCH  15  17
ENDBRANCH   1  13
BRANCH   1  31
ATOM     30  C   UNL     1       7.168   1.242  27.530  0.00  0.00    +0.197 C 
ATOM     31  O   UNL     1       6.662  -0.033  27.138  0.00  0.00    -0.347 OA
ENDBRANCH   1  31
BRANCH   1  32
ATOM     32  C   UNL     1       6.002  -0.161  24.680  0.00  0.00    +0.361 C 
ATOM     33  O   UNL     1       5.201   0.766  24.727  0.00  0.00    -0.246 OA
BRANCH  32  34
ATOM     34  O   UNL     1       6.057  -0.957  23.580  0.00  0.00    -0.477 OA
ATOM     35  H   UNL     1       6.573  -1.791  23.696  0.00  0.00    +0.295 HD
ENDBRANCH  32  34
ENDBRANCH   1  32
TORSDOF 12
ENDMDL
MODEL 4
REMARK VINA RESULT:      -6.9      2.227      6.588
REMARK  Name = 
REMARK  13 active torsions:
REMARK  status: ('A' for Active; 'I' for Inactive)
REMARK    1  A    between atoms: C_1  and  O_2
REMARK    2  A    between atoms: O_2  and  C_3
REMARK    3  A    between atoms: C_3  and  N_4
REMARK    4  A    between atoms: C_3  and  C_19
REMARK    5  A    between atoms: C_3  and  C_30
REMARK    6  A    between atoms: C_5  and  C_7
REMARK    7  A    between atoms: C_7  and  C_9
REMARK    8  A    between atoms: C_7  and  C_12
REMARK    9  A    between atoms: C_9  and  O_10
REMARK   10  A    between atoms: C_15  and  O_16
REMARK   11  A    between atoms: CA_25  and  C_27
REMARK   12  A    between atoms: C_27  and  O_28
REMARK   13  A    between atoms: C_30  and  O_31
REMARK                            x       y       z     vdW  Elec       q    Type
REMARK                         _______ _______ _______ _____ _____    ______ ____
ROOT
ATOM      1  C   UNL     1       7.974  -3.955  24.371  0.00  0.00    +0.282 C 
ENDROOT
BRANCH   1   2
ATOM      2  C   UNL     1       7.015  -4.861  25.287  0.00  0.00    +0.298 C 
ATOM      3  N   UNL     1       6.122  -5.682  24.440  0.00  0.00    -0.240 NA
ATOM      4  CA  UNL     1       4.882  -5.316  24.424  0.00  0.00    +0.150 C 
ATOM      5  C   UNL     1       4.283  -4.212  25.223  0.00  0.00    +0.003 C 
ATOM      6  C   UNL     1       2.974  -3.911  25.209  0.00  0.00    +0.017 C 
ATOM      7  C   UNL     1       5.242  -3.472  26.100  0.00  0.00    +0.199 C 
ATOM      8  O   UNL     1       6.406  -4.217  26.403  0.00  0.00    -0.346 OA
BRANCH   4   9
ATOM      9  C   UNL     1       3.991  -6.198  23.527  0.00  0.00    +0.355 C 
ATOM     10  OXT UNL     1       3.411  -5.823  22.530  0.00  0.00    -0.243 OA
BRANCH   9  11
ATOM     11  O   UNL     1       3.984  -7.460  24.003  0.00  0.00    -0.476 OA
ATOM     12  H   UNL     1       3.055  -7.792  23.987  0.00  0.00    +0.295 HD
ENDBRANCH   9  11
ENDBRANCH   4   9
ENDBRANCH   1   2
BRANCH   1  13
ATOM     13  N   UNL     1       8.317  -2.691  25.049  0.00  0.00    -0.274 N 
ATOM     14  H   UNL     1       7.886  -2.550  25.956  0.00  0.00    +0.152 HD
ATOM     15  C   UNL     1       9.211  -1.751  24.631  0.00  0.00    +0.234 C 
ATOM     16  O   UNL     1       9.945  -1.973  23.666  0.00  0.00    -0.274 OA
BRANCH  15  17
ATOM     17  C   UNL     1       9.243  -0.420  25.390  0.00  0.00    +0.213 C 
BRANCH  17  18
ATOM     18  C   UNL     1       8.865   0.728  24.463  0.00  0.00    -0.025 A 
ATOM     19  C   UNL     1       9.625   1.909  24.425  0.00  0.00    +0.008 A 
ATOM     20  C   UNL     1       9.272   2.949  23.562  0.00  0.00    +0.046 A 
ATOM     21  C   UNL     1       8.164   2.819  22.736  0.00  0.00    +0.117 A 
ATOM     22  C   UNL     1       7.385   1.669  22.771  0.00  0.00    +0.046 A 
ATOM     23  C   UNL     1       7.734   0.627  23.635  0.00  0.00    +0.008 A 
BRANCH  21  24
ATOM     24  O   UNL     1       7.871   3.855  21.901  0.00  0.00    -0.507 OA
ATOM     25  H   UNL     1       7.233   4.444  22.334  0.00  0.00    +0.292 HD
ENDBRANCH  21  24
ENDBRANCH  17  18
BRANCH  17  26
ATOM     26  C   UNL     1       8.467  -0.398  26.698  0.00  0.00    +0.321 C 
ATOM     27  O   UNL     1       7.249  -0.445  26.775  0.00  0.00    -0.250 OA
BRANCH  26  28
ATOM     28  O   UNL     1       9.231  -0.359  27.814  0.00  0.00    -0.480 OA
ATOM     29  H   UNL     1       9.731   0.471  27.942  0.00  0.00    +0.295 HD
ENDBRANCH  26  28
ENDBRANCH  17  26
ENDBRANCH  15  17
ENDBRANCH   1  13
BRANCH   1  31
ATOM     30  C   UNL     1       9.746  -5.299  25.393  0.00  0.00    +0.197 C 
ATOM     31  O   UNL     1       9.221  -4.661  24.231  0.00  0.00    -0.347 OA
ENDBRANCH   1  31
BRANCH   1  32
ATOM     32  C   UNL     1       7.199  -3.689  23.024  0.00  0.00    +0.361 C 
ATOM     33  O   UNL     1       6.500  -2.705  22.810  0.00  0.00    -0.246 OA
BRANCH  32  34
ATOM     34  O   UNL     1       7.356  -4.633  22.059  0.00  0.00    -0.477 OA
ATOM     35  H   UNL     1       6.521  -5.075  21.769  0.00  0.00    +0.295 HD
ENDBRANCH  32  34
ENDBRANCH   1  32
TORSDOF 12
ENDMDL
MODEL 5
REMARK VINA RESULT:      -6.8      2.963      7.671
REMARK  Name = 
REMARK  13 active torsions:
REMARK  status: ('A' for Active; 'I' for Inactive)
REMARK    1  A    between atoms: C_1  and  O_2
REMARK    2  A    between atoms: O_2  and  C_3
REMARK    3  A    between atoms: C_3  and  N_4
REMARK    4  A    between atoms: C_3  and  C_19
REMARK    5  A    between atoms: C_3  and  C_30
REMARK    6  A    between atoms: C_5  and  C_7
REMARK    7  A    between atoms: C_7  and  C_9
REMARK    8  A    between atoms: C_7  and  C_12
REMARK    9  A    between atoms: C_9  and  O_10
REMARK   10  A    between atoms: C_15  and  O_16
REMARK   11  A    between atoms: CA_25  and  C_27
REMARK   12  A    between atoms: C_27  and  O_28
REMARK   13  A    between atoms: C_30  and  O_31
REMARK                            x       y       z     vdW  Elec       q    Type
REMARK                         _______ _______ _______ _____ _____    ______ ____
ROOT
ATOM      1  C   UNL     1       8.227  -0.293  24.451  0.00  0.00    +0.282 C 
ENDROOT
BRANCH   1   2
ATOM      2  C   UNL     1       8.714  -1.342  23.337  0.00  0.00    +0.298 C 
ATOM      3  N   UNL     1       7.551  -1.879  22.595  0.00  0.00    -0.240 NA
ATOM      4  CA  UNL     1       7.243  -3.106  22.860  0.00  0.00    +0.150 C 
ATOM      5  C   UNL     1       7.984  -4.020  23.771  0.00  0.00    +0.003 C 
ATOM      6  C   UNL     1       7.650  -5.306  23.967  0.00  0.00    +0.017 C 
ATOM      7  C   UNL     1       9.182  -3.419  24.435  0.00  0.00    +0.199 C 
ATOM      8  O   UNL     1       9.693  -2.294  23.744  0.00  0.00    -0.346 OA
BRANCH   4   9
ATOM      9  C   UNL     1       6.025  -3.620  22.066  0.00  0.00    +0.355 C 
ATOM     10  OXT UNL     1       6.072  -4.150  20.976  0.00  0.00    -0.243 OA
BRANCH   9  11
ATOM     11  O   UNL     1       4.903  -3.418  22.785  0.00  0.00    -0.476 OA
ATOM     12  H   UNL     1       4.993  -3.898  23.642  0.00  0.00    +0.295 HD
ENDBRANCH   9  11
ENDBRANCH   4   9
ENDBRANCH   1   2
BRANCH   1  13
ATOM     13  N   UNL     1       8.038   1.049  23.869  0.00  0.00    -0.274 N 
ATOM     14  H   UNL     1       7.782   1.070  22.888  0.00  0.00    +0.152 HD
ATOM     15  C   UNL     1       8.082   2.243  24.526  0.00  0.00    +0.234 C 
ATOM     16  O   UNL     1       8.147   2.276  25.756  0.00  0.00    -0.274 OA
BRANCH  15  17
ATOM     17  C   UNL     1       8.071   3.518  23.676  0.00  0.00    +0.213 C 
BRANCH  17  18
ATOM     18  C   UNL     1       9.443   4.178  23.692  0.00  0.00    -0.025 A 
ATOM     19  C   UNL     1       9.594   5.528  24.048  0.00  0.00    +0.008 A 
ATOM     20  C   UNL     1      10.860   6.118  24.069  0.00  0.00    +0.046 A 
ATOM     21  C   UNL     1      11.979   5.368  23.735  0.00  0.00    +0.117 A 
ATOM     22  C   UNL     1      11.853   4.035  23.360  0.00  0.00    +0.046 A 
ATOM     23  C   UNL     1      10.587   3.444  23.336  0.00  0.00    +0.008 A 
BRANCH  21  24
ATOM     24  O   UNL     1      13.193   5.983  23.787  0.00  0.00    -0.507 OA
ATOM     25  H   UNL     1      13.643   5.875  22.933  0.00  0.00    +0.292 HD
ENDBRANCH  21  24
ENDBRANCH  17  18
BRANCH  17  26
ATOM     26  C   UNL     1       7.514   3.357  22.270  0.00  0.00    +0.321 C 
ATOM     27  O   UNL     1       7.867   2.491  21.485  0.00  0.00    -0.250 OA
BRANCH  26  28
ATOM     28  O   UNL     1       6.541   4.238  21.938  0.00  0.00    -0.480 OA
ATOM     29  H   UNL     1       5.882   3.902  21.299  0.00  0.00    +0.295 HD
ENDBRANCH  26  28
ENDBRANCH  17  26
ENDBRANCH  15  17
ENDBRANCH   1  13
BRANCH   1  31
ATOM     30  C   UNL     1       5.818   0.137  24.540  0.00  0.00    +0.197 C 
ATOM     31  O   UNL     1       6.916  -0.707  24.881  0.00  0.00    -0.347 OA
ENDBRANCH   1  31
BRANCH   1  32
ATOM     32  C   UNL     1       9.329  -0.279  25.578  0.00  0.00    +0.361 C 
ATOM     33  O   UNL     1       9.179  -0.751  26.698  0.00  0.00    -0.246 OA
BRANCH  32  34
ATOM     34  O   UNL     1      10.513   0.295  25.235  0.00  0.00    -0.477 OA
ATOM     35  H   UNL     1      10.730   0.257  24.271  0.00  0.00    +0.295 HD
ENDBRANCH  32  34
ENDBRANCH   1  32
TORSDOF 12
ENDMDL
MODEL 6
REMARK VINA RESULT:      -6.8      1.716      2.161
REMARK  Name = 
REMARK  13 active torsions:
REMARK  status: ('A' for Active; 'I' for Inactive)
REMARK    1  A    between atoms: C_1  and  O_2
REMARK    2  A    between atoms: O_2  and  C_3
REMARK    3  A    between atoms: C_3  and  N_4
REMARK    4  A    between atoms: C_3  and  C_19
REMARK    5  A    between atoms: C_3  and  C_30
REMARK    6  A    between atoms: C_5  and  C_7
REMARK    7  A    between atoms: C_7  and  C_9
REMARK    8  A    between atoms: C_7  and  C_12
REMARK    9  A    between atoms: C_9  and  O_10
REMARK   10  A    between atoms: C_15  and  O_16
REMARK   11  A    between atoms: CA_25  and  C_27
REMARK   12  A    between atoms: C_27  and  O_28
REMARK   13  A    between atoms: C_30  and  O_31
REMARK                            x       y       z     vdW  Elec       q    Type
REMARK                         _______ _______ _______ _____ _____    ______ ____
ROOT
ATOM      1  C   UNL     1       6.942  -0.528  25.712  0.00  0.00    +0.282 C 
ENDROOT
BRANCH   1   2
ATOM      2  C   UNL     1       6.842  -0.013  24.194  0.00  0.00    +0.298 C 
ATOM      3  N   UNL     1       7.769  -0.779  23.331  0.00  0.00    -0.240 NA
ATOM      4  CA  UNL     1       8.813  -0.132  22.927  0.00  0.00    +0.150 C 
ATOM      5  C   UNL     1       9.113   1.302  23.193  0.00  0.00    +0.003 C 
ATOM      6  C   UNL     1      10.188   1.939  22.700  0.00  0.00    +0.017 C 
ATOM      7  C   UNL     1       8.096   2.020  24.021  0.00  0.00    +0.199 C 
ATOM      8  O   UNL     1       6.825   1.398  24.000  0.00  0.00    -0.346 OA
BRANCH   4   9
ATOM      9  C   UNL     1       9.749  -0.970  22.034  0.00  0.00    +0.355 C 
ATOM     10  OXT UNL     1      10.591  -1.745  22.435  0.00  0.00    -0.243 OA
BRANCH   9  11
ATOM     11  O   UNL     1       9.465  -0.733  20.738  0.00  0.00    -0.476 OA
ATOM     12  H   UNL     1       8.533  -1.008  20.569  0.00  0.00    +0.295 HD
ENDBRANCH   9  11
ENDBRANCH   4   9
ENDBRANCH   1   2
BRANCH   1  13
ATOM     13  N   UNL     1       7.246  -1.970  25.765  0.00  0.00    -0.274 N 
ATOM     14  H   UNL     1       8.150  -2.213  26.157  0.00  0.00    +0.152 HD
ATOM     15  C   UNL     1       6.416  -2.998  25.432  0.00  0.00    +0.234 C 
ATOM     16  O   UNL     1       5.228  -2.784  25.181  0.00  0.00    -0.274 OA
BRANCH  15  17
ATOM     17  C   UNL     1       7.023  -4.403  25.362  0.00  0.00    +0.213 C 
BRANCH  17  18
ATOM     18  C   UNL     1       5.947  -5.431  25.040  0.00  0.00    -0.025 A 
ATOM     19  C   UNL     1       5.317  -6.164  26.058  0.00  0.00    +0.008 A 
ATOM     20  C   UNL     1       4.324  -7.096  25.749  0.00  0.00    +0.046 A 
ATOM     21  C   UNL     1       3.956  -7.303  24.426  0.00  0.00    +0.117 A 
ATOM     22  C   UNL     1       4.579  -6.605  23.399  0.00  0.00    +0.046 A 
ATOM     23  C   UNL     1       5.575  -5.673  23.706  0.00  0.00    +0.008 A 
BRANCH  21  24
ATOM     24  O   UNL     1       2.971  -8.210  24.177  0.00  0.00    -0.507 OA
ATOM     25  H   UNL     1       2.113  -7.825  24.418  0.00  0.00    +0.292 HD
ENDBRANCH  21  24
ENDBRANCH  17  18
BRANCH  17  26
ATOM     26  C   UNL     1       8.249  -4.538  24.471  0.00  0.00    +0.321 C 
ATOM     27  O   UNL     1       9.093  -5.413  24.591  0.00  0.00    -0.250 OA
BRANCH  26  28
ATOM     28  O   UNL     1       8.336  -3.623  23.478  0.00  0.00    -0.480 OA
ATOM     29  H   UNL     1       9.222  -3.537  23.074  0.00  0.00    +0.295 HD
ENDBRANCH  26  28
ENDBRANCH  17  26
ENDBRANCH  15  17
ENDBRANCH   1  13
BRANCH   1  31
ATOM     30  C   UNL     1       9.060  -0.711  26.926  0.00  0.00    +0.197 C 
ATOM     31  O   UNL     1       8.081   0.122  26.308  0.00  0.00    -0.347 OA
ENDBRANCH   1  31
BRANCH   1  32
ATOM     32  C   UNL     1       5.557  -0.211  26.394  0.00  0.00    +0.361 C 
ATOM     33  O   UNL     1       5.342  -0.297  27.598  0.00  0.00    -0.246 OA
BRANCH  32  34
ATOM     34  O   UNL     1       4.568   0.196  25.555  0.00  0.00    -0.477 OA
ATOM     35  H   UNL     1       4.845   0.318  24.614  0.00  0.00    +0.295 HD
ENDBRANCH  32  34
ENDBRANCH   1  32
TORSDOF 12
ENDMDL
MODEL 7
REMARK VINA RESULT:      -6.7      2.154      4.040
REMARK  Name = 
REMARK  13 active torsions:
REMARK  status: ('A' for Active; 'I' for Inactive)
REMARK    1  A    between atoms: C_1  and  O_2
REMARK    2  A    between atoms: O_2  and  C_3
REMARK    3  A    between atoms: C_3  and  N_4
REMARK    4  A    between atoms: C_3  and  C_19
REMARK    5  A    between atoms: C_3  and  C_30
REMARK    6  A    between atoms: C_5  and  C_7
REMARK    7  A    between atoms: C_7  and  C_9
REMARK    8  A    between atoms: C_7  and  C_12
REMARK    9  A    between atoms: C_9  and  O_10
REMARK   10  A    between atoms: C_15  and  O_16
REMARK   11  A    between atoms: CA_25  and  C_27
REMARK   12  A    between atoms: C_27  and  O_28
REMARK   13  A    between atoms: C_30  and  O_31
REMARK                            x       y       z     vdW  Elec       q    Type
REMARK                         _______ _______ _______ _____ _____    ______ ____
ROOT
ATOM      1  C   UNL     1       9.453  -0.194  23.567  0.00  0.00    +0.282 C 
ENDROOT
BRANCH   1   2
ATOM      2  C   UNL     1       8.417   0.958  23.145  0.00  0.00    +0.298 C 
ATOM      3  N   UNL     1       9.125   2.245  22.968  0.00  0.00    -0.240 NA
ATOM      4  CA  UNL     1       8.916   3.125  23.892  0.00  0.00    +0.150 C 
ATOM      5  C   UNL     1       7.990   2.980  25.048  0.00  0.00    +0.003 C 
ATOM      6  C   UNL     1       7.769   3.952  25.949  0.00  0.00    +0.017 C 
ATOM      7  C   UNL     1       7.266   1.674  25.121  0.00  0.00    +0.199 C 
ATOM      8  O   UNL     1       7.192   1.010  23.873  0.00  0.00    -0.346 OA
BRANCH   4   9
ATOM      9  C   UNL     1       9.676   4.447  23.666  0.00  0.00    +0.355 C 
ATOM     10  OXT UNL     1      10.818   4.667  24.011  0.00  0.00    -0.243 OA
BRANCH   9  11
ATOM     11  O   UNL     1       8.886   5.311  22.997  0.00  0.00    -0.476 OA
ATOM     12  H   UNL     1       8.571   4.869  22.173  0.00  0.00    +0.295 HD
ENDBRANCH   9  11
ENDBRANCH   4   9
ENDBRANCH   1   2
BRANCH   1  13
ATOM     13  N   UNL     1       8.746  -1.384  24.077  0.00  0.00    -0.274 N 
ATOM     14  H   UNL     1       7.758  -1.258  24.268  0.00  0.00    +0.152 HD
ATOM     15  C   UNL     1       9.254  -2.639  24.228  0.00  0.00    +0.234 C 
ATOM     16  O   UNL     1      10.371  -2.918  23.788  0.00  0.00    -0.274 OA
BRANCH  15  17
ATOM     17  C   UNL     1       8.395  -3.663  24.979  0.00  0.00    +0.213 C 
BRANCH  17  18
ATOM     18  C   UNL     1       7.446  -4.367  24.018  0.00  0.00    -0.025 A 
ATOM     19  C   UNL     1       6.090  -4.010  23.948  0.00  0.00    +0.008 A 
ATOM     20  C   UNL     1       5.234  -4.657  23.054  0.00  0.00    +0.046 A 
ATOM     21  C   UNL     1       5.723  -5.660  22.228  0.00  0.00    +0.117 A 
ATOM     22  C   UNL     1       7.057  -6.044  22.293  0.00  0.00    +0.046 A 
ATOM     23  C   UNL     1       7.915  -5.400  23.189  0.00  0.00    +0.008 A 
BRANCH  21  24
ATOM     24  O   UNL     1       4.852  -6.249  21.362  0.00  0.00    -0.507 OA
ATOM     25  H   UNL     1       4.303  -6.888  21.845  0.00  0.00    +0.292 HD
ENDBRANCH  21  24
ENDBRANCH  17  18
BRANCH  17  26
ATOM     26  C   UNL     1       9.165  -4.635  25.861  0.00  0.00    +0.321 C 
ATOM     27  O   UNL     1       8.834  -4.942  26.996  0.00  0.00    -0.250 OA
BRANCH  26  28
ATOM     28  O   UNL     1      10.255  -5.189  25.283  0.00  0.00    -0.480 OA
ATOM     29  H   UNL     1      10.178  -5.342  24.320  0.00  0.00    +0.295 HD
ENDBRANCH  26  28
ENDBRANCH  17  26
ENDBRANCH  15  17
ENDBRANCH   1  13
BRANCH   1  31
ATOM     30  C   UNL     1       9.335  -0.681  21.170  0.00  0.00    +0.197 C 
ATOM     31  O   UNL     1      10.114  -0.633  22.364  0.00  0.00    -0.347 OA
ENDBRANCH   1  31
BRANCH   1  32
ATOM     32  C   UNL     1      10.400   0.423  24.665  0.00  0.00    +0.361 C 
ATOM     33  O   UNL     1      11.458   0.994  24.425  0.00  0.00    -0.246 OA
BRANCH  32  34
ATOM     34  O   UNL     1       9.970   0.302  25.949  0.00  0.00    -0.477 OA
ATOM     35  H   UNL     1      10.568  -0.218  26.540  0.00  0.00    +0.295 HD
ENDBRANCH  32  34
ENDBRANCH   1  32
TORSDOF 12
ENDMDL
MODEL 8
REMARK VINA RESULT:      -6.7      2.492      4.313
REMARK  Name = 
REMARK  13 active torsions:
REMARK  status: ('A' for Active; 'I' for Inactive)
REMARK    1  A    between atoms: C_1  and  O_2
REMARK    2  A    between atoms: O_2  and  C_3
REMARK    3  A    between atoms: C_3  and  N_4
REMARK    4  A    between atoms: C_3  and  C_19
REMARK    5  A    between atoms: C_3  and  C_30
REMARK    6  A    between atoms: C_5  and  C_7
REMARK    7  A    between atoms: C_7  and  C_9
REMARK    8  A    between atoms: C_7  and  C_12
REMARK    9  A    between atoms: C_9  and  O_10
REMARK   10  A    between atoms: C_15  and  O_16
REMARK   11  A    between atoms: CA_25  and  C_27
REMARK   12  A    between atoms: C_27  and  O_28
REMARK   13  A    between atoms: C_30  and  O_31
REMARK                            x       y       z     vdW  Elec       q    Type
REMARK                         _______ _______ _______ _____ _____    ______ ____
ROOT
ATOM      1  C   UNL     1       7.618  -4.278  24.085  0.00  0.00    +0.282 C 
ENDROOT
BRANCH   1   2
ATOM      2  C   UNL     1       7.005  -3.329  22.943  0.00  0.00    +0.298 C 
ATOM      3  N   UNL     1       8.091  -2.640  22.212  0.00  0.00    -0.240 NA
ATOM      4  CA  UNL     1       8.212  -1.377  22.459  0.00  0.00    +0.150 C 
ATOM      5  C   UNL     1       7.327  -0.567  23.340  0.00  0.00    +0.003 C 
ATOM      6  C   UNL     1       7.466   0.757  23.517  0.00  0.00    +0.017 C 
ATOM      7  C   UNL     1       6.217  -1.326  23.994  0.00  0.00    +0.199 C 
ATOM      8  O   UNL     1       5.890  -2.525  23.316  0.00  0.00    -0.346 OA
BRANCH   4   9
ATOM      9  C   UNL     1       9.356  -0.703  21.676  0.00  0.00    +0.355 C 
ATOM     10  OXT UNL     1       9.275   0.352  21.085  0.00  0.00    -0.243 OA
BRANCH   9  11
ATOM     11  O   UNL     1      10.473  -1.453  21.778  0.00  0.00    -0.476 OA
ATOM     12  H   UNL     1      11.224  -0.944  21.393  0.00  0.00    +0.295 HD
ENDBRANCH   9  11
ENDBRANCH   4   9
ENDBRANCH   1   2
BRANCH   1  13
ATOM     13  N   UNL     1       6.595  -4.636  25.085  0.00  0.00    -0.274 N 
ATOM     14  H   UNL     1       5.654  -4.318  24.881  0.00  0.00    +0.152 HD
ATOM     15  C   UNL     1       6.763  -5.415  26.190  0.00  0.00    +0.234 C 
ATOM     16  O   UNL     1       7.817  -6.030  26.366  0.00  0.00    -0.274 OA
BRANCH  15  17
ATOM     17  C   UNL     1       5.610  -5.471  27.198  0.00  0.00    +0.213 C 
BRANCH  17  18
ATOM     18  C   UNL     1       4.394  -6.146  26.577  0.00  0.00    -0.025 A 
ATOM     19  C   UNL     1       4.505  -6.889  25.389  0.00  0.00    +0.008 A 
ATOM     20  C   UNL     1       3.383  -7.511  24.837  0.00  0.00    +0.046 A 
ATOM     21  C   UNL     1       2.149  -7.398  25.463  0.00  0.00    +0.117 A 
ATOM     22  C   UNL     1       2.011  -6.652  26.627  0.00  0.00    +0.046 A 
ATOM     23  C   UNL     1       3.131  -6.025  27.181  0.00  0.00    +0.008 A 
BRANCH  21  24
ATOM     24  O   UNL     1       1.089  -8.037  24.894  0.00  0.00    -0.507 OA
ATOM     25  H   UNL     1       1.274  -8.189  23.953  0.00  0.00    +0.292 HD
ENDBRANCH  21  24
ENDBRANCH  17  18
BRANCH  17  26
ATOM     26  C   UNL     1       5.965  -6.042  28.562  0.00  0.00    +0.321 C 
ATOM     27  O   UNL     1       6.107  -5.370  29.572  0.00  0.00    -0.250 OA
BRANCH  26  28
ATOM     28  O   UNL     1       6.083  -7.389  28.603  0.00  0.00    -0.480 OA
ATOM     29  H   UNL     1       5.931  -7.789  29.482  0.00  0.00    +0.295 HD
ENDBRANCH  26  28
ENDBRANCH  17  26
ENDBRANCH  15  17
ENDBRANCH   1  13
BRANCH   1  31
ATOM     30  C   UNL     1       7.157  -5.980  22.387  0.00  0.00    +0.197 C 
ATOM     31  O   UNL     1       7.983  -5.521  23.455  0.00  0.00    -0.347 OA
ENDBRANCH   1  31
BRANCH   1  32
ATOM     32  C   UNL     1       8.811  -3.486  24.745  0.00  0.00    +0.361 C 
ATOM     33  O   UNL     1       8.704  -2.778  25.740  0.00  0.00    -0.246 OA
BRANCH  32  34
ATOM     34  O   UNL     1      10.021  -3.639  24.146  0.00  0.00    -0.477 OA
ATOM     35  H   UNL     1      10.768  -3.836  24.762  0.00  0.00    +0.295 HD
ENDBRANCH  32  34
ENDBRANCH   1  32
TORSDOF 12
ENDMDL
MODEL 9
REMARK VINA RESULT:      -6.7      2.384      6.776
REMARK  Name = 
REMARK  13 active torsions:
REMARK  status: ('A' for Active; 'I' for Inactive)
REMARK    1  A    between atoms: C_1  and  O_2
REMARK    2  A    between atoms: O_2  and  C_3
REMARK    3  A    between atoms: C_3  and  N_4
REMARK    4  A    between atoms: C_3  and  C_19
REMARK    5  A    between atoms: C_3  and  C_30
REMARK    6  A    between atoms: C_5  and  C_7
REMARK    7  A    between atoms: C_7  and  C_9
REMARK    8  A    between atoms: C_7  and  C_12
REMARK    9  A    between atoms: C_9  and  O_10
REMARK   10  A    between atoms: C_15  and  O_16
REMARK   11  A    between atoms: CA_25  and  C_27
REMARK   12  A    between atoms: C_27  and  O_28
REMARK   13  A    between atoms: C_30  and  O_31
REMARK                            x       y       z     vdW  Elec       q    Type
REMARK                         _______ _______ _______ _____ _____    ______ ____
ROOT
ATOM      1  C   UNL     1       6.327  -4.706  23.323  0.00  0.00    +0.282 C 
ENDROOT
BRANCH   1   2
ATOM      2  C   UNL     1       4.992  -3.815  23.255  0.00  0.00    +0.298 C 
ATOM      3  N   UNL     1       4.877  -2.971  24.466  0.00  0.00    -0.240 NA
ATOM      4  CA  UNL     1       3.964  -3.330  25.307  0.00  0.00    +0.150 C 
ATOM      5  C   UNL     1       2.998  -4.450  25.130  0.00  0.00    +0.003 C 
ATOM      6  C   UNL     1       2.032  -4.744  26.015  0.00  0.00    +0.017 C 
ATOM      7  C   UNL     1       3.142  -5.214  23.853  0.00  0.00    +0.199 C 
ATOM      8  O   UNL     1       3.803  -4.481  22.839  0.00  0.00    -0.346 OA
BRANCH   4   9
ATOM      9  C   UNL     1       3.883  -2.424  26.552  0.00  0.00    +0.355 C 
ATOM     10  OXT UNL     1       4.454  -2.625  27.603  0.00  0.00    -0.243 OA
BRANCH   9  11
ATOM     11  O   UNL     1       3.107  -1.356  26.280  0.00  0.00    -0.476 OA
ATOM     12  H   UNL     1       3.639  -0.539  26.430  0.00  0.00    +0.295 HD
ENDBRANCH   9  11
ENDBRANCH   4   9
ENDBRANCH   1   2
BRANCH   1  13
ATOM     13  N   UNL     1       7.533  -3.857  23.291  0.00  0.00    -0.274 N 
ATOM     14  H   UNL     1       8.247  -4.086  23.975  0.00  0.00    +0.152 HD
ATOM     15  C   UNL     1       7.822  -2.873  22.395  0.00  0.00    +0.234 C 
ATOM     16  O   UNL     1       7.114  -2.708  21.399  0.00  0.00    -0.274 OA
BRANCH  15  17
ATOM     17  C   UNL     1       9.033  -1.981  22.690  0.00  0.00    +0.213 C 
BRANCH  17  18
ATOM     18  C   UNL     1       8.679  -0.516  22.471  0.00  0.00    -0.025 A 
ATOM     19  C   UNL     1       9.561   0.351  21.805  0.00  0.00    +0.008 A 
ATOM     20  C   UNL     1       9.219   1.689  21.603  0.00  0.00    +0.046 A 
ATOM     21  C   UNL     1       8.000   2.170  22.062  0.00  0.00    +0.117 A 
ATOM     22  C   UNL     1       7.120   1.337  22.741  0.00  0.00    +0.046 A 
ATOM     23  C   UNL     1       7.461  -0.003  22.948  0.00  0.00    +0.008 A 
BRANCH  21  24
ATOM     24  O   UNL     1       7.705   3.479  21.826  0.00  0.00    -0.507 OA
ATOM     25  H   UNL     1       7.368   3.572  20.920  0.00  0.00    +0.292 HD
ENDBRANCH  21  24
ENDBRANCH  17  18
BRANCH  17  26
ATOM     26  C   UNL     1       9.711  -2.228  24.029  0.00  0.00    +0.321 C 
ATOM     27  O   UNL     1       9.757  -1.412  24.937  0.00  0.00    -0.250 OA
BRANCH  26  28
ATOM     28  O   UNL     1      10.249  -3.461  24.177  0.00  0.00    -0.480 OA
ATOM     29  H   UNL     1       9.871  -3.990  24.906  0.00  0.00    +0.295 HD
ENDBRANCH  26  28
ENDBRANCH  17  26
ENDBRANCH  15  17
ENDBRANCH   1  13
BRANCH   1  31
ATOM     30  C   UNL     1       7.520  -5.178  25.408  0.00  0.00    +0.197 C 
ATOM     31  O   UNL     1       6.347  -5.345  24.613  0.00  0.00    -0.347 OA
ENDBRANCH   1  31
BRANCH   1  32
ATOM     32  C   UNL     1       6.285  -5.686  22.089  0.00  0.00    +0.361 C 
ATOM     33  O   UNL     1       6.710  -6.835  22.104  0.00  0.00    -0.246 OA
BRANCH  32  34
ATOM     34  O   UNL     1       5.718  -5.185  20.959  0.00  0.00    -0.477 OA
ATOM     35  H   UNL     1       6.325  -4.649  20.392  0.00  0.00    +0.295 HD
ENDBRANCH  32  34
ENDBRANCH   1  32
TORSDOF 12
ENDMDL
