MODEL 1
REMARK VINA RESULT:      -7.5      0.000      0.000
REMARK  Name = 
REMARK  9 active torsions:
REMARK  status: ('A' for Active; 'I' for Inactive)
REMARK    1  A    between atoms: O_1  and  C_2
REMARK    2  A    between atoms: C_4  and  C_6
REMARK    3  A    between atoms: C_6  and  O_7
REMARK    4  A    between atoms: O_7  and  P_8
REMARK    5  A    between atoms: P_8  and  O_9
REMARK    6  A    between atoms: P_8  and  O_10
REMARK    7  A    between atoms: C_13  and  N_18
REMARK    8  A    between atoms: C_15  and  O_17
REMARK    9  A    between atoms: C_25  and  O_26
REMARK                            x       y       z     vdW  Elec       q    Type
REMARK                         _______ _______ _______ _____ _____    ______ ____
ROOT
ATOM      1  C   UNL     1       8.187  -5.403  25.933  0.00  0.00    +0.178 C 
ATOM      2  C   UNL     1       9.347  -4.549  25.436  0.00  0.00    +0.195 C 
ATOM      3  C   UNL     1       8.726  -3.682  24.325  0.00  0.00    +0.252 C 
ATOM      4  O   UNL     1       7.312  -3.976  24.298  0.00  0.00    -0.346 OA
ATOM      5  C   UNL     1       6.970  -4.575  25.556  0.00  0.00    +0.178 C 
ENDROOT
BRANCH   3   6
ATOM      6  N   UNL     1       8.902  -2.242  24.486  0.00  0.00    -0.298 N 
ATOM      7  C   UNL     1       9.201  -1.331  23.503  0.00  0.00    +0.108 A 
ATOM      8  C   UNL     1       9.411  -1.384  22.138  0.00  0.00    +0.146 A 
ATOM      9  N   UNL     1       9.686  -0.229  21.495  0.00  0.00    -0.201 NA
ATOM     10  C   UNL     1       9.736   0.892  22.234  0.00  0.00    +0.318 A 
ATOM     11  N   UNL     1       9.557   1.049  23.543  0.00  0.00    -0.174 NA
ATOM     12  C   UNL     1       9.290  -0.114  24.159  0.00  0.00    +0.184 A 
ATOM     13  N   UNL     1       9.095  -0.268  25.504  0.00  0.00    -0.216 NA
ATOM     14  C   UNL     1       8.898  -1.556  25.676  0.00  0.00    +0.204 A 
BRANCH  10  15
ATOM     15  O   UNL     1      10.013   2.005  21.507  0.00  0.00    -0.478 OA
ATOM     16  H   UNL     1       9.494   2.648  22.017  0.00  0.00    +0.295 HD
ENDBRANCH  10  15
ENDBRANCH   3   6
BRANCH   1  17
ATOM     17  O   UNL     1       8.270  -5.604  27.341  0.00  0.00    -0.386 OA
ATOM     18  H   UNL     1       7.402  -5.400  27.731  0.00  0.00    +0.210 HD
ENDBRANCH   1  17
BRANCH   2  19
ATOM     19  O   UNL     1      10.380  -5.402  24.923  0.00  0.00    -0.385 OA
ATOM     20  H   UNL     1      10.052  -5.840  24.118  0.00  0.00    +0.210 HD
ENDBRANCH   2  19
BRANCH   5  21
ATOM     21  C   UNL     1       5.718  -5.441  25.430  0.00  0.00    +0.206 C 
BRANCH  21  22
ATOM     22  O   UNL     1       5.757  -6.537  26.345  0.00  0.00    -0.284 OA
BRANCH  22  23
ATOM     23  P   UNL     1       4.474  -6.462  27.503  0.00  0.00    +0.472 P 
ATOM     24  O   UNL     1       3.326  -6.395  28.540  0.00  0.00    -0.228 OA
BRANCH  23  25
ATOM     25  O   UNL     1       5.327  -7.590  28.327  0.00  0.00    -0.303 OA
ATOM     26  H   UNL     1       5.010  -8.450  27.992  0.00  0.00    +0.222 HD
ENDBRANCH  23  25
BRANCH  23  27
ATOM     27  O   UNL     1       3.747  -7.567  26.537  0.00  0.00    -0.303 OA
ATOM     28  H   UNL     1       3.796  -8.463  26.913  0.00  0.00    +0.222 HD
ENDBRANCH  23  27
ENDBRANCH  22  23
ENDBRANCH  21  22
ENDBRANCH   5  21
TORSDOF 9
ENDMDL
MODEL 2
REMARK VINA RESULT:      -7.4      1.707      2.119
REMARK  Name = 
REMARK  9 active torsions:
REMARK  status: ('A' for Active; 'I' for Inactive)
REMARK    1  A    between atoms: O_1  and  C_2
REMARK    2  A    between atoms: C_4  and  C_6
REMARK    3  A    between atoms: C_6  and  O_7
REMARK    4  A    between atoms: O_7  and  P_8
REMARK    5  A    between atoms: P_8  and  O_9
REMARK    6  A    between atoms: P_8  and  O_10
REMARK    7  A    between atoms: C_13  and  N_18
REMARK    8  A    between atoms: C_15  and  O_17
REMARK    9  A    between atoms: C_25  and  O_26
REMARK                            x       y       z     vdW  Elec       q    Type
REMARK                         _______ _______ _______ _____ _____    ______ ____
ROOT
ATOM      1  C   UNL     1       8.072  -5.368  25.907  0.00  0.00    +0.178 C 
ATOM      2  C   UNL     1       9.253  -4.551  25.399  0.00  0.00    +0.195 C 
ATOM      3  C   UNL     1       8.645  -3.647  24.310  0.00  0.00    +0.252 C 
ATOM      4  O   UNL     1       7.220  -3.888  24.308  0.00  0.00    -0.346 OA
ATOM      5  C   UNL     1       6.880  -4.490  25.565  0.00  0.00    +0.178 C 
ENDROOT
BRANCH   3   6
ATOM      6  N   UNL     1       8.877  -2.217  24.486  0.00  0.00    -0.298 N 
ATOM      7  C   UNL     1       9.197  -1.306  23.509  0.00  0.00    +0.108 A 
ATOM      8  C   UNL     1       9.384  -1.350  22.141  0.00  0.00    +0.146 A 
ATOM      9  N   UNL     1       9.695  -0.198  21.508  0.00  0.00    -0.201 NA
ATOM     10  C   UNL     1       9.798   0.911  22.259  0.00  0.00    +0.318 A 
ATOM     11  N   UNL     1       9.643   1.058  23.572  0.00  0.00    -0.174 NA
ATOM     12  C   UNL     1       9.341  -0.101  24.179  0.00  0.00    +0.184 A 
ATOM     13  N   UNL     1       9.160  -0.265  25.524  0.00  0.00    -0.216 NA
ATOM     14  C   UNL     1       8.917  -1.545  25.684  0.00  0.00    +0.204 A 
BRANCH  10  15
ATOM     15  O   UNL     1      10.106   2.022  21.541  0.00  0.00    -0.478 OA
ATOM     16  H   UNL     1      10.567   2.522  22.233  0.00  0.00    +0.295 HD
ENDBRANCH  10  15
ENDBRANCH   3   6
BRANCH   1  17
ATOM     17  O   UNL     1       8.174  -5.590  27.310  0.00  0.00    -0.386 OA
ATOM     18  H   UNL     1       7.846  -4.798  27.771  0.00  0.00    +0.210 HD
ENDBRANCH   1  17
BRANCH   2  19
ATOM     19  O   UNL     1      10.244  -5.436  24.855  0.00  0.00    -0.385 OA
ATOM     20  H   UNL     1       9.795  -6.211  24.476  0.00  0.00    +0.210 HD
ENDBRANCH   2  19
BRANCH   5  21
ATOM     21  C   UNL     1       5.594  -5.307  25.452  0.00  0.00    +0.206 C 
BRANCH  21  22
ATOM     22  O   UNL     1       5.538  -6.006  24.207  0.00  0.00    -0.284 OA
BRANCH  22  23
ATOM     23  P   UNL     1       3.991  -5.859  23.448  0.00  0.00    +0.472 P 
ATOM     24  O   UNL     1       2.605  -5.727  22.770  0.00  0.00    -0.228 OA
BRANCH  23  25
ATOM     25  O   UNL     1       3.848  -7.465  23.726  0.00  0.00    -0.303 OA
ATOM     26  H   UNL     1       4.611  -7.700  24.287  0.00  0.00    +0.222 HD
ENDBRANCH  23  25
BRANCH  23  27
ATOM     27  O   UNL     1       4.827  -6.068  22.056  0.00  0.00    -0.303 OA
ATOM     28  H   UNL     1       4.261  -5.952  21.274  0.00  0.00    +0.222 HD
ENDBRANCH  23  27
ENDBRANCH  22  23
ENDBRANCH  21  22
ENDBRANCH   5  21
TORSDOF 9
ENDMDL
MODEL 3
REMARK VINA RESULT:      -7.1      3.452      7.708
REMARK  Name = 
REMARK  9 active torsions:
REMARK  status: ('A' for Active; 'I' for Inactive)
REMARK    1  A    between atoms: O_1  and  C_2
REMARK    2  A    between atoms: C_4  and  C_6
REMARK    3  A    between atoms: C_6  and  O_7
REMARK    4  A    between atoms: O_7  and  P_8
REMARK    5  A    between atoms: P_8  and  O_9
REMARK    6  A    between atoms: P_8  and  O_10
REMARK    7  A    between atoms: C_13  and  N_18
REMARK    8  A    between atoms: C_15  and  O_17
REMARK    9  A    between atoms: C_25  and  O_26
REMARK                            x       y       z     vdW  Elec       q    Type
REMARK                         _______ _______ _______ _____ _____    ______ ____
ROOT
ATOM      1  C   UNL     1       6.917  -1.793  22.625  0.00  0.00    +0.178 C 
ATOM      2  C   UNL     1       6.234  -2.921  23.388  0.00  0.00    +0.195 C 
ATOM      3  C   UNL     1       7.343  -3.973  23.577  0.00  0.00    +0.252 C 
ATOM      4  O   UNL     1       8.560  -3.405  23.044  0.00  0.00    -0.346 OA
ATOM      5  C   UNL     1       8.382  -1.982  22.977  0.00  0.00    +0.178 C 
ENDROOT
BRANCH   3   6
ATOM      6  N   UNL     1       7.585  -4.384  24.956  0.00  0.00    -0.298 N 
ATOM      7  C   UNL     1       6.811  -5.229  25.713  0.00  0.00    +0.108 A 
ATOM      8  C   UNL     1       5.655  -5.959  25.509  0.00  0.00    +0.146 A 
ATOM      9  N   UNL     1       5.189  -6.705  26.534  0.00  0.00    -0.201 NA
ATOM     10  C   UNL     1       5.887  -6.682  27.681  0.00  0.00    +0.318 A 
ATOM     11  N   UNL     1       6.998  -6.015  27.981  0.00  0.00    -0.174 NA
ATOM     12  C   UNL     1       7.438  -5.277  26.948  0.00  0.00    +0.184 A 
ATOM     13  N   UNL     1       8.535  -4.461  26.971  0.00  0.00    -0.216 NA
ATOM     14  C   UNL     1       8.580  -3.914  25.778  0.00  0.00    +0.204 A 
BRANCH  10  15
ATOM     15  O   UNL     1       5.351  -7.463  28.655  0.00  0.00    -0.478 OA
ATOM     16  H   UNL     1       6.134  -7.996  28.865  0.00  0.00    +0.295 HD
ENDBRANCH  10  15
ENDBRANCH   3   6
BRANCH   1  17
ATOM     17  O   UNL     1       6.433  -0.524  23.053  0.00  0.00    -0.386 OA
ATOM     18  H   UNL     1       6.875   0.166  22.528  0.00  0.00    +0.210 HD
ENDBRANCH   1  17
BRANCH   2  19
ATOM     19  O   UNL     1       5.148  -3.437  22.605  0.00  0.00    -0.385 OA
ATOM     20  H   UNL     1       5.479  -4.169  22.056  0.00  0.00    +0.210 HD
ENDBRANCH   2  19
BRANCH   5  21
ATOM     21  C   UNL     1       9.299  -1.363  21.924  0.00  0.00    +0.206 C 
BRANCH  21  22
ATOM     22  O   UNL     1       8.980   0.013  21.712  0.00  0.00    -0.284 OA
BRANCH  22  23
ATOM     23  P   UNL     1       9.883   1.057  22.754  0.00  0.00    +0.472 P 
ATOM     24  O   UNL     1      10.691   1.992  23.688  0.00  0.00    -0.228 OA
BRANCH  23  25
ATOM     25  O   UNL     1       8.424   1.574  23.285  0.00  0.00    -0.303 OA
ATOM     26  H   UNL     1       8.484   2.548  23.303  0.00  0.00    +0.222 HD
ENDBRANCH  23  25
BRANCH  23  27
ATOM     27  O   UNL     1       9.893   2.074  21.470  0.00  0.00    -0.303 OA
ATOM     28  H   UNL     1       9.834   1.591  20.628  0.00  0.00    +0.222 HD
ENDBRANCH  23  27
ENDBRANCH  22  23
ENDBRANCH  21  22
ENDBRANCH   5  21
TORSDOF 9
ENDMDL
MODEL 4
REMARK VINA RESULT:      -6.7      2.086      3.180
REMARK  Name = 
REMARK  9 active torsions:
REMARK  status: ('A' for Active; 'I' for Inactive)
REMARK    1  A    between atoms: O_1  and  C_2
REMARK    2  A    between atoms: C_4  and  C_6
REMARK    3  A    between atoms: C_6  and  O_7
REMARK    4  A    between atoms: O_7  and  P_8
REMARK    5  A    between atoms: P_8  and  O_9
REMARK    6  A    between atoms: P_8  and  O_10
REMARK    7  A    between atoms: C_13  and  N_18
REMARK    8  A    between atoms: C_15  and  O_17
REMARK    9  A    between atoms: C_25  and  O_26
REMARK                            x       y       z     vdW  Elec       q    Type
REMARK                         _______ _______ _______ _____ _____    ______ ____
ROOT
ATOM      1  C   UNL     1       6.996  -4.730  23.021  0.00  0.00    +0.178 C 
ATOM      2  C   UNL     1       6.684  -3.497  22.183  0.00  0.00    +0.195 C 
ATOM      3  C   UNL     1       6.978  -2.316  23.128  0.00  0.00    +0.252 C 
ATOM      4  O   UNL     1       7.509  -2.875  24.350  0.00  0.00    -0.346 OA
ATOM      5  C   UNL     1       7.973  -4.200  24.056  0.00  0.00    +0.178 C 
ENDROOT
BRANCH   3   6
ATOM      6  N   UNL     1       7.923  -1.328  22.616  0.00  0.00    -0.298 N 
ATOM      7  C   UNL     1       7.779   0.038  22.632  0.00  0.00    +0.108 A 
ATOM      8  C   UNL     1       6.825   0.925  23.093  0.00  0.00    +0.146 A 
ATOM      9  N   UNL     1       7.055   2.245  22.923  0.00  0.00    -0.201 NA
ATOM     10  C   UNL     1       8.200   2.599  22.316  0.00  0.00    +0.318 A 
ATOM     11  N   UNL     1       9.173   1.830  21.834  0.00  0.00    -0.174 NA
ATOM     12  C   UNL     1       8.918   0.523  22.011  0.00  0.00    +0.184 A 
ATOM     13  N   UNL     1       9.719  -0.501  21.587  0.00  0.00    -0.216 NA
ATOM     14  C   UNL     1       9.083  -1.597  21.933  0.00  0.00    +0.204 A 
BRANCH  10  15
ATOM     15  O   UNL     1       8.352   3.943  22.193  0.00  0.00    -0.478 OA
ATOM     16  H   UNL     1       7.498   4.151  21.781  0.00  0.00    +0.295 HD
ENDBRANCH  10  15
ENDBRANCH   3   6
BRANCH   1  17
ATOM     17  O   UNL     1       7.582  -5.753  22.221  0.00  0.00    -0.386 OA
ATOM     18  H   UNL     1       7.201  -6.607  22.487  0.00  0.00    +0.210 HD
ENDBRANCH   1  17
BRANCH   2  19
ATOM     19  O   UNL     1       5.304  -3.525  21.790  0.00  0.00    -0.385 OA
ATOM     20  H   UNL     1       4.755  -3.638  22.585  0.00  0.00    +0.210 HD
ENDBRANCH   2  19
BRANCH   5  21
ATOM     21  C   UNL     1       7.988  -5.068  25.312  0.00  0.00    +0.206 C 
BRANCH  21  22
ATOM     22  O   UNL     1       6.664  -5.446  25.690  0.00  0.00    -0.284 OA
BRANCH  22  23
ATOM     23  P   UNL     1       6.419  -5.336  27.399  0.00  0.00    +0.472 P 
ATOM     24  O   UNL     1       6.200  -5.236  28.928  0.00  0.00    -0.228 OA
BRANCH  23  25
ATOM     25  O   UNL     1       7.933  -5.943  27.523  0.00  0.00    -0.303 OA
ATOM     26  H   UNL     1       8.503  -5.178  27.731  0.00  0.00    +0.222 HD
ENDBRANCH  23  25
BRANCH  23  27
ATOM     27  O   UNL     1       5.728  -6.812  27.238  0.00  0.00    -0.303 OA
ATOM     28  H   UNL     1       6.241  -7.502  27.693  0.00  0.00    +0.222 HD
ENDBRANCH  23  27
ENDBRANCH  22  23
ENDBRANCH  21  22
ENDBRANCH   5  21
TORSDOF 9
ENDMDL
MODEL 5
REMARK VINA RESULT:      -6.7      3.446      7.997
REMARK  Name = 
REMARK  9 active torsions:
REMARK  status: ('A' for Active; 'I' for Inactive)
REMARK    1  A    between atoms: O_1  and  C_2
REMARK    2  A    between atoms: C_4  and  C_6
REMARK    3  A    between atoms: C_6  and  O_7
REMARK    4  A    between atoms: O_7  and  P_8
REMARK    5  A    between atoms: P_8  and  O_9
REMARK    6  A    between atoms: P_8  and  O_10
REMARK    7  A    between atoms: C_13  and  N_18
REMARK    8  A    between atoms: C_15  and  O_17
REMARK    9  A    between atoms: C_25  and  O_26
REMARK                            x       y       z     vdW  Elec       q    Type
REMARK                         _______ _______ _______ _____ _____    ______ ____
ROOT
ATOM      1  C   UNL     1       9.643   0.038  22.682  0.00  0.00    +0.178 C 
ATOM      2  C   UNL     1       9.717  -1.465  22.443  0.00  0.00    +0.195 C 
ATOM      3  C   UNL     1       9.519  -2.078  23.842  0.00  0.00    +0.252 C 
ATOM      4  O   UNL     1       9.253  -0.985  24.750  0.00  0.00    -0.346 OA
ATOM      5  C   UNL     1       8.834   0.139  23.963  0.00  0.00    +0.178 C 
ENDROOT
BRANCH   3   6
ATOM      6  N   UNL     1       8.433  -3.048  23.949  0.00  0.00    -0.298 N 
ATOM      7  C   UNL     1       8.113  -3.810  25.046  0.00  0.00    +0.108 A 
ATOM      8  C   UNL     1       8.599  -3.944  26.333  0.00  0.00    +0.146 A 
ATOM      9  N   UNL     1       7.990  -4.829  27.150  0.00  0.00    -0.201 NA
ATOM     10  C   UNL     1       6.949  -5.517  26.650  0.00  0.00    +0.318 A 
ATOM     11  N   UNL     1       6.410  -5.467  25.435  0.00  0.00    -0.174 NA
ATOM     12  C   UNL     1       7.037  -4.584  24.640  0.00  0.00    +0.184 A 
ATOM     13  N   UNL     1       6.728  -4.343  23.330  0.00  0.00    -0.216 NA
ATOM     14  C   UNL     1       7.600  -3.445  22.932  0.00  0.00    +0.204 A 
BRANCH  10  15
ATOM     15  O   UNL     1       6.393  -6.378  27.541  0.00  0.00    -0.478 OA
ATOM     16  H   UNL     1       5.463  -6.128  27.428  0.00  0.00    +0.295 HD
ENDBRANCH  10  15
ENDBRANCH   3   6
BRANCH   1  17
ATOM     17  O   UNL     1       8.994   0.694  21.597  0.00  0.00    -0.386 OA
ATOM     18  H   UNL     1       9.550   1.439  21.311  0.00  0.00    +0.210 HD
ENDBRANCH   1  17
BRANCH   2  19
ATOM     19  O   UNL     1      11.003  -1.798  21.901  0.00  0.00    -0.385 OA
ATOM     20  H   UNL     1      11.046  -2.761  21.768  0.00  0.00    +0.210 HD
ENDBRANCH   2  19
BRANCH   5  21
ATOM     21  C   UNL     1       9.102   1.452  24.696  0.00  0.00    +0.206 C 
BRANCH  21  22
ATOM     22  O   UNL     1       9.993   2.283  23.950  0.00  0.00    -0.284 OA
BRANCH  22  23
ATOM     23  P   UNL     1       9.434   3.918  23.859  0.00  0.00    +0.472 P 
ATOM     24  O   UNL     1       8.933   5.380  23.777  0.00  0.00    -0.228 OA
BRANCH  23  25
ATOM     25  O   UNL     1       8.736   3.462  22.451  0.00  0.00    -0.303 OA
ATOM     26  H   UNL     1       8.256   2.637  22.655  0.00  0.00    +0.222 HD
ENDBRANCH  23  25
BRANCH  23  27
ATOM     27  O   UNL     1      10.888   4.212  23.164  0.00  0.00    -0.303 OA
ATOM     28  H   UNL     1      11.273   3.406  22.779  0.00  0.00    +0.222 HD
ENDBRANCH  23  27
ENDBRANCH  22  23
ENDBRANCH  21  22
ENDBRANCH   5  21
TORSDOF 9
ENDMDL
MODEL 6
REMARK VINA RESULT:      -6.6      4.428      8.047
REMARK  Name = 
REMARK  9 active torsions:
REMARK  status: ('A' for Active; 'I' for Inactive)
REMARK    1  A    between atoms: O_1  and  C_2
REMARK    2  A    between atoms: C_4  and  C_6
REMARK    3  A    between atoms: C_6  and  O_7
REMARK    4  A    between atoms: O_7  and  P_8
REMARK    5  A    between atoms: P_8  and  O_9
REMARK    6  A    between atoms: P_8  and  O_10
REMARK    7  A    between atoms: C_13  and  N_18
REMARK    8  A    between atoms: C_15  and  O_17
REMARK    9  A    between atoms: C_25  and  O_26
REMARK                            x       y       z     vdW  Elec       q    Type
REMARK                         _______ _______ _______ _____ _____    ______ ____
ROOT
ATOM      1  C   UNL     1       9.548   0.672  22.198  0.00  0.00    +0.178 C 
ATOM      2  C   UNL     1       9.071  -0.762  22.003  0.00  0.00    +0.195 C 
ATOM      3  C   UNL     1       8.776  -1.258  23.431  0.00  0.00    +0.252 C 
ATOM      4  O   UNL     1       8.981  -0.137  24.319  0.00  0.00    -0.346 OA
ATOM      5  C   UNL     1       8.925   1.059  23.528  0.00  0.00    +0.178 C 
ENDROOT
BRANCH   3   6
ATOM      6  N   UNL     1       7.431  -1.783  23.643  0.00  0.00    -0.298 N 
ATOM      7  C   UNL     1       6.913  -2.953  23.144  0.00  0.00    +0.108 A 
ATOM      8  C   UNL     1       7.387  -3.989  22.362  0.00  0.00    +0.146 A 
ATOM      9  N   UNL     1       6.544  -5.006  22.081  0.00  0.00    -0.201 NA
ATOM     10  C   UNL     1       5.301  -4.935  22.586  0.00  0.00    +0.318 A 
ATOM     11  N   UNL     1       4.748  -3.988  23.340  0.00  0.00    -0.174 NA
ATOM     12  C   UNL     1       5.604  -2.986  23.600  0.00  0.00    +0.184 A 
ATOM     13  N   UNL     1       5.308  -1.861  24.318  0.00  0.00    -0.216 NA
ATOM     14  C   UNL     1       6.408  -1.143  24.299  0.00  0.00    +0.204 A 
BRANCH  10  15
ATOM     15  O   UNL     1       4.524  -6.001  22.260  0.00  0.00    -0.478 OA
ATOM     16  H   UNL     1       4.353  -6.338  23.153  0.00  0.00    +0.295 HD
ENDBRANCH  10  15
ENDBRANCH   3   6
BRANCH   1  17
ATOM     17  O   UNL     1       9.090   1.508  21.140  0.00  0.00    -0.386 OA
ATOM     18  H   UNL     1       9.556   2.360  21.199  0.00  0.00    +0.210 HD
ENDBRANCH   1  17
BRANCH   2  19
ATOM     19  O   UNL     1      10.113  -1.530  21.384  0.00  0.00    -0.385 OA
ATOM     20  H   UNL     1      10.823  -1.674  22.033  0.00  0.00    +0.210 HD
ENDBRANCH   2  19
BRANCH   5  21
ATOM     21  C   UNL     1       9.692   2.197  24.199  0.00  0.00    +0.206 C 
BRANCH  21  22
ATOM     22  O   UNL     1       9.774   3.336  23.340  0.00  0.00    -0.284 OA
BRANCH  22  23
ATOM     23  P   UNL     1       8.500   4.467  23.639  0.00  0.00    +0.472 P 
ATOM     24  O   UNL     1       7.358   5.479  23.905  0.00  0.00    -0.228 OA
BRANCH  23  25
ATOM     25  O   UNL     1       7.999   4.103  22.124  0.00  0.00    -0.303 OA
ATOM     26  H   UNL     1       7.740   3.162  22.156  0.00  0.00    +0.222 HD
ENDBRANCH  23  25
BRANCH  23  27
ATOM     27  O   UNL     1       9.582   5.584  23.124  0.00  0.00    -0.303 OA
ATOM     28  H   UNL     1       9.454   6.441  23.567  0.00  0.00    +0.222 HD
ENDBRANCH  23  27
ENDBRANCH  22  23
ENDBRANCH  21  22
ENDBRANCH   5  21
TORSDOF 9
ENDMDL
MODEL 7
REMARK VINA RESULT:      -6.5      1.846      2.715
REMARK  Name = 
REMARK  9 active torsions:
REMARK  status: ('A' for Active; 'I' for Inactive)
REMARK    1  A    between atoms: O_1  and  C_2
REMARK    2  A    between atoms: C_4  and  C_6
REMARK    3  A    between atoms: C_6  and  O_7
REMARK    4  A    between atoms: O_7  and  P_8
REMARK    5  A    between atoms: P_8  and  O_9
REMARK    6  A    between atoms: P_8  and  O_10
REMARK    7  A    between atoms: C_13  and  N_18
REMARK    8  A    between atoms: C_15  and  O_17
REMARK    9  A    between atoms: C_25  and  O_26
REMARK                            x       y       z     vdW  Elec       q    Type
REMARK                         _______ _______ _______ _____ _____    ______ ____
ROOT
ATOM      1  C   UNL     1       5.821  -5.124  23.003  0.00  0.00    +0.178 C 
ATOM      2  C   UNL     1       6.427  -3.999  22.174  0.00  0.00    +0.195 C 
ATOM      3  C   UNL     1       6.543  -2.823  23.162  0.00  0.00    +0.252 C 
ATOM      4  O   UNL     1       6.125  -3.314  24.455  0.00  0.00    -0.346 OA
ATOM      5  C   UNL     1       6.209  -4.746  24.423  0.00  0.00    +0.178 C 
ENDROOT
BRANCH   3   6
ATOM      6  N   UNL     1       7.878  -2.245  23.290  0.00  0.00    -0.298 N 
ATOM      7  C   UNL     1       8.269  -0.981  22.923  0.00  0.00    +0.108 A 
ATOM      8  C   UNL     1       7.647   0.125  22.376  0.00  0.00    +0.146 A 
ATOM      9  N   UNL     1       8.396   1.228  22.158  0.00  0.00    -0.201 NA
ATOM     10  C   UNL     1       9.696   1.167  22.493  0.00  0.00    +0.318 A 
ATOM     11  N   UNL     1      10.387   0.158  23.016  0.00  0.00    -0.174 NA
ATOM     12  C   UNL     1       9.622  -0.927  23.217  0.00  0.00    +0.184 A 
ATOM     13  N   UNL     1      10.064  -2.124  23.708  0.00  0.00    -0.216 NA
ATOM     14  C   UNL     1       9.007  -2.905  23.710  0.00  0.00    +0.204 A 
BRANCH  10  15
ATOM     15  O   UNL     1      10.370   2.320  22.246  0.00  0.00    -0.478 OA
ATOM     16  H   UNL     1      10.578   2.173  21.310  0.00  0.00    +0.295 HD
ENDBRANCH  10  15
ENDBRANCH   3   6
BRANCH   1  17
ATOM     17  O   UNL     1       6.367  -6.384  22.628  0.00  0.00    -0.386 OA
ATOM     18  H   UNL     1       7.291  -6.248  22.353  0.00  0.00    +0.210 HD
ENDBRANCH   1  17
BRANCH   2  19
ATOM     19  O   UNL     1       5.549  -3.685  21.084  0.00  0.00    -0.385 OA
ATOM     20  H   UNL     1       5.276  -4.514  20.654  0.00  0.00    +0.210 HD
ENDBRANCH   2  19
BRANCH   5  21
ATOM     21  C   UNL     1       5.268  -5.374  25.449  0.00  0.00    +0.206 C 
BRANCH  21  22
ATOM     22  O   UNL     1       5.955  -6.330  26.257  0.00  0.00    -0.284 OA
BRANCH  22  23
ATOM     23  P   UNL     1       6.015  -5.853  27.919  0.00  0.00    +0.472 P 
ATOM     24  O   UNL     1       6.070  -5.426  29.406  0.00  0.00    -0.228 OA
BRANCH  23  25
ATOM     25  O   UNL     1       7.624  -6.134  27.805  0.00  0.00    -0.303 OA
ATOM     26  H   UNL     1       8.052  -5.304  28.088  0.00  0.00    +0.222 HD
ENDBRANCH  23  25
BRANCH  23  27
ATOM     27  O   UNL     1       5.658  -7.423  28.221  0.00  0.00    -0.303 OA
ATOM     28  H   UNL     1       6.384  -8.015  27.960  0.00  0.00    +0.222 HD
ENDBRANCH  23  27
ENDBRANCH  22  23
ENDBRANCH  21  22
ENDBRANCH   5  21
TORSDOF 9
ENDMDL
MODEL 8
REMARK VINA RESULT:      -6.5      4.433      7.264
REMARK  Name = 
REMARK  9 active torsions:
REMARK  status: ('A' for Active; 'I' for Inactive)
REMARK    1  A    between atoms: O_1  and  C_2
REMARK    2  A    between atoms: C_4  and  C_6
REMARK    3  A    between atoms: C_6  and  O_7
REMARK    4  A    between atoms: O_7  and  P_8
REMARK    5  A    between atoms: P_8  and  O_9
REMARK    6  A    between atoms: P_8  and  O_10
REMARK    7  A    between atoms: C_13  and  N_18
REMARK    8  A    between atoms: C_15  and  O_17
REMARK    9  A    between atoms: C_25  and  O_26
REMARK                            x       y       z     vdW  Elec       q    Type
REMARK                         _______ _______ _______ _____ _____    ______ ____
ROOT
ATOM      1  C   UNL     1       9.953   0.430  24.581  0.00  0.00    +0.178 C 
ATOM      2  C   UNL     1       9.259  -0.696  25.336  0.00  0.00    +0.195 C 
ATOM      3  C   UNL     1       8.169  -1.185  24.364  0.00  0.00    +0.252 C 
ATOM      4  O   UNL     1       8.335  -0.444  23.134  0.00  0.00    -0.346 OA
ATOM      5  C   UNL     1       9.666   0.092  23.128  0.00  0.00    +0.178 C 
ENDROOT
BRANCH   3   6
ATOM      6  N   UNL     1       8.202  -2.612  24.057  0.00  0.00    -0.298 N 
ATOM      7  C   UNL     1       7.333  -3.303  23.248  0.00  0.00    +0.108 A 
ATOM      8  C   UNL     1       6.233  -2.980  22.476  0.00  0.00    +0.146 A 
ATOM      9  N   UNL     1       5.626  -3.974  21.794  0.00  0.00    -0.201 NA
ATOM     10  C   UNL     1       6.139  -5.209  21.915  0.00  0.00    +0.318 A 
ATOM     11  N   UNL     1       7.182  -5.624  22.629  0.00  0.00    -0.174 NA
ATOM     12  C   UNL     1       7.765  -4.619  23.303  0.00  0.00    +0.184 A 
ATOM     13  N   UNL     1       8.834  -4.748  24.146  0.00  0.00    -0.216 NA
ATOM     14  C   UNL     1       9.053  -3.539  24.609  0.00  0.00    +0.204 A 
BRANCH  10  15
ATOM     15  O   UNL     1       5.471  -6.145  21.191  0.00  0.00    -0.478 OA
ATOM     16  H   UNL     1       4.564  -5.858  21.379  0.00  0.00    +0.295 HD
ENDBRANCH  10  15
ENDBRANCH   3   6
BRANCH   1  17
ATOM     17  O   UNL     1      11.352   0.437  24.852  0.00  0.00    -0.386 OA
ATOM     18  H   UNL     1      11.749   1.197  24.392  0.00  0.00    +0.210 HD
ENDBRANCH   1  17
BRANCH   2  19
ATOM     19  O   UNL     1       8.689  -0.177  26.546  0.00  0.00    -0.385 OA
ATOM     20  H   UNL     1       8.725  -0.868  27.230  0.00  0.00    +0.210 HD
ENDBRANCH   2  19
BRANCH   5  21
ATOM     21  C   UNL     1       9.755   1.328  22.235  0.00  0.00    +0.206 C 
BRANCH  21  22
ATOM     22  O   UNL     1       9.384   2.507  22.952  0.00  0.00    -0.284 OA
BRANCH  22  23
ATOM     23  P   UNL     1       7.893   3.173  22.379  0.00  0.00    +0.472 P 
ATOM     24  O   UNL     1       6.559   3.769  21.868  0.00  0.00    -0.228 OA
BRANCH  23  25
ATOM     25  O   UNL     1       7.183   2.190  23.478  0.00  0.00    -0.303 OA
ATOM     26  H   UNL     1       7.692   2.313  24.302  0.00  0.00    +0.222 HD
ENDBRANCH  23  25
BRANCH  23  27
ATOM     27  O   UNL     1       7.988   2.001  21.238  0.00  0.00    -0.303 OA
ATOM     28  H   UNL     1       7.111   1.763  20.892  0.00  0.00    +0.222 HD
ENDBRANCH  23  27
ENDBRANCH  22  23
ENDBRANCH  21  22
ENDBRANCH   5  21
TORSDOF 9
ENDMDL
MODEL 9
REMARK VINA RESULT:      -6.4      3.449      8.076
REMARK  Name = 
REMARK  9 active torsions:
REMARK  status: ('A' for Active; 'I' for Inactive)
REMARK    1  A    between atoms: O_1  and  C_2
REMARK    2  A    between atoms: C_4  and  C_6
REMARK    3  A    between atoms: C_6  and  O_7
REMARK    4  A    between atoms: O_7  and  P_8
REMARK    5  A    between atoms: P_8  and  O_9
REMARK    6  A    between atoms: P_8  and  O_10
REMARK    7  A    between atoms: C_13  and  N_18
REMARK    8  A    between atoms: C_15  and  O_17
REMARK    9  A    between atoms: C_25  and  O_26
REMARK                            x       y       z     vdW  Elec       q    Type
REMARK                         _______ _______ _______ _____ _____    ______ ____
ROOT
ATOM      1  C   UNL     1       9.976   0.670  22.141  0.00  0.00    +0.178 C 
ATOM      2  C   UNL     1       9.501  -0.764  22.336  0.00  0.00    +0.195 C 
ATOM      3  C   UNL     1       9.924  -1.108  23.777  0.00  0.00    +0.252 C 
ATOM      4  O   UNL     1      10.492   0.091  24.349  0.00  0.00    -0.346 OA
ATOM      5  C   UNL     1      10.040   1.203  23.562  0.00  0.00    +0.178 C 
ENDROOT
BRANCH   3   6
ATOM      6  N   UNL     1       8.849  -1.576  24.647  0.00  0.00    -0.298 N 
ATOM      7  C   UNL     1       8.671  -2.851  25.126  0.00  0.00    +0.108 A 
ATOM      8  C   UNL     1       9.349  -4.051  25.018  0.00  0.00    +0.146 A 
ATOM      9  N   UNL     1       8.843  -5.123  25.664  0.00  0.00    -0.201 NA
ATOM     10  C   UNL     1       7.713  -4.943  26.368  0.00  0.00    +0.318 A 
ATOM     11  N   UNL     1       6.985  -3.841  26.530  0.00  0.00    -0.174 NA
ATOM     12  C   UNL     1       7.506  -2.792  25.874  0.00  0.00    +0.184 A 
ATOM     13  N   UNL     1       6.958  -1.539  25.827  0.00  0.00    -0.216 NA
ATOM     14  C   UNL     1       7.764  -0.842  25.059  0.00  0.00    +0.204 A 
BRANCH  10  15
ATOM     15  O   UNL     1       7.279  -6.071  26.989  0.00  0.00    -0.478 OA
ATOM     16  H   UNL     1       7.333  -5.763  27.908  0.00  0.00    +0.295 HD
ENDBRANCH  10  15
ENDBRANCH   3   6
BRANCH   1  17
ATOM     17  O   UNL     1       9.054   1.407  21.345  0.00  0.00    -0.386 OA
ATOM     18  H   UNL     1       9.471   2.249  21.093  0.00  0.00    +0.210 HD
ENDBRANCH   1  17
BRANCH   2  19
ATOM     19  O   UNL     1      10.151  -1.616  21.381  0.00  0.00    -0.385 OA
ATOM     20  H   UNL     1      11.086  -1.711  21.632  0.00  0.00    +0.210 HD
ENDBRANCH   2  19
BRANCH   5  21
ATOM     21  C   UNL     1      11.002   2.384  23.677  0.00  0.00    +0.206 C 
BRANCH  21  22
ATOM     22  O   UNL     1      10.492   3.530  22.994  0.00  0.00    -0.284 OA
BRANCH  22  23
ATOM     23  P   UNL     1       9.171   4.257  23.842  0.00  0.00    +0.472 P 
ATOM     24  O   UNL     1       7.988   4.906  24.601  0.00  0.00    -0.228 OA
BRANCH  23  25
ATOM     25  O   UNL     1       8.344   4.080  22.440  0.00  0.00    -0.303 OA
ATOM     26  H   UNL     1       8.273   3.117  22.301  0.00  0.00    +0.222 HD
ENDBRANCH  23  25
BRANCH  23  27
ATOM     27  O   UNL     1       9.856   5.671  23.381  0.00  0.00    -0.303 OA
ATOM     28  H   UNL     1       9.707   6.374  24.036  0.00  0.00    +0.222 HD
ENDBRANCH  23  27
ENDBRANCH  22  23
ENDBRANCH  21  22
ENDBRANCH   5  21
TORSDOF 9
ENDMDL
