MODEL 1
REMARK VINA RESULT:      -7.2      0.000      0.000
REMARK  Name = 
REMARK  3 active torsions:
REMARK  status: ('A' for Active; 'I' for Inactive)
REMARK    1  A    between atoms: N_1  and  S_2
REMARK    2  A    between atoms: S_2  and  C_5
REMARK    3  A    between atoms: C_11  and  C_18
REMARK                            x       y       z     vdW  Elec       q    Type
REMARK                         _______ _______ _______ _____ _____    ______ ____
ROOT
ATOM      1  C   UNL     1       9.566  -0.433  23.587  0.00  0.00    +0.125 A 
ATOM      2  C   UNL     1       9.546  -1.574  24.399  0.00  0.00    +0.060 A 
ATOM      3  C   UNL     1       8.865  -2.715  23.962  0.00  0.00    +0.128 A 
ATOM      4  C   UNL     1       8.200  -2.767  22.737  0.00  0.00    +0.057 A 
ATOM      5  N   UNL     1       7.408  -3.844  22.334  0.00  0.00    -0.324 N 
ATOM      6  H   UNL     1       7.276  -3.885  21.322  0.00  0.00    +0.148 HD
ATOM      7  C   UNL     1       7.671  -5.160  22.917  0.00  0.00    +0.192 C 
ATOM      8  N   UNL     1       7.559  -5.031  24.376  0.00  0.00    -0.167 NA
ATOM      9  H   UNL     1       7.590  -5.948  24.830  0.00  0.00    +0.150 HD
ATOM     10  C   UNL     1       8.215  -1.602  21.953  0.00  0.00    +0.047 A 
ATOM     11  S   UNL     1       8.821  -4.123  25.008  0.00  0.00    +0.062 S 
ATOM     12  O   UNL     1      10.027  -4.881  24.768  0.00  0.00    -0.153 OA
ATOM     13  O   UNL     1       8.427  -3.714  26.334  0.00  0.00    -0.153 OA
ATOM     14  C   UNL     1       8.905  -0.447  22.357  0.00  0.00    +0.069 A 
ATOM     15 CL   UNL     1       8.875   0.889  21.262  0.00  0.00    -0.081 Cl
ENDROOT
BRANCH   1  16
ATOM     16  S   UNL     1      10.354   1.024  24.198  0.00  0.00    +0.057 S 
ATOM     17  O   UNL     1      11.410   0.645  25.105  0.00  0.00    -0.153 OA
ATOM     18  O   UNL     1      10.586   1.923  23.090  0.00  0.00    -0.153 OA
BRANCH  16  19
ATOM     19  N   UNL     1       9.159   1.769  25.108  0.00  0.00    -0.203 NA
ATOM     20  H   UNL     1       8.262   1.704  24.622  0.00  0.00    +0.144 HD
ATOM     21  H   UNL     1       9.143   1.367  26.046  0.00  0.00    +0.144 HD
ENDBRANCH  16  19
ENDBRANCH   1  16
BRANCH   7  22
ATOM     22  C   UNL     1       6.650  -6.221  22.395  0.00  0.00    +0.207 C 
ATOM     23 CL   UNL     1       6.118  -5.821  20.732  0.00  0.00    -0.101 Cl
ATOM     24 CL   UNL     1       5.213  -6.304  23.459  0.00  0.00    -0.101 Cl
ENDBRANCH   7  22
TORSDOF 3
ENDMDL
MODEL 2
REMARK VINA RESULT:      -6.9      4.339      7.567
REMARK  Name = 
REMARK  3 active torsions:
REMARK  status: ('A' for Active; 'I' for Inactive)
REMARK    1  A    between atoms: N_1  and  S_2
REMARK    2  A    between atoms: S_2  and  C_5
REMARK    3  A    between atoms: C_11  and  C_18
REMARK                            x       y       z     vdW  Elec       q    Type
REMARK                         _______ _______ _______ _____ _____    ______ ____
ROOT
ATOM      1  C   UNL     1       4.073  -6.527  24.501  0.00  0.00    +0.125 A 
ATOM      2  C   UNL     1       4.682  -6.021  23.346  0.00  0.00    +0.060 A 
ATOM      3  C   UNL     1       5.841  -5.246  23.463  0.00  0.00    +0.128 A 
ATOM      4  C   UNL     1       6.425  -4.957  24.696  0.00  0.00    +0.057 A 
ATOM      5  N   UNL     1       7.505  -4.084  24.852  0.00  0.00    -0.324 N 
ATOM      6  H   UNL     1       8.016  -4.234  25.723  0.00  0.00    +0.148 HD
ATOM      7  C   UNL     1       8.395  -3.866  23.712  0.00  0.00    +0.192 C 
ATOM      8  N   UNL     1       7.576  -3.384  22.592  0.00  0.00    -0.167 NA
ATOM      9  H   UNL     1       8.163  -3.076  21.812  0.00  0.00    +0.150 HD
ATOM     10  C   UNL     1       5.783  -5.456  25.840  0.00  0.00    +0.047 A 
ATOM     11  S   UNL     1       6.569  -4.592  22.008  0.00  0.00    +0.062 S 
ATOM     12  O   UNL     1       7.433  -5.611  21.457  0.00  0.00    -0.153 OA
ATOM     13  O   UNL     1       5.548  -3.947  21.217  0.00  0.00    -0.153 OA
ATOM     14  C   UNL     1       4.628  -6.250  25.753  0.00  0.00    +0.069 A 
ATOM     15 CL   UNL     1       3.981  -6.834  27.245  0.00  0.00    -0.081 Cl
ENDROOT
BRANCH   1  16
ATOM     16  S   UNL     1       2.562  -7.424  24.336  0.00  0.00    +0.057 S 
ATOM     17  O   UNL     1       2.783  -8.796  24.721  0.00  0.00    -0.153 OA
ATOM     18  O   UNL     1       1.491  -6.635  24.903  0.00  0.00    -0.153 OA
BRANCH  16  19
ATOM     19  N   UNL     1       2.272  -7.411  22.684  0.00  0.00    -0.203 NA
ATOM     20  H   UNL     1       3.144  -7.232  22.181  0.00  0.00    +0.144 HD
ATOM     21  H   UNL     1       1.816  -8.282  22.411  0.00  0.00    +0.144 HD
ENDBRANCH  16  19
ENDBRANCH   1  16
BRANCH   7  22
ATOM     22  C   UNL     1       9.501  -2.817  24.055  0.00  0.00    +0.207 C 
ATOM     23 CL   UNL     1       8.938  -1.703  25.339  0.00  0.00    -0.101 Cl
ATOM     24 CL   UNL     1       9.945  -1.859  22.609  0.00  0.00    -0.101 Cl
ENDBRANCH   7  22
TORSDOF 3
ENDMDL
MODEL 3
REMARK VINA RESULT:      -6.8      3.123      6.462
REMARK  Name = 
REMARK  3 active torsions:
REMARK  status: ('A' for Active; 'I' for Inactive)
REMARK    1  A    between atoms: N_1  and  S_2
REMARK    2  A    between atoms: S_2  and  C_5
REMARK    3  A    between atoms: C_11  and  C_18
REMARK                            x       y       z     vdW  Elec       q    Type
REMARK                         _______ _______ _______ _____ _____    ______ ____
ROOT
ATOM      1  C   UNL     1       5.177  -5.470  25.025  0.00  0.00    +0.125 A 
ATOM      2  C   UNL     1       6.473  -5.326  25.534  0.00  0.00    +0.060 A 
ATOM      3  C   UNL     1       7.359  -4.436  24.916  0.00  0.00    +0.128 A 
ATOM      4  C   UNL     1       6.999  -3.676  23.803  0.00  0.00    +0.057 A 
ATOM      5  N   UNL     1       7.898  -2.878  23.091  0.00  0.00    -0.324 N 
ATOM      6  H   UNL     1       7.437  -2.151  22.543  0.00  0.00    +0.148 HD
ATOM      7  C   UNL     1       9.092  -2.388  23.780  0.00  0.00    +0.192 C 
ATOM      8  N   UNL     1       9.823  -3.554  24.292  0.00  0.00    -0.167 NA
ATOM      9  H   UNL     1      10.740  -3.283  24.657  0.00  0.00    +0.150 HD
ATOM     10  C   UNL     1       5.702  -3.857  23.298  0.00  0.00    +0.047 A 
ATOM     11  S   UNL     1       8.989  -4.295  25.546  0.00  0.00    +0.062 S 
ATOM     12  O   UNL     1       8.956  -3.341  26.631  0.00  0.00    -0.153 OA
ATOM     13  O   UNL     1       9.550  -5.615  25.707  0.00  0.00    -0.153 OA
ATOM     14  C   UNL     1       4.786  -4.730  23.908  0.00  0.00    +0.069 A 
ATOM     15 CL   UNL     1       3.211  -4.806  23.202  0.00  0.00    -0.081 Cl
ENDROOT
BRANCH   1  16
ATOM     16  S   UNL     1       4.108  -6.664  25.765  0.00  0.00    +0.057 S 
ATOM     17  O   UNL     1       2.961  -5.989  26.323  0.00  0.00    -0.153 OA
ATOM     18  O   UNL     1       3.969  -7.784  24.861  0.00  0.00    -0.153 OA
BRANCH  16  19
ATOM     19  N   UNL     1       5.007  -7.261  27.048  0.00  0.00    -0.203 NA
ATOM     20  H   UNL     1       5.962  -7.456  26.740  0.00  0.00    +0.144 HD
ATOM     21  H   UNL     1       4.958  -6.610  27.833  0.00  0.00    +0.144 HD
ENDBRANCH  16  19
ENDBRANCH   1  16
BRANCH   7  22
ATOM     22  C   UNL     1      10.004  -1.570  22.811  0.00  0.00    +0.207 C 
ATOM     23 CL   UNL     1      10.666  -0.124  23.635  0.00  0.00    -0.101 Cl
ATOM     24 CL   UNL     1       9.091  -1.044  21.363  0.00  0.00    -0.101 Cl
ENDBRANCH   7  22
TORSDOF 3
ENDMDL
MODEL 4
REMARK VINA RESULT:      -6.8      3.111      3.725
REMARK  Name = 
REMARK  3 active torsions:
REMARK  status: ('A' for Active; 'I' for Inactive)
REMARK    1  A    between atoms: N_1  and  S_2
REMARK    2  A    between atoms: S_2  and  C_5
REMARK    3  A    between atoms: C_11  and  C_18
REMARK                            x       y       z     vdW  Elec       q    Type
REMARK                         _______ _______ _______ _____ _____    ______ ____
ROOT
ATOM      1  C   UNL     1       7.701  -1.716  22.877  0.00  0.00    +0.125 A 
ATOM      2  C   UNL     1       7.685  -2.994  22.305  0.00  0.00    +0.060 A 
ATOM      3  C   UNL     1       6.627  -3.862  22.594  0.00  0.00    +0.128 A 
ATOM      4  C   UNL     1       5.574  -3.504  23.435  0.00  0.00    +0.057 A 
ATOM      5  N   UNL     1       4.574  -4.391  23.842  0.00  0.00    -0.324 N 
ATOM      6  H   UNL     1       3.727  -3.919  24.159  0.00  0.00    +0.148 HD
ATOM      7  C   UNL     1       4.285  -5.550  22.997  0.00  0.00    +0.192 C 
ATOM      8  N   UNL     1       5.533  -6.309  22.838  0.00  0.00    -0.167 NA
ATOM      9  H   UNL     1       5.362  -7.207  22.377  0.00  0.00    +0.150 HD
ATOM     10  C   UNL     1       5.626  -2.227  24.015  0.00  0.00    +0.047 A 
ATOM     11  S   UNL     1       6.641  -5.472  21.896  0.00  0.00    +0.062 S 
ATOM     12  O   UNL     1       6.064  -5.378  20.575  0.00  0.00    -0.153 OA
ATOM     13  O   UNL     1       7.933  -6.074  22.124  0.00  0.00    -0.153 OA
ATOM     14  C   UNL     1       6.667  -1.327  23.730  0.00  0.00    +0.069 A 
ATOM     15 CL   UNL     1       6.566   0.227  24.478  0.00  0.00    -0.081 Cl
ENDROOT
BRANCH   1  16
ATOM     16  S   UNL     1       9.091  -0.672  22.571  0.00  0.00    +0.057 S 
ATOM     17  O   UNL     1       8.654   0.493  21.840  0.00  0.00    -0.153 OA
ATOM     18  O   UNL     1       9.866  -0.564  23.787  0.00  0.00    -0.153 OA
BRANCH  16  19
ATOM     19  N   UNL     1      10.048  -1.579  21.535  0.00  0.00    -0.203 NA
ATOM     20  H   UNL     1       9.603  -1.641  20.617  0.00  0.00    +0.144 HD
ATOM     21  H   UNL     1      10.989  -1.184  21.505  0.00  0.00    +0.144 HD
ENDBRANCH  16  19
ENDBRANCH   1  16
BRANCH   7  22
ATOM     22  C   UNL     1       3.188  -6.457  23.641  0.00  0.00    +0.207 C 
ATOM     23 CL   UNL     1       1.782  -5.475  24.159  0.00  0.00    -0.101 Cl
ATOM     24 CL   UNL     1       3.836  -7.335  25.060  0.00  0.00    -0.101 Cl
ENDBRANCH   7  22
TORSDOF 3
ENDMDL
MODEL 5
REMARK VINA RESULT:      -6.7      3.104      6.231
REMARK  Name = 
REMARK  3 active torsions:
REMARK  status: ('A' for Active; 'I' for Inactive)
REMARK    1  A    between atoms: N_1  and  S_2
REMARK    2  A    between atoms: S_2  and  C_5
REMARK    3  A    between atoms: C_11  and  C_18
REMARK                            x       y       z     vdW  Elec       q    Type
REMARK                         _______ _______ _______ _____ _____    ______ ____
ROOT
ATOM      1  C   UNL     1       6.588  -3.807  26.132  0.00  0.00    +0.125 A 
ATOM      2  C   UNL     1       7.780  -3.222  25.687  0.00  0.00    +0.060 A 
ATOM      3  C   UNL     1       7.725  -2.096  24.859  0.00  0.00    +0.128 A 
ATOM      4  C   UNL     1       6.519  -1.523  24.455  0.00  0.00    +0.057 A 
ATOM      5  N   UNL     1       6.431  -0.480  23.529  0.00  0.00    -0.324 N 
ATOM      6  H   UNL     1       5.554   0.037  23.593  0.00  0.00    +0.148 HD
ATOM      7  C   UNL     1       7.588   0.399  23.358  0.00  0.00    +0.192 C 
ATOM      8  N   UNL     1       8.737  -0.440  22.994  0.00  0.00    -0.167 NA
ATOM      9  H   UNL     1       9.540   0.133  22.721  0.00  0.00    +0.150 HD
ATOM     10  C   UNL     1       5.339  -2.143  24.895  0.00  0.00    +0.047 A 
ATOM     11  S   UNL     1       9.227  -1.397  24.283  0.00  0.00    +0.062 S 
ATOM     12  O   UNL     1       9.706  -0.492  25.303  0.00  0.00    -0.153 OA
ATOM     13  O   UNL     1      10.059  -2.445  23.741  0.00  0.00    -0.153 OA
ATOM     14  C   UNL     1       5.363  -3.264  25.741  0.00  0.00    +0.069 A 
ATOM     15 CL   UNL     1       3.829  -3.884  26.240  0.00  0.00    -0.081 Cl
ENDROOT
BRANCH   1  16
ATOM     16  S   UNL     1       6.681  -5.279  27.101  0.00  0.00    +0.057 S 
ATOM     17  O   UNL     1       6.303  -4.976  28.459  0.00  0.00    -0.153 OA
ATOM     18  O   UNL     1       6.068  -6.360  26.361  0.00  0.00    -0.153 OA
BRANCH  16  19
ATOM     19  N   UNL     1       8.318  -5.646  27.110  0.00  0.00    -0.203 NA
ATOM     20  H   UNL     1       8.637  -5.779  28.072  0.00  0.00    +0.144 HD
ATOM     21  H   UNL     1       8.492  -6.451  26.508  0.00  0.00    +0.144 HD
ENDBRANCH  16  19
ENDBRANCH   1  16
BRANCH   7  22
ATOM     22  C   UNL     1       7.328   1.460  22.242  0.00  0.00    +0.207 C 
ATOM     23 CL   UNL     1       8.714   1.539  21.110  0.00  0.00    -0.101 Cl
ATOM     24 CL   UNL     1       7.065   3.083  22.951  0.00  0.00    -0.101 Cl
ENDBRANCH   7  22
TORSDOF 3
ENDMDL
MODEL 6
REMARK VINA RESULT:      -6.5      3.204      6.534
REMARK  Name = 
REMARK  3 active torsions:
REMARK  status: ('A' for Active; 'I' for Inactive)
REMARK    1  A    between atoms: N_1  and  S_2
REMARK    2  A    between atoms: S_2  and  C_5
REMARK    3  A    between atoms: C_11  and  C_18
REMARK                            x       y       z     vdW  Elec       q    Type
REMARK                         _______ _______ _______ _____ _____    ______ ____
ROOT
ATOM      1  C   UNL     1       5.346  -4.494  23.420  0.00  0.00    +0.125 A 
ATOM      2  C   UNL     1       5.600  -3.431  24.295  0.00  0.00    +0.060 A 
ATOM      3  C   UNL     1       6.685  -2.582  24.048  0.00  0.00    +0.128 A 
ATOM      4  C   UNL     1       7.532  -2.751  22.953  0.00  0.00    +0.057 A 
ATOM      5  N   UNL     1       8.693  -2.001  22.753  0.00  0.00    -0.324 N 
ATOM      6  H   UNL     1       9.005  -2.001  21.781  0.00  0.00    +0.148 HD
ATOM      7  C   UNL     1       8.782  -0.676  23.368  0.00  0.00    +0.192 C 
ATOM      8  N   UNL     1       8.589  -0.842  24.815  0.00  0.00    -0.167 NA
ATOM      9  H   UNL     1       8.784   0.029  25.315  0.00  0.00    +0.150 HD
ATOM     10  C   UNL     1       7.271  -3.838  22.105  0.00  0.00    +0.047 A 
ATOM     11  S   UNL     1       7.008  -1.277  25.174  0.00  0.00    +0.062 S 
ATOM     12  O   UNL     1       6.181  -0.156  24.791  0.00  0.00    -0.153 OA
ATOM     13  O   UNL     1       7.008  -1.802  26.519  0.00  0.00    -0.153 OA
ATOM     14  C   UNL     1       6.179  -4.697  22.317  0.00  0.00    +0.069 A 
ATOM     15 CL   UNL     1       5.956  -5.959  21.159  0.00  0.00    -0.081 Cl
ENDROOT
BRANCH   1  16
ATOM     16  S   UNL     1       4.028  -5.604  23.801  0.00  0.00    +0.057 S 
ATOM     17  O   UNL     1       3.578  -5.358  25.149  0.00  0.00    -0.153 OA
ATOM     18  O   UNL     1       3.112  -5.635  22.683  0.00  0.00    -0.153 OA
BRANCH  16  19
ATOM     19  N   UNL     1       4.764  -7.112  23.789  0.00  0.00    -0.203 NA
ATOM     20  H   UNL     1       5.488  -7.149  24.509  0.00  0.00    +0.144 HD
ATOM     21  H   UNL     1       4.054  -7.839  23.888  0.00  0.00    +0.144 HD
ENDBRANCH  16  19
ENDBRANCH   1  16
BRANCH   7  22
ATOM     22  C   UNL     1      10.170  -0.017  23.088  0.00  0.00    +0.207 C 
ATOM     23 CL   UNL     1      10.918   0.555  24.612  0.00  0.00    -0.101 Cl
ATOM     24 CL   UNL     1      10.006   1.369  21.966  0.00  0.00    -0.101 Cl
ENDBRANCH   7  22
TORSDOF 3
ENDMDL
MODEL 7
REMARK VINA RESULT:      -6.5      3.392      3.931
REMARK  Name = 
REMARK  3 active torsions:
REMARK  status: ('A' for Active; 'I' for Inactive)
REMARK    1  A    between atoms: N_1  and  S_2
REMARK    2  A    between atoms: S_2  and  C_5
REMARK    3  A    between atoms: C_11  and  C_18
REMARK                            x       y       z     vdW  Elec       q    Type
REMARK                         _______ _______ _______ _____ _____    ______ ____
ROOT
ATOM      1  C   UNL     1       8.279   1.603  24.079  0.00  0.00    +0.125 A 
ATOM      2  C   UNL     1       8.693   0.481  23.351  0.00  0.00    +0.060 A 
ATOM      3  C   UNL     1       8.766  -0.763  23.988  0.00  0.00    +0.128 A 
ATOM      4  C   UNL     1       8.438  -0.935  25.332  0.00  0.00    +0.057 A 
ATOM      5  N   UNL     1       8.623  -2.134  26.024  0.00  0.00    -0.324 N 
ATOM      6  H   UNL     1       8.045  -2.204  26.863  0.00  0.00    +0.148 HD
ATOM      7  C   UNL     1       8.655  -3.382  25.261  0.00  0.00    +0.192 C 
ATOM      8  N   UNL     1       9.721  -3.264  24.258  0.00  0.00    -0.167 NA
ATOM      9  H   UNL     1       9.887  -4.159  23.790  0.00  0.00    +0.150 HD
ATOM     10  C   UNL     1       8.049   0.210  26.046  0.00  0.00    +0.047 A 
ATOM     11  S   UNL     1       9.320  -2.150  23.068  0.00  0.00    +0.062 S 
ATOM     12  O   UNL     1       8.178  -2.694  22.370  0.00  0.00    -0.153 OA
ATOM     13  O   UNL     1      10.541  -1.805  22.381  0.00  0.00    -0.153 OA
ATOM     14  C   UNL     1       7.950   1.468  25.429  0.00  0.00    +0.069 A 
ATOM     15 CL   UNL     1       7.408   2.772  26.426  0.00  0.00    -0.081 Cl
ENDROOT
BRANCH   1  16
ATOM     16  S   UNL     1       8.281   3.176  23.279  0.00  0.00    +0.057 S 
ATOM     17  O   UNL     1       6.927   3.669  23.203  0.00  0.00    -0.153 OA
ATOM     18  O   UNL     1       9.354   3.974  23.830  0.00  0.00    -0.153 OA
BRANCH  16  19
ATOM     19  N   UNL     1       8.771   2.825  21.714  0.00  0.00    -0.203 NA
ATOM     20  H   UNL     1       8.138   2.139  21.299  0.00  0.00    +0.144 HD
ATOM     21  H   UNL     1       8.844   3.690  21.177  0.00  0.00    +0.144 HD
ENDBRANCH  16  19
ENDBRANCH   1  16
BRANCH   7  22
ATOM     22  C   UNL     1       8.933  -4.604  26.193  0.00  0.00    +0.207 C 
ATOM     23 CL   UNL     1       9.507  -6.008  25.240  0.00  0.00    -0.101 Cl
ATOM     24 CL   UNL     1       7.455  -5.076  27.087  0.00  0.00    -0.101 Cl
ENDBRANCH   7  22
TORSDOF 3
ENDMDL
MODEL 8
REMARK VINA RESULT:      -6.4      3.099      3.810
REMARK  Name = 
REMARK  3 active torsions:
REMARK  status: ('A' for Active; 'I' for Inactive)
REMARK    1  A    between atoms: N_1  and  S_2
REMARK    2  A    between atoms: S_2  and  C_5
REMARK    3  A    between atoms: C_11  and  C_18
REMARK                            x       y       z     vdW  Elec       q    Type
REMARK                         _______ _______ _______ _____ _____    ______ ____
ROOT
ATOM      1  C   UNL     1       8.785  -1.226  24.019  0.00  0.00    +0.125 A 
ATOM      2  C   UNL     1       8.715  -2.619  23.900  0.00  0.00    +0.060 A 
ATOM      3  C   UNL     1       8.055  -3.360  24.886  0.00  0.00    +0.128 A 
ATOM      4  C   UNL     1       7.454  -2.762  25.994  0.00  0.00    +0.057 A 
ATOM      5  N   UNL     1       6.901  -3.484  27.054  0.00  0.00    -0.324 N 
ATOM      6  H   UNL     1       6.226  -2.943  27.595  0.00  0.00    +0.148 HD
ATOM      7  C   UNL     1       6.450  -4.854  26.806  0.00  0.00    +0.192 C 
ATOM      8  N   UNL     1       7.594  -5.612  26.284  0.00  0.00    -0.167 NA
ATOM      9  H   UNL     1       7.379  -6.611  26.228  0.00  0.00    +0.150 HD
ATOM     10  C   UNL     1       7.558  -1.367  26.101  0.00  0.00    +0.047 A 
ATOM     11  S   UNL     1       8.009  -5.107  24.739  0.00  0.00    +0.062 S 
ATOM     12  O   UNL     1       6.890  -5.443  23.888  0.00  0.00    -0.153 OA
ATOM     13  O   UNL     1       9.341  -5.595  24.476  0.00  0.00    -0.153 OA
ATOM     14  C   UNL     1       8.200  -0.595  25.118  0.00  0.00    +0.069 A 
ATOM     15 CL   UNL     1       8.202   1.115  25.364  0.00  0.00    -0.081 Cl
ENDROOT
BRANCH   1  16
ATOM     16  S   UNL     1       9.700  -0.320  22.811  0.00  0.00    +0.057 S 
ATOM     17  O   UNL     1       8.796   0.526  22.070  0.00  0.00    -0.153 OA
ATOM     18  O   UNL     1      10.897   0.201  23.433  0.00  0.00    -0.153 OA
BRANCH  16  19
ATOM     19  N   UNL     1      10.248  -1.505  21.758  0.00  0.00    -0.203 NA
ATOM     20  H   UNL     1      10.465  -1.088  20.851  0.00  0.00    +0.144 HD
ATOM     21  H   UNL     1      11.037  -1.998  22.179  0.00  0.00    +0.144 HD
ENDBRANCH  16  19
ENDBRANCH   1  16
BRANCH   7  22
ATOM     22  C   UNL     1       5.922  -5.518  28.117  0.00  0.00    +0.207 C 
ATOM     23 CL   UNL     1       5.011  -7.015  27.745  0.00  0.00    -0.101 Cl
ATOM     24 CL   UNL     1       4.854  -4.399  29.018  0.00  0.00    -0.101 Cl
ENDBRANCH   7  22
TORSDOF 3
ENDMDL
MODEL 9
REMARK VINA RESULT:      -6.4      4.032      7.880
REMARK  Name = 
REMARK  3 active torsions:
REMARK  status: ('A' for Active; 'I' for Inactive)
REMARK    1  A    between atoms: N_1  and  S_2
REMARK    2  A    between atoms: S_2  and  C_5
REMARK    3  A    between atoms: C_11  and  C_18
REMARK                            x       y       z     vdW  Elec       q    Type
REMARK                         _______ _______ _______ _____ _____    ______ ____
ROOT
ATOM      1  C   UNL     1       8.174  -0.046  23.881  0.00  0.00    +0.125 A 
ATOM      2  C   UNL     1       7.904   1.324  23.972  0.00  0.00    +0.060 A 
ATOM      3  C   UNL     1       8.956   2.240  23.860  0.00  0.00    +0.128 A 
ATOM      4  C   UNL     1      10.277   1.841  23.656  0.00  0.00    +0.057 A 
ATOM      5  N   UNL     1      11.360   2.723  23.668  0.00  0.00    -0.324 N 
ATOM      6  H   UNL     1      12.180   2.354  23.185  0.00  0.00    +0.148 HD
ATOM      7  C   UNL     1      11.116   4.132  23.358  0.00  0.00    +0.192 C 
ATOM      8  N   UNL     1      10.110   4.630  24.306  0.00  0.00    -0.167 NA
ATOM      9  H   UNL     1      10.005   5.645  24.232  0.00  0.00    +0.150 HD
ATOM     10  C   UNL     1      10.524   0.461  23.592  0.00  0.00    +0.047 A 
ATOM     11  S   UNL     1       8.604   3.952  24.011  0.00  0.00    +0.062 S 
ATOM     12  O   UNL     1       8.191   4.428  22.711  0.00  0.00    -0.153 OA
ATOM     13  O   UNL     1       7.803   4.167  25.193  0.00  0.00    -0.153 OA
ATOM     14  C   UNL     1       9.486  -0.482  23.684  0.00  0.00    +0.069 A 
ATOM     15 CL   UNL     1       9.941  -2.142  23.536  0.00  0.00    -0.081 Cl
ENDROOT
BRANCH   1  16
ATOM     16  S   UNL     1       6.847  -1.186  24.116  0.00  0.00    +0.057 S 
ATOM     17  O   UNL     1       6.544  -1.824  22.858  0.00  0.00    -0.153 OA
ATOM     18  O   UNL     1       7.099  -1.948  25.318  0.00  0.00    -0.153 OA
BRANCH  16  19
ATOM     19  N   UNL     1       5.544  -0.202  24.501  0.00  0.00    -0.203 NA
ATOM     20  H   UNL     1       5.260   0.334  23.678  0.00  0.00    +0.144 HD
ATOM     21  H   UNL     1       4.793  -0.769  24.895  0.00  0.00    +0.144 HD
ENDBRANCH  16  19
ENDBRANCH   1  16
BRANCH   7  22
ATOM     22  C   UNL     1      12.427   4.971  23.482  0.00  0.00    +0.207 C 
ATOM     23 CL   UNL     1      12.166   6.401  24.529  0.00  0.00    -0.101 Cl
ATOM     24 CL   UNL     1      12.987   5.525  21.874  0.00  0.00    -0.101 Cl
ENDBRANCH   7  22
TORSDOF 3
ENDMDL
