MODEL 1
REMARK VINA RESULT:      -7.8      0.000      0.000
REMARK  Name = 
REMARK  17 active torsions:
REMARK  status: ('A' for Active; 'I' for Inactive)
REMARK    1  A    between atoms: N_1  and  C_2
REMARK    2  A    between atoms: C_2  and  C_4
REMARK    3  A    between atoms: N_8  and  C_10
REMARK    4  A    between atoms: C_13  and  C_15
REMARK    5  A    between atoms: C_15  and  O_16
REMARK    6  A    between atoms: O_16  and  P_17
REMARK    7  A    between atoms: P_17  and  O_20
REMARK    8  A    between atoms: O_20  and  P_21
REMARK    9  A    between atoms: P_21  and  O_22
REMARK   10  A    between atoms: P_21  and  O_24
REMARK   11  A    between atoms: O_24  and  C_25
REMARK   12  A    between atoms: C_25  and  C_26
REMARK   13  A    between atoms: C_29  and  N_37
REMARK   14  A    between atoms: C_31  and  O_33
REMARK   15  A    between atoms: C_34  and  O_36
REMARK   16  A    between atoms: C_47  and  O_49
REMARK   17  A    between atoms: C_50  and  O_52
REMARK                            x       y       z     vdW  Elec       q    Type
REMARK                         _______ _______ _______ _____ _____    ______ ____
ROOT
ATOM      1  P   UNL     1       8.398  -2.399  22.856  0.00  0.00    +0.480 P 
ATOM      2  O   UNL     1       9.725  -2.127  22.222  0.00  0.00    -0.227 OA
ENDROOT
BRANCH   1   3
ATOM      3  O   UNL     1       7.583  -1.079  23.281  0.00  0.00    -0.302 OA
ATOM      4  H   UNL     1       6.647  -1.294  23.474  0.00  0.00    +0.222 HD
ENDBRANCH   1   3
BRANCH   1   5
ATOM      5  O   UNL     1       7.350  -3.063  21.805  0.00  0.00    -0.284 OA
BRANCH   5   6
ATOM      6  C   UNL     1       5.948  -2.930  22.028  0.00  0.00    +0.206 C 
BRANCH   6   7
ATOM      7  C   UNL     1       5.133  -4.259  21.933  0.00  0.00    +0.178 C 
ATOM      8  C   UNL     1       6.056  -5.427  21.532  0.00  0.00    +0.178 C 
ATOM      9  C   UNL     1       6.488  -6.055  22.865  0.00  0.00    +0.195 C 
ATOM     10  C   UNL     1       5.631  -5.337  23.917  0.00  0.00    +0.253 C 
ATOM     11  O   UNL     1       4.573  -4.682  23.198  0.00  0.00    -0.346 OA
BRANCH  10  12
ATOM     12  N   UNL     1       5.089  -6.186  24.975  0.00  0.00    -0.286 N 
ATOM     13  C   UNL     1       5.595  -6.286  26.247  0.00  0.00    +0.167 A 
ATOM     14  N   UNL     1       6.788  -5.859  26.701  0.00  0.00    -0.216 NA
ATOM     15  C   UNL     1       6.908  -6.103  28.022  0.00  0.00    +0.225 A 
ATOM     16  N   UNL     1       5.995  -6.634  28.868  0.00  0.00    -0.219 NA
ATOM     17  C   UNL     1       4.793  -6.999  28.369  0.00  0.00    +0.147 A 
ATOM     18  N   UNL     1       3.832  -7.461  29.256  0.00  0.00    -0.341 N 
ATOM     19  H   UNL     1       3.077  -7.983  28.827  0.00  0.00    +0.144 HD
ATOM     20  H   UNL     1       4.203  -7.770  30.143  0.00  0.00    +0.144 HD
ATOM     21  C   UNL     1       4.580  -6.873  26.989  0.00  0.00    +0.147 A 
ATOM     22  N   UNL     1       3.514  -7.217  26.171  0.00  0.00    -0.231 NA
ATOM     23  C   UNL     1       3.857  -6.774  24.975  0.00  0.00    +0.203 A 
ENDBRANCH  10  12
BRANCH   9  24
ATOM     24  O   UNL     1       7.880  -5.821  23.109  0.00  0.00    -0.385 OA
ATOM     25  H   UNL     1       8.317  -6.692  23.015  0.00  0.00    +0.210 HD
ENDBRANCH   9  24
BRANCH   8  26
ATOM     26  O   UNL     1       5.357  -6.407  20.750  0.00  0.00    -0.386 OA
ATOM     27  H   UNL     1       5.882  -6.615  19.957  0.00  0.00    +0.210 HD
ENDBRANCH   8  26
ENDBRANCH   6   7
ENDBRANCH   5   6
ENDBRANCH   1   5
BRANCH   1  28
ATOM     28  O   UNL     1       8.353  -3.325  24.175  0.00  0.00    -0.229 OA
BRANCH  28  29
ATOM     29  P   UNL     1       8.319  -2.576  25.610  0.00  0.00    +0.222 P 
ATOM     30  O   UNL     1       6.984  -1.920  25.801  0.00  0.00    -0.437 OA
ATOM     31  O   UNL     1       8.850  -3.515  26.661  0.00  0.00    -0.517 OA
BRANCH  29  32
ATOM     32  O   UNL     1       9.423  -1.368  25.444  0.00  0.00    -0.324 OA
BRANCH  32  33
ATOM     33  C   UNL     1       8.909  -0.122  25.927  0.00  0.00    +0.202 C 
BRANCH  33  37
ATOM     34  C   UNL     1       8.749   2.408  23.360  0.00  0.00    +0.439 C 
ATOM     35  C   UNL     1       9.922   1.579  22.829  0.00  0.00    +0.244 C 
ATOM     36  C   UNL     1      10.389   0.737  24.009  0.00  0.00    +0.183 C 
ATOM     37  C   UNL     1       9.419   1.075  25.135  0.00  0.00    +0.182 C 
ATOM     38  O   UNL     1       8.315   1.808  24.576  0.00  0.00    -0.309 OA
BRANCH  34  41
ATOM     39  C   UNL     1      10.781   5.566  23.742  0.00  0.00    +0.067 A 
ATOM     40  C   UNL     1      10.415   4.227  23.555  0.00  0.00    +0.322 A 
ATOM     41  N   UNL     1       9.108   3.849  23.580  0.00  0.00    -0.173 N 
ATOM     42  C   UNL     1       8.135   4.782  23.723  0.00  0.00    +0.311 A 
ATOM     43  C   UNL     1       8.447   6.121  23.912  0.00  0.00    +0.071 A 
ATOM     44  C   UNL     1       9.778   6.516  23.935  0.00  0.00    +0.022 A 
BRANCH  39  45
ATOM     45  C   UNL     1      12.212   5.975  23.770  0.00  0.00    +0.083 C 
ATOM     46  S   UNL     1      13.332   5.592  22.593  0.00  0.00    -0.035 S 
BRANCH  45  47
ATOM     47  N   UNL     1      12.633   6.710  24.849  0.00  0.00    -0.352 N 
ATOM     48  H   UNL     1      13.564   7.086  24.980  0.00  0.00    +0.143 HD
ATOM     49  H   UNL     1      11.989   6.845  25.623  0.00  0.00    +0.143 HD
ENDBRANCH  45  47
ENDBRANCH  39  45
ENDBRANCH  34  41
BRANCH  36  50
ATOM     50  O   UNL     1      11.703   1.177  24.373  0.00  0.00    -0.386 OA
ATOM     51  H   UNL     1      11.749   1.180  25.352  0.00  0.00    +0.210 HD
ENDBRANCH  36  50
BRANCH  35  52
ATOM     52  O   UNL     1       9.489   0.766  21.730  0.00  0.00    -0.380 OA
ATOM     53  H   UNL     1       8.948   0.021  22.067  0.00  0.00    +0.210 HD
ENDBRANCH  35  52
ENDBRANCH  33  37
ENDBRANCH  32  33
ENDBRANCH  29  32
ENDBRANCH  28  29
ENDBRANCH   1  28
TORSDOF 17
ENDMDL
MODEL 2
REMARK VINA RESULT:      -7.6      3.937      8.439
REMARK  Name = 
REMARK  17 active torsions:
REMARK  status: ('A' for Active; 'I' for Inactive)
REMARK    1  A    between atoms: N_1  and  C_2
REMARK    2  A    between atoms: C_2  and  C_4
REMARK    3  A    between atoms: N_8  and  C_10
REMARK    4  A    between atoms: C_13  and  C_15
REMARK    5  A    between atoms: C_15  and  O_16
REMARK    6  A    between atoms: O_16  and  P_17
REMARK    7  A    between atoms: P_17  and  O_20
REMARK    8  A    between atoms: O_20  and  P_21
REMARK    9  A    between atoms: P_21  and  O_22
REMARK   10  A    between atoms: P_21  and  O_24
REMARK   11  A    between atoms: O_24  and  C_25
REMARK   12  A    between atoms: C_25  and  C_26
REMARK   13  A    between atoms: C_29  and  N_37
REMARK   14  A    between atoms: C_31  and  O_33
REMARK   15  A    between atoms: C_34  and  O_36
REMARK   16  A    between atoms: C_47  and  O_49
REMARK   17  A    between atoms: C_50  and  O_52
REMARK                            x       y       z     vdW  Elec       q    Type
REMARK                         _______ _______ _______ _____ _____    ______ ____
ROOT
ATOM      1  P   UNL     1       8.613   1.970  22.404  0.00  0.00    +0.480 P 
ATOM      2  O   UNL     1       7.567   1.856  21.341  0.00  0.00    -0.227 OA
ENDROOT
BRANCH   1   3
ATOM      3  O   UNL     1      10.100   2.227  21.847  0.00  0.00    -0.302 OA
ATOM      4  H   UNL     1      10.106   2.252  20.867  0.00  0.00    +0.222 HD
ENDBRANCH   1   3
BRANCH   1   5
ATOM      5  O   UNL     1       8.408   3.300  23.314  0.00  0.00    -0.284 OA
BRANCH   5   6
ATOM      6  C   UNL     1       8.584   3.222  24.727  0.00  0.00    +0.206 C 
BRANCH   6   7
ATOM      7  C   UNL     1       7.320   3.574  25.573  0.00  0.00    +0.178 C 
ATOM      8  C   UNL     1       6.066   3.604  24.677  0.00  0.00    +0.178 C 
ATOM      9  C   UNL     1       5.471   2.193  24.795  0.00  0.00    +0.195 C 
ATOM     10  C   UNL     1       6.303   1.522  25.897  0.00  0.00    +0.253 C 
ATOM     11  O   UNL     1       7.003   2.580  26.575  0.00  0.00    -0.346 OA
BRANCH  10  12
ATOM     12  N   UNL     1       5.551   0.707  26.848  0.00  0.00    -0.286 N 
ATOM     13  C   UNL     1       5.064  -0.552  26.600  0.00  0.00    +0.167 A 
ATOM     14  N   UNL     1       4.942  -1.175  25.413  0.00  0.00    -0.216 NA
ATOM     15  C   UNL     1       4.457  -2.422  25.580  0.00  0.00    +0.225 A 
ATOM     16  N   UNL     1       4.167  -3.067  26.733  0.00  0.00    -0.219 NA
ATOM     17  C   UNL     1       4.356  -2.413  27.901  0.00  0.00    +0.147 A 
ATOM     18  N   UNL     1       4.141  -3.108  29.081  0.00  0.00    -0.341 N 
ATOM     19  H   UNL     1       4.011  -2.524  29.899  0.00  0.00    +0.144 HD
ATOM     20  H   UNL     1       3.575  -3.938  28.974  0.00  0.00    +0.144 HD
ATOM     21  C   UNL     1       4.777  -1.076  27.852  0.00  0.00    +0.147 A 
ATOM     22  N   UNL     1       4.989  -0.124  28.840  0.00  0.00    -0.231 NA
ATOM     23  C   UNL     1       5.465   0.924  28.193  0.00  0.00    +0.203 A 
ENDBRANCH  10  12
BRANCH   9  24
ATOM     24  O   UNL     1       5.608   1.479  23.561  0.00  0.00    -0.385 OA
ATOM     25  H   UNL     1       4.753   1.023  23.421  0.00  0.00    +0.210 HD
ENDBRANCH   9  24
BRANCH   8  26
ATOM     26  O   UNL     1       5.106   4.563  25.144  0.00  0.00    -0.386 OA
ATOM     27  H   UNL     1       4.996   5.257  24.471  0.00  0.00    +0.210 HD
ENDBRANCH   8  26
ENDBRANCH   6   7
ENDBRANCH   5   6
ENDBRANCH   1   5
BRANCH   1  28
ATOM     28  O   UNL     1       8.792   0.745  23.438  0.00  0.00    -0.229 OA
BRANCH  28  29
ATOM     29  P   UNL     1      10.208  -0.040  23.425  0.00  0.00    +0.222 P 
ATOM     30  O   UNL     1      10.436  -0.637  22.069  0.00  0.00    -0.437 OA
ATOM     31  O   UNL     1      11.260   0.845  24.041  0.00  0.00    -0.517 OA
BRANCH  29  32
ATOM     32  O   UNL     1       9.967  -1.292  24.463  0.00  0.00    -0.324 OA
BRANCH  32  33
ATOM     33  C   UNL     1       8.610  -1.338  24.919  0.00  0.00    +0.202 C 
BRANCH  33  37
ATOM     34  C   UNL     1       8.385  -4.627  26.384  0.00  0.00    +0.439 C 
ATOM     35  C   UNL     1       8.985  -4.994  25.024  0.00  0.00    +0.244 C 
ATOM     36  C   UNL     1       8.741  -3.782  24.134  0.00  0.00    +0.183 C 
ATOM     37  C   UNL     1       8.076  -2.758  25.046  0.00  0.00    +0.182 C 
ATOM     38  O   UNL     1       8.198  -3.216  26.405  0.00  0.00    -0.309 OA
BRANCH  34  41
ATOM     39  C   UNL     1       5.137  -6.473  25.840  0.00  0.00    +0.067 A 
ATOM     40  C   UNL     1       6.343  -5.795  25.617  0.00  0.00    +0.322 A 
ATOM     41  N   UNL     1       7.090  -5.336  26.658  0.00  0.00    -0.173 N 
ATOM     42  C   UNL     1       6.705  -5.589  27.933  0.00  0.00    +0.311 A 
ATOM     43  C   UNL     1       5.518  -6.256  28.204  0.00  0.00    +0.071 A 
ATOM     44  C   UNL     1       4.722  -6.691  27.154  0.00  0.00    +0.022 A 
BRANCH  39  45
ATOM     45  C   UNL     1       4.290  -6.927  24.704  0.00  0.00    +0.083 C 
ATOM     46  S   UNL     1       2.756  -7.567  24.860  0.00  0.00    -0.035 S 
BRANCH  45  47
ATOM     47  N   UNL     1       4.819  -6.816  23.443  0.00  0.00    -0.352 N 
ATOM     48  H   UNL     1       4.711  -7.491  22.696  0.00  0.00    +0.143 HD
ATOM     49  H   UNL     1       5.428  -6.027  23.242  0.00  0.00    +0.143 HD
ENDBRANCH  45  47
ENDBRANCH  39  45
ENDBRANCH  34  41
BRANCH  36  50
ATOM     50  O   UNL     1       7.820  -4.166  23.107  0.00  0.00    -0.386 OA
ATOM     51  H   UNL     1       8.315  -4.185  22.263  0.00  0.00    +0.210 HD
ENDBRANCH  36  50
BRANCH  35  52
ATOM     52  O   UNL     1      10.384  -5.279  25.168  0.00  0.00    -0.380 OA
ATOM     53  H   UNL     1      10.782  -4.654  25.809  0.00  0.00    +0.210 HD
ENDBRANCH  35  52
ENDBRANCH  33  37
ENDBRANCH  32  33
ENDBRANCH  29  32
ENDBRANCH  28  29
ENDBRANCH   1  28
TORSDOF 17
ENDMDL
MODEL 3
REMARK VINA RESULT:      -7.4      4.167      8.115
REMARK  Name = 
REMARK  17 active torsions:
REMARK  status: ('A' for Active; 'I' for Inactive)
REMARK    1  A    between atoms: N_1  and  C_2
REMARK    2  A    between atoms: C_2  and  C_4
REMARK    3  A    between atoms: N_8  and  C_10
REMARK    4  A    between atoms: C_13  and  C_15
REMARK    5  A    between atoms: C_15  and  O_16
REMARK    6  A    between atoms: O_16  and  P_17
REMARK    7  A    between atoms: P_17  and  O_20
REMARK    8  A    between atoms: O_20  and  P_21
REMARK    9  A    between atoms: P_21  and  O_22
REMARK   10  A    between atoms: P_21  and  O_24
REMARK   11  A    between atoms: O_24  and  C_25
REMARK   12  A    between atoms: C_25  and  C_26
REMARK   13  A    between atoms: C_29  and  N_37
REMARK   14  A    between atoms: C_31  and  O_33
REMARK   15  A    between atoms: C_34  and  O_36
REMARK   16  A    between atoms: C_47  and  O_49
REMARK   17  A    between atoms: C_50  and  O_52
REMARK                            x       y       z     vdW  Elec       q    Type
REMARK                         _______ _______ _______ _____ _____    ______ ____
ROOT
ATOM      1  P   UNL     1       5.091   2.699  23.862  0.00  0.00    +0.480 P 
ATOM      2  O   UNL     1       3.892   3.053  23.043  0.00  0.00    -0.227 OA
ENDROOT
BRANCH   1   3
ATOM      3  O   UNL     1       5.316   1.118  24.060  0.00  0.00    -0.302 OA
ATOM      4  H   UNL     1       6.197   0.847  23.730  0.00  0.00    +0.222 HD
ENDBRANCH   1   3
BRANCH   1   5
ATOM      5  O   UNL     1       6.477   3.099  23.112  0.00  0.00    -0.284 OA
BRANCH   5   6
ATOM      6  C   UNL     1       6.941   2.309  22.020  0.00  0.00    +0.206 C 
BRANCH   6   7
ATOM      7  C   UNL     1       8.460   1.949  22.061  0.00  0.00    +0.178 C 
ATOM      8  C   UNL     1       9.117   2.536  23.326  0.00  0.00    +0.178 C 
ATOM      9  C   UNL     1       9.054   1.402  24.358  0.00  0.00    +0.195 C 
ATOM     10  C   UNL     1       8.555   0.190  23.559  0.00  0.00    +0.253 C 
ATOM     11  O   UNL     1       8.712   0.529  22.170  0.00  0.00    -0.346 OA
BRANCH  10  12
ATOM     12  N   UNL     1       9.213  -1.079  23.859  0.00  0.00    -0.286 N 
ATOM     13  C   UNL     1       8.881  -1.918  24.894  0.00  0.00    +0.167 A 
ATOM     14  N   UNL     1       8.104  -1.652  25.959  0.00  0.00    -0.216 NA
ATOM     15  C   UNL     1       7.981  -2.745  26.742  0.00  0.00    +0.225 A 
ATOM     16  N   UNL     1       8.474  -3.988  26.536  0.00  0.00    -0.219 NA
ATOM     17  C   UNL     1       9.206  -4.214  25.422  0.00  0.00    +0.147 A 
ATOM     18  N   UNL     1       9.633  -5.509  25.174  0.00  0.00    -0.341 N 
ATOM     19  H   UNL     1      10.397  -5.583  24.514  0.00  0.00    +0.144 HD
ATOM     20  H   UNL     1       9.624  -6.110  25.986  0.00  0.00    +0.144 HD
ATOM     21  C   UNL     1       9.475  -3.131  24.574  0.00  0.00    +0.147 A 
ATOM     22  N   UNL     1      10.236  -3.012  23.419  0.00  0.00    -0.231 NA
ATOM     23  C   UNL     1      10.038  -1.769  23.019  0.00  0.00    +0.203 A 
ENDBRANCH  10  12
BRANCH   9  24
ATOM     24  O   UNL     1       8.135   1.721  25.409  0.00  0.00    -0.385 OA
ATOM     25  H   UNL     1       8.655   1.685  26.238  0.00  0.00    +0.210 HD
ENDBRANCH   9  24
BRANCH   8  26
ATOM     26  O   UNL     1      10.488   2.890  23.092  0.00  0.00    -0.386 OA
ATOM     27  H   UNL     1      10.905   3.127  23.939  0.00  0.00    +0.210 HD
ENDBRANCH   8  26
ENDBRANCH   6   7
ENDBRANCH   5   6
ENDBRANCH   1   5
BRANCH   1  28
ATOM     28  O   UNL     1       5.204   3.297  25.356  0.00  0.00    -0.229 OA
BRANCH  28  29
ATOM     29  P   UNL     1       4.521   2.447  26.553  0.00  0.00    +0.222 P 
ATOM     30  O   UNL     1       4.504   3.273  27.805  0.00  0.00    -0.437 OA
ATOM     31  O   UNL     1       3.245   1.830  26.044  0.00  0.00    -0.517 OA
BRANCH  29  32
ATOM     32  O   UNL     1       5.581   1.216  26.809  0.00  0.00    -0.324 OA
BRANCH  32  33
ATOM     33  C   UNL     1       5.185   0.410  27.924  0.00  0.00    +0.202 C 
BRANCH  33  37
ATOM     34  C   UNL     1       3.735  -2.180  25.875  0.00  0.00    +0.439 C 
ATOM     35  C   UNL     1       2.901  -2.363  27.146  0.00  0.00    +0.244 C 
ATOM     36  C   UNL     1       3.673  -1.643  28.244  0.00  0.00    +0.183 C 
ATOM     37  C   UNL     1       4.874  -1.029  27.534  0.00  0.00    +0.182 C 
ATOM     38  O   UNL     1       4.658  -1.123  26.115  0.00  0.00    -0.309 OA
BRANCH  34  41
ATOM     39  C   UNL     1       5.898  -4.587  23.931  0.00  0.00    +0.067 A 
ATOM     40  C   UNL     1       5.201  -3.439  24.330  0.00  0.00    +0.322 A 
ATOM     41  N   UNL     1       4.458  -3.433  25.470  0.00  0.00    -0.173 N 
ATOM     42  C   UNL     1       4.437  -4.525  26.272  0.00  0.00    +0.311 A 
ATOM     43  C   UNL     1       5.111  -5.686  25.920  0.00  0.00    +0.071 A 
ATOM     44  C   UNL     1       5.836  -5.724  24.738  0.00  0.00    +0.022 A 
BRANCH  39  45
ATOM     45  C   UNL     1       6.667  -4.616  22.657  0.00  0.00    +0.083 C 
ATOM     46  S   UNL     1       7.135  -6.007  21.862  0.00  0.00    -0.035 S 
BRANCH  45  47
ATOM     47  N   UNL     1       7.018  -3.409  22.109  0.00  0.00    -0.352 N 
ATOM     48  H   UNL     1       6.410  -2.606  22.010  0.00  0.00    +0.143 HD
ATOM     49  H   UNL     1       7.946  -3.316  21.702  0.00  0.00    +0.143 HD
ENDBRANCH  45  47
ENDBRANCH  39  45
ENDBRANCH  34  41
BRANCH  36  50
ATOM     50  O   UNL     1       4.132  -2.627  29.179  0.00  0.00    -0.386 OA
ATOM     51  H   UNL     1       3.344  -3.105  29.510  0.00  0.00    +0.210 HD
ENDBRANCH  36  50
BRANCH  35  52
ATOM     52  O   UNL     1       1.593  -1.804  26.957  0.00  0.00    -0.380 OA
ATOM     53  H   UNL     1       0.945  -2.526  26.817  0.00  0.00    +0.210 HD
ENDBRANCH  35  52
ENDBRANCH  33  37
ENDBRANCH  32  33
ENDBRANCH  29  32
ENDBRANCH  28  29
ENDBRANCH   1  28
TORSDOF 17
ENDMDL
MODEL 4
REMARK VINA RESULT:      -7.4      3.078      3.971
REMARK  Name = 
REMARK  17 active torsions:
REMARK  status: ('A' for Active; 'I' for Inactive)
REMARK    1  A    between atoms: N_1  and  C_2
REMARK    2  A    between atoms: C_2  and  C_4
REMARK    3  A    between atoms: N_8  and  C_10
REMARK    4  A    between atoms: C_13  and  C_15
REMARK    5  A    between atoms: C_15  and  O_16
REMARK    6  A    between atoms: O_16  and  P_17
REMARK    7  A    between atoms: P_17  and  O_20
REMARK    8  A    between atoms: O_20  and  P_21
REMARK    9  A    between atoms: P_21  and  O_22
REMARK   10  A    between atoms: P_21  and  O_24
REMARK   11  A    between atoms: O_24  and  C_25
REMARK   12  A    between atoms: C_25  and  C_26
REMARK   13  A    between atoms: C_29  and  N_37
REMARK   14  A    between atoms: C_31  and  O_33
REMARK   15  A    between atoms: C_34  and  O_36
REMARK   16  A    between atoms: C_47  and  O_49
REMARK   17  A    between atoms: C_50  and  O_52
REMARK                            x       y       z     vdW  Elec       q    Type
REMARK                         _______ _______ _______ _____ _____    ______ ____
ROOT
ATOM      1  P   UNL     1       9.200  -1.602  22.914  0.00  0.00    +0.480 P 
ATOM      2  O   UNL     1      10.542  -1.854  22.304  0.00  0.00    -0.227 OA
ENDROOT
BRANCH   1   3
ATOM      3  O   UNL     1       8.704  -0.074  22.818  0.00  0.00    -0.302 OA
ATOM      4  H   UNL     1       7.953   0.010  22.195  0.00  0.00    +0.222 HD
ENDBRANCH   1   3
BRANCH   1   5
ATOM      5  O   UNL     1       8.012  -2.346  22.090  0.00  0.00    -0.284 OA
BRANCH   5   6
ATOM      6  C   UNL     1       6.668  -2.262  22.560  0.00  0.00    +0.206 C 
BRANCH   6   7
ATOM      7  C   UNL     1       5.776  -3.503  22.241  0.00  0.00    +0.178 C 
ATOM      8  C   UNL     1       6.639  -4.659  21.696  0.00  0.00    +0.178 C 
ATOM      9  C   UNL     1       6.979  -5.506  22.931  0.00  0.00    +0.195 C 
ATOM     10  C   UNL     1       6.128  -4.896  24.054  0.00  0.00    +0.253 C 
ATOM     11  O   UNL     1       5.141  -4.071  23.411  0.00  0.00    -0.346 OA
BRANCH  10  12
ATOM     12  N   UNL     1       5.492  -5.855  24.955  0.00  0.00    -0.286 N 
ATOM     13  C   UNL     1       5.845  -6.063  26.265  0.00  0.00    +0.167 A 
ATOM     14  N   UNL     1       6.959  -5.654  26.899  0.00  0.00    -0.216 NA
ATOM     15  C   UNL     1       6.928  -6.020  28.197  0.00  0.00    +0.225 A 
ATOM     16  N   UNL     1       5.939  -6.650  28.872  0.00  0.00    -0.219 NA
ATOM     17  C   UNL     1       4.819  -6.994  28.198  0.00  0.00    +0.147 A 
ATOM     18  N   UNL     1       3.775  -7.560  28.914  0.00  0.00    -0.341 N 
ATOM     19  H   UNL     1       3.095  -8.056  28.350  0.00  0.00    +0.144 HD
ATOM     20  H   UNL     1       4.047  -7.944  29.808  0.00  0.00    +0.144 HD
ATOM     21  C   UNL     1       4.769  -6.741  26.820  0.00  0.00    +0.147 A 
ATOM     22  N   UNL     1       3.821  -7.031  25.849  0.00  0.00    -0.231 NA
ATOM     23  C   UNL     1       4.290  -6.468  24.750  0.00  0.00    +0.203 A 
ENDBRANCH  10  12
BRANCH   9  24
ATOM     24  O   UNL     1       8.372  -5.405  23.249  0.00  0.00    -0.385 OA
ATOM     25  H   UNL     1       8.845  -5.466  22.393  0.00  0.00    +0.210 HD
ENDBRANCH   9  24
BRANCH   8  26
ATOM     26  O   UNL     1       5.912  -5.462  20.755  0.00  0.00    -0.386 OA
ATOM     27  H   UNL     1       6.134  -6.399  20.897  0.00  0.00    +0.210 HD
ENDBRANCH   8  26
ENDBRANCH   6   7
ENDBRANCH   5   6
ENDBRANCH   1   5
BRANCH   1  28
ATOM     28  O   UNL     1       8.976  -1.986  24.464  0.00  0.00    -0.229 OA
BRANCH  28  29
ATOM     29  P   UNL     1       9.015  -0.781  25.544  0.00  0.00    +0.222 P 
ATOM     30  O   UNL     1       8.944  -1.350  26.930  0.00  0.00    -0.437 OA
ATOM     31  O   UNL     1      10.129   0.164  25.178  0.00  0.00    -0.517 OA
BRANCH  29  32
ATOM     32  O   UNL     1       7.602   0.019  25.284  0.00  0.00    -0.324 OA
BRANCH  32  33
ATOM     33  C   UNL     1       7.569   1.263  25.993  0.00  0.00    +0.202 C 
BRANCH  33  37
ATOM     34  C   UNL     1       6.808   2.876  22.857  0.00  0.00    +0.439 C 
ATOM     35  C   UNL     1       8.169   3.514  23.148  0.00  0.00    +0.244 C 
ATOM     36  C   UNL     1       8.422   3.269  24.631  0.00  0.00    +0.183 C 
ATOM     37  C   UNL     1       7.227   2.446  25.097  0.00  0.00    +0.182 C 
ATOM     38  O   UNL     1       6.505   1.998  23.936  0.00  0.00    -0.309 OA
BRANCH  34  41
ATOM     39  C   UNL     1       3.408   4.398  22.242  0.00  0.00    +0.067 A 
ATOM     40  C   UNL     1       4.451   3.476  22.400  0.00  0.00    +0.322 A 
ATOM     41  N   UNL     1       5.716   3.892  22.680  0.00  0.00    -0.173 N 
ATOM     42  C   UNL     1       5.970   5.209  22.874  0.00  0.00    +0.311 A 
ATOM     43  C   UNL     1       4.970   6.161  22.728  0.00  0.00    +0.071 A 
ATOM     44  C   UNL     1       3.684   5.757  22.398  0.00  0.00    +0.022 A 
BRANCH  39  45
ATOM     45  C   UNL     1       2.035   3.951  21.882  0.00  0.00    +0.083 C 
ATOM     46  S   UNL     1       0.685   4.932  21.887  0.00  0.00    -0.035 S 
BRANCH  45  47
ATOM     47  N   UNL     1       1.876   2.634  21.530  0.00  0.00    -0.352 N 
ATOM     48  H   UNL     1       1.467   1.914  22.112  0.00  0.00    +0.143 HD
ATOM     49  H   UNL     1       2.254   2.323  20.639  0.00  0.00    +0.143 HD
ENDBRANCH  45  47
ENDBRANCH  39  45
ENDBRANCH  34  41
BRANCH  36  50
ATOM     50  O   UNL     1       8.408   4.537  25.297  0.00  0.00    -0.386 OA
ATOM     51  H   UNL     1       9.333   4.856  25.335  0.00  0.00    +0.210 HD
ENDBRANCH  36  50
BRANCH  35  52
ATOM     52  O   UNL     1       9.178   2.910  22.327  0.00  0.00    -0.380 OA
ATOM     53  H   UNL     1       9.789   3.602  21.996  0.00  0.00    +0.210 HD
ENDBRANCH  35  52
ENDBRANCH  33  37
ENDBRANCH  32  33
ENDBRANCH  29  32
ENDBRANCH  28  29
ENDBRANCH   1  28
TORSDOF 17
ENDMDL
MODEL 5
REMARK VINA RESULT:      -7.4      3.897      6.415
REMARK  Name = 
REMARK  17 active torsions:
REMARK  status: ('A' for Active; 'I' for Inactive)
REMARK    1  A    between atoms: N_1  and  C_2
REMARK    2  A    between atoms: C_2  and  C_4
REMARK    3  A    between atoms: N_8  and  C_10
REMARK    4  A    between atoms: C_13  and  C_15
REMARK    5  A    between atoms: C_15  and  O_16
REMARK    6  A    between atoms: O_16  and  P_17
REMARK    7  A    between atoms: P_17  and  O_20
REMARK    8  A    between atoms: O_20  and  P_21
REMARK    9  A    between atoms: P_21  and  O_22
REMARK   10  A    between atoms: P_21  and  O_24
REMARK   11  A    between atoms: O_24  and  C_25
REMARK   12  A    between atoms: C_25  and  C_26
REMARK   13  A    between atoms: C_29  and  N_37
REMARK   14  A    between atoms: C_31  and  O_33
REMARK   15  A    between atoms: C_34  and  O_36
REMARK   16  A    between atoms: C_47  and  O_49
REMARK   17  A    between atoms: C_50  and  O_52
REMARK                            x       y       z     vdW  Elec       q    Type
REMARK                         _______ _______ _______ _____ _____    ______ ____
ROOT
ATOM      1  P   UNL     1       5.085  -6.132  25.913  0.00  0.00    +0.480 P 
ATOM      2  O   UNL     1       4.947  -6.753  24.559  0.00  0.00    -0.227 OA
ENDROOT
BRANCH   1   3
ATOM      3  O   UNL     1       4.528  -7.040  27.118  0.00  0.00    -0.302 OA
ATOM      4  H   UNL     1       3.568  -6.897  27.247  0.00  0.00    +0.222 HD
ENDBRANCH   1   3
BRANCH   1   5
ATOM      5  O   UNL     1       6.642  -5.984  26.355  0.00  0.00    -0.284 OA
BRANCH   5   6
ATOM      6  C   UNL     1       7.104  -4.754  26.910  0.00  0.00    +0.206 C 
BRANCH   6   7
ATOM      7  C   UNL     1       8.628  -4.473  26.720  0.00  0.00    +0.178 C 
ATOM      8  C   UNL     1       9.149  -5.171  25.447  0.00  0.00    +0.178 C 
ATOM      9  C   UNL     1       9.048  -4.102  24.350  0.00  0.00    +0.195 C 
ATOM     10  C   UNL     1       8.672  -2.819  25.104  0.00  0.00    +0.253 C 
ATOM     11  O   UNL     1       8.932  -3.077  26.495  0.00  0.00    -0.346 OA
BRANCH  10  12
ATOM     12  N   UNL     1       9.357  -1.606  24.666  0.00  0.00    -0.286 N 
ATOM     13  C   UNL     1       9.323  -1.094  23.392  0.00  0.00    +0.167 A 
ATOM     14  N   UNL     1       8.901  -1.698  22.267  0.00  0.00    -0.216 NA
ATOM     15  C   UNL     1       8.987  -0.856  21.216  0.00  0.00    +0.225 A 
ATOM     16  N   UNL     1       9.365   0.442  21.204  0.00  0.00    -0.219 NA
ATOM     17  C   UNL     1       9.731   1.016  22.373  0.00  0.00    +0.147 A 
ATOM     18  N   UNL     1      10.033   2.369  22.369  0.00  0.00    -0.341 N 
ATOM     19  H   UNL     1      10.568   2.685  23.169  0.00  0.00    +0.144 HD
ATOM     20  H   UNL     1      10.249   2.742  21.455  0.00  0.00    +0.144 HD
ATOM     21  C   UNL     1       9.766   0.215  23.523  0.00  0.00    +0.147 A 
ATOM     22  N   UNL     1      10.157   0.470  24.830  0.00  0.00    -0.231 NA
ATOM     23  C   UNL     1       9.881  -0.645  25.481  0.00  0.00    +0.203 A 
ENDBRANCH  10  12
BRANCH   9  24
ATOM     24  O   UNL     1       8.029  -4.442  23.402  0.00  0.00    -0.385 OA
ATOM     25  H   UNL     1       7.287  -4.806  23.928  0.00  0.00    +0.210 HD
ENDBRANCH   9  24
BRANCH   8  26
ATOM     26  O   UNL     1      10.518  -5.576  25.591  0.00  0.00    -0.386 OA
ATOM     27  H   UNL     1      10.601  -6.146  26.375  0.00  0.00    +0.210 HD
ENDBRANCH   8  26
ENDBRANCH   6   7
ENDBRANCH   5   6
ENDBRANCH   1   5
BRANCH   1  28
ATOM     28  O   UNL     1       4.410  -4.690  26.168  0.00  0.00    -0.229 OA
BRANCH  28  29
ATOM     29  P   UNL     1       4.114  -3.765  24.873  0.00  0.00    +0.222 P 
ATOM     30  O   UNL     1       5.351  -3.677  24.028  0.00  0.00    -0.437 OA
ATOM     31  O   UNL     1       2.812  -4.200  24.253  0.00  0.00    -0.517 OA
BRANCH  29  32
ATOM     32  O   UNL     1       3.867  -2.270  25.511  0.00  0.00    -0.324 OA
BRANCH  32  33
ATOM     33  C   UNL     1       5.091  -1.693  25.978  0.00  0.00    +0.202 C 
BRANCH  33  37
ATOM     34  C   UNL     1       6.809   1.470  25.748  0.00  0.00    +0.439 C 
ATOM     35  C   UNL     1       5.718   1.846  26.754  0.00  0.00    +0.244 C 
ATOM     36  C   UNL     1       4.661   0.756  26.629  0.00  0.00    +0.183 C 
ATOM     37  C   UNL     1       5.231  -0.222  25.609  0.00  0.00    +0.182 C 
ATOM     38  O   UNL     1       6.614   0.106  25.391  0.00  0.00    -0.309 OA
BRANCH  34  41
ATOM     39  C   UNL     1       7.393   4.409  23.450  0.00  0.00    +0.067 A 
ATOM     40  C   UNL     1       7.374   3.575  24.577  0.00  0.00    +0.322 A 
ATOM     41  N   UNL     1       6.798   2.344  24.526  0.00  0.00    -0.173 N 
ATOM     42  C   UNL     1       6.289   1.881  23.359  0.00  0.00    +0.311 A 
ATOM     43  C   UNL     1       6.283   2.669  22.216  0.00  0.00    +0.071 A 
ATOM     44  C   UNL     1       6.827   3.945  22.263  0.00  0.00    +0.022 A 
BRANCH  39  45
ATOM     45  C   UNL     1       7.973   5.778  23.517  0.00  0.00    +0.083 C 
ATOM     46  S   UNL     1       7.195   7.108  24.158  0.00  0.00    -0.035 S 
BRANCH  45  47
ATOM     47  N   UNL     1       9.233   5.951  23.004  0.00  0.00    -0.352 N 
ATOM     48  H   UNL     1       9.685   5.345  22.331  0.00  0.00    +0.143 HD
ATOM     49  H   UNL     1       9.802   6.711  23.368  0.00  0.00    +0.143 HD
ENDBRANCH  45  47
ENDBRANCH  39  45
ENDBRANCH  34  41
BRANCH  36  50
ATOM     50  O   UNL     1       3.472   1.352  26.096  0.00  0.00    -0.386 OA
ATOM     51  H   UNL     1       3.557   1.349  25.120  0.00  0.00    +0.210 HD
ENDBRANCH  36  50
BRANCH  35  52
ATOM     52  O   UNL     1       6.271   1.905  28.076  0.00  0.00    -0.380 OA
ATOM     53  H   UNL     1       6.108   1.056  28.538  0.00  0.00    +0.210 HD
ENDBRANCH  35  52
ENDBRANCH  33  37
ENDBRANCH  32  33
ENDBRANCH  29  32
ENDBRANCH  28  29
ENDBRANCH   1  28
TORSDOF 17
ENDMDL
MODEL 6
REMARK VINA RESULT:      -7.3      3.915      9.032
REMARK  Name = 
REMARK  17 active torsions:
REMARK  status: ('A' for Active; 'I' for Inactive)
REMARK    1  A    between atoms: N_1  and  C_2
REMARK    2  A    between atoms: C_2  and  C_4
REMARK    3  A    between atoms: N_8  and  C_10
REMARK    4  A    between atoms: C_13  and  C_15
REMARK    5  A    between atoms: C_15  and  O_16
REMARK    6  A    between atoms: O_16  and  P_17
REMARK    7  A    between atoms: P_17  and  O_20
REMARK    8  A    between atoms: O_20  and  P_21
REMARK    9  A    between atoms: P_21  and  O_22
REMARK   10  A    between atoms: P_21  and  O_24
REMARK   11  A    between atoms: O_24  and  C_25
REMARK   12  A    between atoms: C_25  and  C_26
REMARK   13  A    between atoms: C_29  and  N_37
REMARK   14  A    between atoms: C_31  and  O_33
REMARK   15  A    between atoms: C_34  and  O_36
REMARK   16  A    between atoms: C_47  and  O_49
REMARK   17  A    between atoms: C_50  and  O_52
REMARK                            x       y       z     vdW  Elec       q    Type
REMARK                         _______ _______ _______ _____ _____    ______ ____
ROOT
ATOM      1  P   UNL     1       6.308  -5.472  27.522  0.00  0.00    +0.480 P 
ATOM      2  O   UNL     1       7.700  -5.965  27.289  0.00  0.00    -0.227 OA
ENDROOT
BRANCH   1   3
ATOM      3  O   UNL     1       6.045  -4.902  29.004  0.00  0.00    -0.302 OA
ATOM      4  H   UNL     1       5.096  -4.701  29.137  0.00  0.00    +0.222 HD
ENDBRANCH   1   3
BRANCH   1   5
ATOM      5  O   UNL     1       5.977  -4.149  26.638  0.00  0.00    -0.284 OA
BRANCH   5   6
ATOM      6  C   UNL     1       5.609  -2.937  27.292  0.00  0.00    +0.206 C 
BRANCH   6   7
ATOM      7  C   UNL     1       4.894  -1.886  26.386  0.00  0.00    +0.178 C 
ATOM      8  C   UNL     1       4.402  -0.694  27.230  0.00  0.00    +0.178 C 
ATOM      9  C   UNL     1       5.535   0.338  27.143  0.00  0.00    +0.195 C 
ATOM     10  C   UNL     1       6.499  -0.244  26.100  0.00  0.00    +0.253 C 
ATOM     11  O   UNL     1       5.772  -1.276  25.410  0.00  0.00    -0.346 OA
BRANCH  10  12
ATOM     12  N   UNL     1       7.058   0.716  25.152  0.00  0.00    -0.286 N 
ATOM     13  C   UNL     1       8.375   0.772  24.767  0.00  0.00    +0.167 A 
ATOM     14  N   UNL     1       9.433   0.170  25.340  0.00  0.00    -0.216 NA
ATOM     15  C   UNL     1      10.561   0.434  24.649  0.00  0.00    +0.225 A 
ATOM     16  N   UNL     1      10.701   1.135  23.500  0.00  0.00    -0.219 NA
ATOM     17  C   UNL     1       9.597   1.676  22.938  0.00  0.00    +0.147 A 
ATOM     18  N   UNL     1       9.735   2.317  21.716  0.00  0.00    -0.341 N 
ATOM     19  H   UNL     1       8.974   2.942  21.479  0.00  0.00    +0.144 HD
ATOM     20  H   UNL     1      10.683   2.590  21.498  0.00  0.00    +0.144 HD
ATOM     21  C   UNL     1       8.376   1.541  23.612  0.00  0.00    +0.147 A 
ATOM     22  N   UNL     1       7.103   2.029  23.350  0.00  0.00    -0.231 NA
ATOM     23  C   UNL     1       6.344   1.498  24.291  0.00  0.00    +0.203 A 
ENDBRANCH  10  12
BRANCH   9  24
ATOM     24  O   UNL     1       6.192   0.479  28.408  0.00  0.00    -0.385 OA
ATOM     25  H   UNL     1       6.551  -0.407  28.622  0.00  0.00    +0.210 HD
ENDBRANCH   9  24
BRANCH   8  26
ATOM     26  O   UNL     1       3.199  -0.126  26.691  0.00  0.00    -0.386 OA
ATOM     27  H   UNL     1       2.576   0.049  27.417  0.00  0.00    +0.210 HD
ENDBRANCH   8  26
ENDBRANCH   6   7
ENDBRANCH   5   6
ENDBRANCH   1   5
BRANCH   1  28
ATOM     28  O   UNL     1       5.082  -6.491  27.275  0.00  0.00    -0.229 OA
BRANCH  28  29
ATOM     29  P   UNL     1       3.846  -6.437  28.321  0.00  0.00    +0.222 P 
ATOM     30  O   UNL     1       4.182  -7.253  29.533  0.00  0.00    -0.437 OA
ATOM     31  O   UNL     1       3.405  -5.006  28.478  0.00  0.00    -0.517 OA
BRANCH  29  32
ATOM     32  O   UNL     1       2.638  -7.228  27.534  0.00  0.00    -0.324 OA
BRANCH  32  33
ATOM     33  C   UNL     1       2.036  -6.398  26.534  0.00  0.00    +0.202 C 
BRANCH  33  37
ATOM     34  C   UNL     1       3.256  -4.910  23.483  0.00  0.00    +0.439 C 
ATOM     35  C   UNL     1       2.364  -6.005  22.893  0.00  0.00    +0.244 C 
ATOM     36  C   UNL     1       2.120  -6.986  24.034  0.00  0.00    +0.183 C 
ATOM     37  C   UNL     1       2.828  -6.369  25.234  0.00  0.00    +0.182 C 
ATOM     38  O   UNL     1       3.186  -5.016  24.901  0.00  0.00    -0.309 OA
BRANCH  34  41
ATOM     39  C   UNL     1       6.916  -4.126  22.991  0.00  0.00    +0.067 A 
ATOM     40  C   UNL     1       5.578  -4.059  23.400  0.00  0.00    +0.322 A 
ATOM     41  N   UNL     1       4.680  -5.005  23.014  0.00  0.00    -0.173 N 
ATOM     42  C   UNL     1       5.087  -6.066  22.276  0.00  0.00    +0.311 A 
ATOM     43  C   UNL     1       6.402  -6.178  21.846  0.00  0.00    +0.071 A 
ATOM     44  C   UNL     1       7.321  -5.197  22.194  0.00  0.00    +0.022 A 
BRANCH  39  45
ATOM     45  C   UNL     1       7.889  -3.064  23.365  0.00  0.00    +0.083 C 
ATOM     46  S   UNL     1       8.607  -2.012  22.287  0.00  0.00    -0.035 S 
BRANCH  45  47
ATOM     47  N   UNL     1       8.220  -2.956  24.692  0.00  0.00    -0.352 N 
ATOM     48  H   UNL     1       7.564  -2.877  25.460  0.00  0.00    +0.143 HD
ATOM     49  H   UNL     1       9.203  -2.880  24.940  0.00  0.00    +0.143 HD
ENDBRANCH  45  47
ENDBRANCH  39  45
ENDBRANCH  34  41
BRANCH  36  50
ATOM     50  O   UNL     1       2.759  -8.223  23.696  0.00  0.00    -0.386 OA
ATOM     51  H   UNL     1       2.177  -8.688  23.061  0.00  0.00    +0.210 HD
ENDBRANCH  36  50
BRANCH  35  52
ATOM     52  O   UNL     1       1.140  -5.433  22.410  0.00  0.00    -0.380 OA
ATOM     53  H   UNL     1       0.400  -6.053  22.576  0.00  0.00    +0.210 HD
ENDBRANCH  35  52
ENDBRANCH  33  37
ENDBRANCH  32  33
ENDBRANCH  29  32
ENDBRANCH  28  29
ENDBRANCH   1  28
TORSDOF 17
ENDMDL
MODEL 7
REMARK VINA RESULT:      -7.3      3.027      3.922
REMARK  Name = 
REMARK  17 active torsions:
REMARK  status: ('A' for Active; 'I' for Inactive)
REMARK    1  A    between atoms: N_1  and  C_2
REMARK    2  A    between atoms: C_2  and  C_4
REMARK    3  A    between atoms: N_8  and  C_10
REMARK    4  A    between atoms: C_13  and  C_15
REMARK    5  A    between atoms: C_15  and  O_16
REMARK    6  A    between atoms: O_16  and  P_17
REMARK    7  A    between atoms: P_17  and  O_20
REMARK    8  A    between atoms: O_20  and  P_21
REMARK    9  A    between atoms: P_21  and  O_22
REMARK   10  A    between atoms: P_21  and  O_24
REMARK   11  A    between atoms: O_24  and  C_25
REMARK   12  A    between atoms: C_25  and  C_26
REMARK   13  A    between atoms: C_29  and  N_37
REMARK   14  A    between atoms: C_31  and  O_33
REMARK   15  A    between atoms: C_34  and  O_36
REMARK   16  A    between atoms: C_47  and  O_49
REMARK   17  A    between atoms: C_50  and  O_52
REMARK                            x       y       z     vdW  Elec       q    Type
REMARK                         _______ _______ _______ _____ _____    ______ ____
ROOT
ATOM      1  P   UNL     1       5.720  -3.651  22.320  0.00  0.00    +0.480 P 
ATOM      2  O   UNL     1       5.767  -3.719  20.827  0.00  0.00    -0.227 OA
ENDROOT
BRANCH   1   3
ATOM      3  O   UNL     1       5.684  -2.157  22.915  0.00  0.00    -0.302 OA
ATOM      4  H   UNL     1       5.000  -1.619  22.465  0.00  0.00    +0.222 HD
ENDBRANCH   1   3
BRANCH   1   5
ATOM      5  O   UNL     1       4.322  -4.234  22.910  0.00  0.00    -0.284 OA
BRANCH   5   6
ATOM      6  C   UNL     1       4.263  -5.575  23.390  0.00  0.00    +0.206 C 
BRANCH   6   7
ATOM      7  C   UNL     1       3.721  -5.733  24.846  0.00  0.00    +0.178 C 
ATOM      8  C   UNL     1       4.740  -6.493  25.719  0.00  0.00    +0.178 C 
ATOM      9  C   UNL     1       5.571  -5.392  26.392  0.00  0.00    +0.195 C 
ATOM     10  C   UNL     1       4.848  -4.090  26.020  0.00  0.00    +0.253 C 
ATOM     11  O   UNL     1       3.549  -4.474  25.536  0.00  0.00    -0.346 OA
BRANCH  10  12
ATOM     12  N   UNL     1       4.730  -3.105  27.093  0.00  0.00    -0.286 N 
ATOM     13  C   UNL     1       4.683  -1.745  26.916  0.00  0.00    +0.167 A 
ATOM     14  N   UNL     1       4.987  -1.041  25.810  0.00  0.00    -0.216 NA
ATOM     15  C   UNL     1       4.779   0.276  26.014  0.00  0.00    +0.225 A 
ATOM     16  N   UNL     1       4.278   0.891  27.110  0.00  0.00    -0.219 NA
ATOM     17  C   UNL     1       3.940   0.131  28.175  0.00  0.00    +0.147 A 
ATOM     18  N   UNL     1       3.347   0.757  29.261  0.00  0.00    -0.341 N 
ATOM     19  H   UNL     1       3.377   0.227  30.124  0.00  0.00    +0.144 HD
ATOM     20  H   UNL     1       3.492   1.757  29.292  0.00  0.00    +0.144 HD
ATOM     21  C   UNL     1       4.192  -1.246  28.115  0.00  0.00    +0.147 A 
ATOM     22  N   UNL     1       4.035  -2.269  29.040  0.00  0.00    -0.231 NA
ATOM     23  C   UNL     1       4.356  -3.366  28.379  0.00  0.00    +0.203 A 
ENDBRANCH  10  12
BRANCH   9  24
ATOM     24  O   UNL     1       6.910  -5.383  25.883  0.00  0.00    -0.385 OA
ATOM     25  H   UNL     1       7.297  -4.529  26.167  0.00  0.00    +0.210 HD
ENDBRANCH   9  24
BRANCH   8  26
ATOM     26  O   UNL     1       4.088  -7.279  26.727  0.00  0.00    -0.386 OA
ATOM     27  H   UNL     1       4.271  -8.221  26.564  0.00  0.00    +0.210 HD
ENDBRANCH   8  26
ENDBRANCH   6   7
ENDBRANCH   5   6
ENDBRANCH   1   5
BRANCH   1  28
ATOM     28  O   UNL     1       6.893  -4.374  23.159  0.00  0.00    -0.229 OA
BRANCH  28  29
ATOM     29  P   UNL     1       8.195  -3.488  23.535  0.00  0.00    +0.222 P 
ATOM     30  O   UNL     1       9.243  -4.373  24.142  0.00  0.00    -0.437 OA
ATOM     31  O   UNL     1       8.542  -2.611  22.361  0.00  0.00    -0.517 OA
BRANCH  29  32
ATOM     32  O   UNL     1       7.658  -2.497  24.733  0.00  0.00    -0.324 OA
BRANCH  32  33
ATOM     33  C   UNL     1       8.745  -1.843  25.395  0.00  0.00    +0.202 C 
BRANCH  33  37
ATOM     34  C   UNL     1       8.269   0.972  23.189  0.00  0.00    +0.439 C 
ATOM     35  C   UNL     1       9.755   0.700  22.939  0.00  0.00    +0.244 C 
ATOM     36  C   UNL     1      10.209  -0.170  24.104  0.00  0.00    +0.183 C 
ATOM     37  C   UNL     1       8.947  -0.408  24.925  0.00  0.00    +0.182 C 
ATOM     38  O   UNL     1       7.815   0.025  24.150  0.00  0.00    -0.309 OA
BRANCH  34  41
ATOM     39  C   UNL     1       8.796   4.608  24.057  0.00  0.00    +0.067 A 
ATOM     40  C   UNL     1       9.012   3.289  23.636  0.00  0.00    +0.322 A 
ATOM     41  N   UNL     1       8.007   2.373  23.662  0.00  0.00    -0.173 N 
ATOM     42  C   UNL     1       6.759   2.746  24.037  0.00  0.00    +0.311 A 
ATOM     43  C   UNL     1       6.494   4.040  24.462  0.00  0.00    +0.071 A 
ATOM     44  C   UNL     1       7.520   4.975  24.486  0.00  0.00    +0.022 A 
BRANCH  39  45
ATOM     45  C   UNL     1       9.906   5.599  24.083  0.00  0.00    +0.083 C 
ATOM     46  S   UNL     1      10.118   6.756  25.267  0.00  0.00    -0.035 S 
BRANCH  45  47
ATOM     47  N   UNL     1      10.810   5.555  23.052  0.00  0.00    -0.352 N 
ATOM     48  H   UNL     1      11.331   6.344  22.691  0.00  0.00    +0.143 HD
ATOM     49  H   UNL     1      10.931   4.678  22.553  0.00  0.00    +0.143 HD
ENDBRANCH  45  47
ENDBRANCH  39  45
ENDBRANCH  34  41
BRANCH  36  50
ATOM     50  O   UNL     1      11.141   0.588  24.885  0.00  0.00    -0.386 OA
ATOM     51  H   UNL     1      11.255   1.454  24.443  0.00  0.00    +0.210 HD
ENDBRANCH  36  50
BRANCH  35  52
ATOM     52  O   UNL     1       9.926   0.037  21.678  0.00  0.00    -0.380 OA
ATOM     53  H   UNL     1      10.202   0.689  21.000  0.00  0.00    +0.210 HD
ENDBRANCH  35  52
ENDBRANCH  33  37
ENDBRANCH  32  33
ENDBRANCH  29  32
ENDBRANCH  28  29
ENDBRANCH   1  28
TORSDOF 17
ENDMDL
MODEL 8
REMARK VINA RESULT:      -7.1      3.904      6.266
REMARK  Name = 
REMARK  17 active torsions:
REMARK  status: ('A' for Active; 'I' for Inactive)
REMARK    1  A    between atoms: N_1  and  C_2
REMARK    2  A    between atoms: C_2  and  C_4
REMARK    3  A    between atoms: N_8  and  C_10
REMARK    4  A    between atoms: C_13  and  C_15
REMARK    5  A    between atoms: C_15  and  O_16
REMARK    6  A    between atoms: O_16  and  P_17
REMARK    7  A    between atoms: P_17  and  O_20
REMARK    8  A    between atoms: O_20  and  P_21
REMARK    9  A    between atoms: P_21  and  O_22
REMARK   10  A    between atoms: P_21  and  O_24
REMARK   11  A    between atoms: O_24  and  C_25
REMARK   12  A    between atoms: C_25  and  C_26
REMARK   13  A    between atoms: C_29  and  N_37
REMARK   14  A    between atoms: C_31  and  O_33
REMARK   15  A    between atoms: C_34  and  O_36
REMARK   16  A    between atoms: C_47  and  O_49
REMARK   17  A    between atoms: C_50  and  O_52
REMARK                            x       y       z     vdW  Elec       q    Type
REMARK                         _______ _______ _______ _____ _____    ______ ____
ROOT
ATOM      1  P   UNL     1       6.011  -4.513  24.774  0.00  0.00    +0.480 P 
ATOM      2  O   UNL     1       5.662  -5.626  23.838  0.00  0.00    -0.227 OA
ENDROOT
BRANCH   1   3
ATOM      3  O   UNL     1       6.333  -3.114  24.048  0.00  0.00    -0.302 OA
ATOM      4  H   UNL     1       5.778  -2.395  24.415  0.00  0.00    +0.222 HD
ENDBRANCH   1   3
BRANCH   1   5
ATOM      5  O   UNL     1       4.745  -4.078  25.696  0.00  0.00    -0.284 OA
BRANCH   5   6
ATOM      6  C   UNL     1       4.022  -2.889  25.387  0.00  0.00    +0.206 C 
BRANCH   6   7
ATOM      7  C   UNL     1       3.843  -1.895  26.577  0.00  0.00    +0.178 C 
ATOM      8  C   UNL     1       4.994  -2.055  27.590  0.00  0.00    +0.178 C 
ATOM      9  C   UNL     1       6.032  -1.006  27.168  0.00  0.00    +0.195 C 
ATOM     10  C   UNL     1       5.322  -0.188  26.079  0.00  0.00    +0.253 C 
ATOM     11  O   UNL     1       3.923  -0.505  26.183  0.00  0.00    -0.346 OA
BRANCH  10  12
ATOM     12  N   UNL     1       5.531   1.256  26.137  0.00  0.00    -0.286 N 
ATOM     13  C   UNL     1       5.224   2.142  25.134  0.00  0.00    +0.167 A 
ATOM     14  N   UNL     1       4.932   1.870  23.849  0.00  0.00    -0.216 NA
ATOM     15  C   UNL     1       4.647   3.005  23.177  0.00  0.00    +0.225 A 
ATOM     16  N   UNL     1       4.576   4.269  23.651  0.00  0.00    -0.219 NA
ATOM     17  C   UNL     1       4.829   4.480  24.962  0.00  0.00    +0.147 A 
ATOM     18  N   UNL     1       4.668   5.765  25.459  0.00  0.00    -0.341 N 
ATOM     19  H   UNL     1       5.133   5.938  26.342  0.00  0.00    +0.144 HD
ATOM     20  H   UNL     1       4.672   6.485  24.751  0.00  0.00    +0.144 HD
ATOM     21  C   UNL     1       5.221   3.387  25.747  0.00  0.00    +0.147 A 
ATOM     22  N   UNL     1       5.614   3.279  27.073  0.00  0.00    -0.231 NA
ATOM     23  C   UNL     1       5.776   1.983  27.266  0.00  0.00    +0.203 A 
ENDBRANCH  10  12
BRANCH   9  24
ATOM     24  O   UNL     1       7.204  -1.635  26.636  0.00  0.00    -0.385 OA
ATOM     25  H   UNL     1       7.907  -1.494  27.303  0.00  0.00    +0.210 HD
ENDBRANCH   9  24
BRANCH   8  26
ATOM     26  O   UNL     1       4.560  -1.781  28.930  0.00  0.00    -0.386 OA
ATOM     27  H   UNL     1       3.888  -1.078  28.909  0.00  0.00    +0.210 HD
ENDBRANCH   8  26
ENDBRANCH   6   7
ENDBRANCH   5   6
ENDBRANCH   1   5
BRANCH   1  28
ATOM     28  O   UNL     1       7.250  -4.720  25.785  0.00  0.00    -0.229 OA
BRANCH  28  29
ATOM     29  P   UNL     1       8.742  -4.655  25.160  0.00  0.00    +0.222 P 
ATOM     30  O   UNL     1       9.715  -5.267  26.124  0.00  0.00    -0.437 OA
ATOM     31  O   UNL     1       8.693  -5.139  23.735  0.00  0.00    -0.517 OA
BRANCH  29  32
ATOM     32  O   UNL     1       9.071  -3.045  25.109  0.00  0.00    -0.324 OA
BRANCH  32  33
ATOM     33  C   UNL     1       9.873  -2.712  23.970  0.00  0.00    +0.202 C 
BRANCH  33  37
ATOM     34  C   UNL     1       8.290   0.530  23.971  0.00  0.00    +0.439 C 
ATOM     35  C   UNL     1       7.815   0.015  22.610  0.00  0.00    +0.244 C 
ATOM     36  C   UNL     1       8.738  -1.150  22.274  0.00  0.00    +0.183 C 
ATOM     37  C   UNL     1       9.650  -1.285  23.487  0.00  0.00    +0.182 C 
ATOM     38  O   UNL     1       9.111  -0.478  24.550  0.00  0.00    -0.309 OA
BRANCH  34  41
ATOM     39  C   UNL     1       9.191   4.175  24.368  0.00  0.00    +0.067 A 
ATOM     40  C   UNL     1       8.511   2.951  24.432  0.00  0.00    +0.322 A 
ATOM     41  N   UNL     1       9.038   1.829  23.871  0.00  0.00    -0.173 N 
ATOM     42  C   UNL     1      10.265   1.869  23.296  0.00  0.00    +0.311 A 
ATOM     43  C   UNL     1      10.977   3.058  23.208  0.00  0.00    +0.071 A 
ATOM     44  C   UNL     1      10.433   4.221  23.735  0.00  0.00    +0.022 A 
BRANCH  39  45
ATOM     45  C   UNL     1       8.593   5.416  24.931  0.00  0.00    +0.083 C 
ATOM     46  S   UNL     1       8.460   6.863  24.110  0.00  0.00    -0.035 S 
BRANCH  45  47
ATOM     47  N   UNL     1       8.129   5.360  26.221  0.00  0.00    -0.352 N 
ATOM     48  H   UNL     1       8.416   4.689  26.922  0.00  0.00    +0.143 HD
ATOM     49  H   UNL     1       7.386   5.997  26.495  0.00  0.00    +0.143 HD
ENDBRANCH  45  47
ENDBRANCH  39  45
ENDBRANCH  34  41
BRANCH  36  50
ATOM     50  O   UNL     1       9.523  -0.776  21.135  0.00  0.00    -0.386 OA
ATOM     51  H   UNL     1       9.720   0.179  21.217  0.00  0.00    +0.210 HD
ENDBRANCH  36  50
BRANCH  35  52
ATOM     52  O   UNL     1       6.443  -0.398  22.695  0.00  0.00    -0.380 OA
ATOM     53  H   UNL     1       6.232  -0.644  23.620  0.00  0.00    +0.210 HD
ENDBRANCH  35  52
ENDBRANCH  33  37
ENDBRANCH  32  33
ENDBRANCH  29  32
ENDBRANCH  28  29
ENDBRANCH   1  28
TORSDOF 17
ENDMDL
MODEL 9
REMARK VINA RESULT:      -7.1      4.180      8.175
REMARK  Name = 
REMARK  17 active torsions:
REMARK  status: ('A' for Active; 'I' for Inactive)
REMARK    1  A    between atoms: N_1  and  C_2
REMARK    2  A    between atoms: C_2  and  C_4
REMARK    3  A    between atoms: N_8  and  C_10
REMARK    4  A    between atoms: C_13  and  C_15
REMARK    5  A    between atoms: C_15  and  O_16
REMARK    6  A    between atoms: O_16  and  P_17
REMARK    7  A    between atoms: P_17  and  O_20
REMARK    8  A    between atoms: O_20  and  P_21
REMARK    9  A    between atoms: P_21  and  O_22
REMARK   10  A    between atoms: P_21  and  O_24
REMARK   11  A    between atoms: O_24  and  C_25
REMARK   12  A    between atoms: C_25  and  C_26
REMARK   13  A    between atoms: C_29  and  N_37
REMARK   14  A    between atoms: C_31  and  O_33
REMARK   15  A    between atoms: C_34  and  O_36
REMARK   16  A    between atoms: C_47  and  O_49
REMARK   17  A    between atoms: C_50  and  O_52
REMARK                            x       y       z     vdW  Elec       q    Type
REMARK                         _______ _______ _______ _____ _____    ______ ____
ROOT
ATOM      1  P   UNL     1       6.574   2.657  23.291  0.00  0.00    +0.480 P 
ATOM      2  O   UNL     1       5.821   3.681  22.502  0.00  0.00    -0.227 OA
ENDROOT
BRANCH   1   3
ATOM      3  O   UNL     1       5.712   1.357  23.683  0.00  0.00    -0.302 OA
ATOM      4  H   UNL     1       4.757   1.512  23.531  0.00  0.00    +0.222 HD
ENDBRANCH   1   3
BRANCH   1   5
ATOM      5  O   UNL     1       7.759   1.970  22.416  0.00  0.00    -0.284 OA
BRANCH   5   6
ATOM      6  C   UNL     1       9.111   2.372  22.621  0.00  0.00    +0.206 C 
BRANCH   6   7
ATOM      7  C   UNL     1      10.115   1.206  22.888  0.00  0.00    +0.178 C 
ATOM      8  C   UNL     1      10.466   1.132  24.387  0.00  0.00    +0.178 C 
ATOM      9  C   UNL     1       9.479   0.109  24.967  0.00  0.00    +0.195 C 
ATOM     10  C   UNL     1       8.772  -0.476  23.735  0.00  0.00    +0.253 C 
ATOM     11  O   UNL     1       9.569  -0.102  22.597  0.00  0.00    -0.346 OA
BRANCH  10  12
ATOM     12  N   UNL     1       8.552  -1.919  23.761  0.00  0.00    -0.286 N 
ATOM     13  C   UNL     1       7.477  -2.566  23.203  0.00  0.00    +0.167 A 
ATOM     14  N   UNL     1       6.320  -2.030  22.772  0.00  0.00    -0.216 NA
ATOM     15  C   UNL     1       5.521  -2.985  22.251  0.00  0.00    +0.225 A 
ATOM     16  N   UNL     1       5.781  -4.301  22.082  0.00  0.00    -0.219 NA
ATOM     17  C   UNL     1       6.979  -4.778  22.486  0.00  0.00    +0.147 A 
ATOM     18  N   UNL     1       7.272  -6.109  22.231  0.00  0.00    -0.341 N 
ATOM     19  H   UNL     1       8.027  -6.491  22.788  0.00  0.00    +0.144 HD
ATOM     20  H   UNL     1       6.462  -6.682  22.041  0.00  0.00    +0.144 HD
ATOM     21  C   UNL     1       7.863  -3.896  23.123  0.00  0.00    +0.147 A 
ATOM     22  N   UNL     1       9.108  -4.079  23.709  0.00  0.00    -0.231 NA
ATOM     23  C   UNL     1       9.488  -2.865  24.064  0.00  0.00    +0.203 A 
ENDBRANCH  10  12
BRANCH   9  24
ATOM     24  O   UNL     1       8.532   0.750  25.829  0.00  0.00    -0.385 OA
ATOM     25  H   UNL     1       8.549   0.243  26.667  0.00  0.00    +0.210 HD
ENDBRANCH   9  24
BRANCH   8  26
ATOM     26  O   UNL     1      11.808   0.665  24.592  0.00  0.00    -0.386 OA
ATOM     27  H   UNL     1      12.283   0.678  23.743  0.00  0.00    +0.210 HD
ENDBRANCH   8  26
ENDBRANCH   6   7
ENDBRANCH   5   6
ENDBRANCH   1   5
BRANCH   1  28
ATOM     28  O   UNL     1       7.252   3.108  24.683  0.00  0.00    -0.229 OA
BRANCH  28  29
ATOM     29  P   UNL     1       6.270   3.653  25.849  0.00  0.00    +0.222 P 
ATOM     30  O   UNL     1       7.076   3.975  27.072  0.00  0.00    -0.437 OA
ATOM     31  O   UNL     1       5.349   4.690  25.263  0.00  0.00    -0.517 OA
BRANCH  29  32
ATOM     32  O   UNL     1       5.345   2.344  26.220  0.00  0.00    -0.324 OA
BRANCH  32  33
ATOM     33  C   UNL     1       5.750   1.754  27.460  0.00  0.00    +0.202 C 
BRANCH  33  37
ATOM     34  C   UNL     1       4.771  -1.443  26.107  0.00  0.00    +0.439 C 
ATOM     35  C   UNL     1       3.656  -1.251  27.139  0.00  0.00    +0.244 C 
ATOM     36  C   UNL     1       4.162  -0.168  28.084  0.00  0.00    +0.183 C 
ATOM     37  C   UNL     1       5.509   0.251  27.507  0.00  0.00    +0.182 C 
ATOM     38  O   UNL     1       5.633  -0.313  26.190  0.00  0.00    -0.309 OA
BRANCH  34  41
ATOM     39  C   UNL     1       5.652  -5.113  26.211  0.00  0.00    +0.067 A 
ATOM     40  C   UNL     1       4.954  -3.910  26.040  0.00  0.00    +0.322 A 
ATOM     41  N   UNL     1       5.543  -2.715  26.316  0.00  0.00    -0.173 N 
ATOM     42  C   UNL     1       6.841  -2.671  26.703  0.00  0.00    +0.311 A 
ATOM     43  C   UNL     1       7.574  -3.835  26.887  0.00  0.00    +0.071 A 
ATOM     44  C   UNL     1       6.975  -5.065  26.652  0.00  0.00    +0.022 A 
BRANCH  39  45
ATOM     45  C   UNL     1       4.995  -6.424  25.963  0.00  0.00    +0.083 C 
ATOM     46  S   UNL     1       4.375  -6.912  24.492  0.00  0.00    -0.035 S 
BRANCH  45  47
ATOM     47  N   UNL     1       4.888  -7.285  27.026  0.00  0.00    -0.352 N 
ATOM     48  H   UNL     1       4.364  -8.151  27.034  0.00  0.00    +0.143 HD
ATOM     49  H   UNL     1       5.310  -7.014  27.910  0.00  0.00    +0.143 HD
ENDBRANCH  45  47
ENDBRANCH  39  45
ENDBRANCH  34  41
BRANCH  36  50
ATOM     50  O   UNL     1       4.366  -0.765  29.370  0.00  0.00    -0.386 OA
ATOM     51  H   UNL     1       5.293  -0.586  29.630  0.00  0.00    +0.210 HD
ENDBRANCH  36  50
BRANCH  35  52
ATOM     52  O   UNL     1       2.442  -0.861  26.480  0.00  0.00    -0.380 OA
ATOM     53  H   UNL     1       2.621  -0.703  25.530  0.00  0.00    +0.210 HD
ENDBRANCH  35  52
ENDBRANCH  33  37
ENDBRANCH  32  33
ENDBRANCH  29  32
ENDBRANCH  28  29
ENDBRANCH   1  28
TORSDOF 17
ENDMDL
