MODEL 1
REMARK VINA RESULT:      -6.1      0.000      0.000
REMARK  Name = 
REMARK  3 active torsions:
REMARK  status: ('A' for Active; 'I' for Inactive)
REMARK    1  A    between atoms: C_1  and  C_2
REMARK    2  A    between atoms: C_2  and  N_3
REMARK    3  A    between atoms: C_10  and  C_11
REMARK                            x       y       z     vdW  Elec       q    Type
REMARK                         _______ _______ _______ _____ _____    ______ ____
ROOT
ATOM      1  N   UNL     1       5.763  -5.251  23.415  0.00  0.00    -0.308 N 
ATOM      2  C   UNL     1       4.630  -5.971  23.970  0.00  0.00    +0.054 A 
ATOM      3  C   UNL     1       3.507  -6.304  23.198  0.00  0.00    +0.026 A 
ATOM      4  C   UNL     1       2.418  -6.975  23.764  0.00  0.00    +0.002 A 
ATOM      5  C   UNL     1       2.427  -7.322  25.111  0.00  0.00    +0.001 A 
ATOM      6  C   UNL     1       3.533  -7.016  25.901  0.00  0.00    +0.012 A 
ATOM      7  C   UNL     1       4.631  -6.355  25.337  0.00  0.00    +0.024 A 
ATOM      8  C   UNL     1       5.815  -6.016  26.094  0.00  0.00    +0.080 A 
ATOM      9  N   UNL     1       6.133  -6.253  27.396  0.00  0.00    -0.276 N 
ATOM     10  H   UNL     1       5.582  -6.719  28.108  0.00  0.00    +0.189 HD
ATOM     11  N   UNL     1       7.350  -5.789  27.740  0.00  0.00    -0.178 NA
ATOM     12  C   UNL     1       7.818  -5.231  26.612  0.00  0.00    +0.073 A 
ATOM     13  C   UNL     1       9.158  -4.596  26.572  0.00  0.00    +0.068 C 
ATOM     14  C   UNL     1       6.886  -5.347  25.558  0.00  0.00    +0.087 A 
ATOM     15  C   UNL     1       6.905  -4.908  24.181  0.00  0.00    +0.263 A 
ATOM     16  O   UNL     1       7.852  -4.265  23.734  0.00  0.00    -0.267 OA
ENDROOT
BRANCH   1  18
ATOM     17  C   UNL     1       6.291  -5.673  21.044  0.00  0.00    +0.027 C 
ATOM     18  C   UNL     1       5.706  -4.703  22.062  0.00  0.00    +0.122 C 
ENDBRANCH   1  18
TORSDOF 1
ENDMDL
MODEL 2
REMARK VINA RESULT:      -5.9      2.152      4.451
REMARK  Name = 
REMARK  3 active torsions:
REMARK  status: ('A' for Active; 'I' for Inactive)
REMARK    1  A    between atoms: C_1  and  C_2
REMARK    2  A    between atoms: C_2  and  N_3
REMARK    3  A    between atoms: C_10  and  C_11
REMARK                            x       y       z     vdW  Elec       q    Type
REMARK                         _______ _______ _______ _____ _____    ______ ____
ROOT
ATOM      1  N   UNL     1       6.369  -4.320  23.122  0.00  0.00    -0.308 N 
ATOM      2  C   UNL     1       7.560  -3.504  23.284  0.00  0.00    +0.054 A 
ATOM      3  C   UNL     1       8.065  -2.707  22.244  0.00  0.00    +0.026 A 
ATOM      4  C   UNL     1       9.228  -1.950  22.419  0.00  0.00    +0.002 A 
ATOM      5  C   UNL     1       9.912  -1.978  23.630  0.00  0.00    +0.001 A 
ATOM      6  C   UNL     1       9.429  -2.749  24.685  0.00  0.00    +0.012 A 
ATOM      7  C   UNL     1       8.258  -3.499  24.520  0.00  0.00    +0.024 A 
ATOM      8  C   UNL     1       7.694  -4.313  25.573  0.00  0.00    +0.080 A 
ATOM      9  N   UNL     1       8.103  -4.509  26.857  0.00  0.00    -0.276 N 
ATOM     10  H   UNL     1       8.909  -4.118  27.332  0.00  0.00    +0.189 HD
ATOM     11  N   UNL     1       7.301  -5.341  27.550  0.00  0.00    -0.178 NA
ATOM     12  C   UNL     1       6.351  -5.689  26.668  0.00  0.00    +0.073 A 
ATOM     13  C   UNL     1       5.254  -6.612  27.049  0.00  0.00    +0.068 C 
ATOM     14  C   UNL     1       6.562  -5.071  25.416  0.00  0.00    +0.087 A 
ATOM     15  C   UNL     1       5.847  -5.129  24.162  0.00  0.00    +0.263 A 
ATOM     16  O   UNL     1       4.864  -5.855  24.026  0.00  0.00    -0.267 OA
ENDROOT
BRANCH   1  18
ATOM     17  C   UNL     1       6.297  -5.665  21.058  0.00  0.00    +0.027 C 
ATOM     18  C   UNL     1       5.739  -4.466  21.812  0.00  0.00    +0.122 C 
ENDBRANCH   1  18
TORSDOF 1
ENDMDL
MODEL 3
REMARK VINA RESULT:      -5.9      3.065      4.894
REMARK  Name = 
REMARK  3 active torsions:
REMARK  status: ('A' for Active; 'I' for Inactive)
REMARK    1  A    between atoms: C_1  and  C_2
REMARK    2  A    between atoms: C_2  and  N_3
REMARK    3  A    between atoms: C_10  and  C_11
REMARK                            x       y       z     vdW  Elec       q    Type
REMARK                         _______ _______ _______ _____ _____    ______ ____
ROOT
ATOM      1  N   UNL     1       7.211  -3.619  25.476  0.00  0.00    -0.308 N 
ATOM      2  C   UNL     1       6.836  -4.283  24.239  0.00  0.00    +0.054 A 
ATOM      3  C   UNL     1       5.924  -5.350  24.212  0.00  0.00    +0.026 A 
ATOM      4  C   UNL     1       5.600  -5.988  23.011  0.00  0.00    +0.002 A 
ATOM      5  C   UNL     1       6.182  -5.579  21.815  0.00  0.00    +0.001 A 
ATOM      6  C   UNL     1       7.081  -4.514  21.808  0.00  0.00    +0.012 A 
ATOM      7  C   UNL     1       7.401  -3.864  23.006  0.00  0.00    +0.024 A 
ATOM      8  C   UNL     1       8.316  -2.747  23.071  0.00  0.00    +0.080 A 
ATOM      9  N   UNL     1       9.001  -2.104  22.086  0.00  0.00    -0.276 N 
ATOM     10  H   UNL     1       9.007  -2.294  21.090  0.00  0.00    +0.189 HD
ATOM     11  N   UNL     1       9.759  -1.087  22.540  0.00  0.00    -0.178 NA
ATOM     12  C   UNL     1       9.549  -1.091  23.867  0.00  0.00    +0.073 A 
ATOM     13  C   UNL     1      10.214  -0.101  24.749  0.00  0.00    +0.068 C 
ATOM     14  C   UNL     1       8.656  -2.118  24.241  0.00  0.00    +0.087 A 
ATOM     15  C   UNL     1       8.130  -2.541  25.519  0.00  0.00    +0.263 A 
ATOM     16  O   UNL     1       8.486  -1.997  26.562  0.00  0.00    -0.267 OA
ENDROOT
BRANCH   1  18
ATOM     17  C   UNL     1       7.613  -5.339  27.196  0.00  0.00    +0.027 C 
ATOM     18  C   UNL     1       6.772  -4.145  26.766  0.00  0.00    +0.122 C 
ENDBRANCH   1  18
TORSDOF 1
ENDMDL
MODEL 4
REMARK VINA RESULT:      -5.7      3.778      6.549
REMARK  Name = 
REMARK  3 active torsions:
REMARK  status: ('A' for Active; 'I' for Inactive)
REMARK    1  A    between atoms: C_1  and  C_2
REMARK    2  A    between atoms: C_2  and  N_3
REMARK    3  A    between atoms: C_10  and  C_11
REMARK                            x       y       z     vdW  Elec       q    Type
REMARK                         _______ _______ _______ _____ _____    ______ ____
ROOT
ATOM      1  N   UNL     1       8.555  -1.718  25.624  0.00  0.00    -0.308 N 
ATOM      2  C   UNL     1       9.022  -1.245  24.331  0.00  0.00    +0.054 A 
ATOM      3  C   UNL     1       9.816  -0.096  24.200  0.00  0.00    +0.026 A 
ATOM      4  C   UNL     1      10.231   0.351  22.941  0.00  0.00    +0.002 A 
ATOM      5  C   UNL     1       9.858  -0.337  21.790  0.00  0.00    +0.001 A 
ATOM      6  C   UNL     1       9.080  -1.489  21.890  0.00  0.00    +0.012 A 
ATOM      7  C   UNL     1       8.672  -1.948  23.149  0.00  0.00    +0.024 A 
ATOM      8  C   UNL     1       7.875  -3.140  23.327  0.00  0.00    +0.080 A 
ATOM      9  N   UNL     1       7.397  -4.031  22.416  0.00  0.00    -0.276 N 
ATOM     10  H   UNL     1       7.503  -4.026  21.407  0.00  0.00    +0.189 HD
ATOM     11  N   UNL     1       6.692  -5.036  22.972  0.00  0.00    -0.178 NA
ATOM     12  C   UNL     1       6.722  -4.767  24.287  0.00  0.00    +0.073 A 
ATOM     13  C   UNL     1       6.050  -5.656  25.266  0.00  0.00    +0.068 C 
ATOM     14  C   UNL     1       7.448  -3.585  24.552  0.00  0.00    +0.087 A 
ATOM     15  C   UNL     1       7.753  -2.876  25.774  0.00  0.00    +0.263 A 
ATOM     16  O   UNL     1       7.319  -3.263  26.856  0.00  0.00    -0.267 OA
ENDROOT
BRANCH   1  18
ATOM     17  C   UNL     1       7.610   0.051  27.058  0.00  0.00    +0.027 C 
ATOM     18  C   UNL     1       8.763  -0.917  26.828  0.00  0.00    +0.122 C 
ENDBRANCH   1  18
TORSDOF 1
ENDMDL
MODEL 5
REMARK VINA RESULT:      -5.7      4.606      6.642
REMARK  Name = 
REMARK  3 active torsions:
REMARK  status: ('A' for Active; 'I' for Inactive)
REMARK    1  A    between atoms: C_1  and  C_2
REMARK    2  A    between atoms: C_2  and  N_3
REMARK    3  A    between atoms: C_10  and  C_11
REMARK                            x       y       z     vdW  Elec       q    Type
REMARK                         _______ _______ _______ _____ _____    ______ ____
ROOT
ATOM      1  N   UNL     1       8.652  -0.977  25.641  0.00  0.00    -0.308 N 
ATOM      2  C   UNL     1       8.321  -2.328  25.220  0.00  0.00    +0.054 A 
ATOM      3  C   UNL     1       7.863  -3.300  26.122  0.00  0.00    +0.026 A 
ATOM      4  C   UNL     1       7.576  -4.600  25.694  0.00  0.00    +0.002 A 
ATOM      5  C   UNL     1       7.744  -4.956  24.360  0.00  0.00    +0.001 A 
ATOM      6  C   UNL     1       8.185  -4.009  23.437  0.00  0.00    +0.012 A 
ATOM      7  C   UNL     1       8.462  -2.703  23.858  0.00  0.00    +0.024 A 
ATOM      8  C   UNL     1       8.912  -1.668  22.955  0.00  0.00    +0.080 A 
ATOM      9  N   UNL     1       9.128  -1.697  21.611  0.00  0.00    -0.276 N 
ATOM     10  H   UNL     1       9.021  -2.474  20.968  0.00  0.00    +0.189 HD
ATOM     11  N   UNL     1       9.540  -0.515  21.112  0.00  0.00    -0.178 NA
ATOM     12  C   UNL     1       9.591   0.292  22.184  0.00  0.00    +0.073 A 
ATOM     13  C   UNL     1      10.007   1.710  22.055  0.00  0.00    +0.068 C 
ATOM     14  C   UNL     1       9.210  -0.392  23.359  0.00  0.00    +0.087 A 
ATOM     15  C   UNL     1       9.114   0.016  24.742  0.00  0.00    +0.263 A 
ATOM     16  O   UNL     1       9.435   1.149  25.092  0.00  0.00    -0.267 OA
ENDROOT
BRANCH   1  18
ATOM     17  C   UNL     1       7.381   0.063  27.480  0.00  0.00    +0.027 C 
ATOM     18  C   UNL     1       8.673  -0.625  27.059  0.00  0.00    +0.122 C 
ENDBRANCH   1  18
TORSDOF 1
ENDMDL
MODEL 6
REMARK VINA RESULT:      -5.6      5.538      7.598
REMARK  Name = 
REMARK  3 active torsions:
REMARK  status: ('A' for Active; 'I' for Inactive)
REMARK    1  A    between atoms: C_1  and  C_2
REMARK    2  A    between atoms: C_2  and  N_3
REMARK    3  A    between atoms: C_10  and  C_11
REMARK                            x       y       z     vdW  Elec       q    Type
REMARK                         _______ _______ _______ _____ _____    ______ ____
ROOT
ATOM      1  N   UNL     1       8.047   0.478  25.683  0.00  0.00    -0.308 N 
ATOM      2  C   UNL     1       8.752   0.930  24.495  0.00  0.00    +0.054 A 
ATOM      3  C   UNL     1       8.777   2.279  24.111  0.00  0.00    +0.026 A 
ATOM      4  C   UNL     1       9.443   2.683  22.949  0.00  0.00    +0.002 A 
ATOM      5  C   UNL     1      10.091   1.749  22.147  0.00  0.00    +0.001 A 
ATOM      6  C   UNL     1      10.095   0.404  22.510  0.00  0.00    +0.012 A 
ATOM      7  C   UNL     1       9.440  -0.005  23.678  0.00  0.00    +0.024 A 
ATOM      8  C   UNL     1       9.412  -1.381  24.120  0.00  0.00    +0.080 A 
ATOM      9  N   UNL     1       9.977  -2.496  23.581  0.00  0.00    -0.276 N 
ATOM     10  H   UNL     1      10.534  -2.581  22.739  0.00  0.00    +0.189 HD
ATOM     11  N   UNL     1       9.736  -3.613  24.295  0.00  0.00    -0.178 NA
ATOM     12  C   UNL     1       8.984  -3.187  25.323  0.00  0.00    +0.073 A 
ATOM     13  C   UNL     1       8.501  -4.132  26.361  0.00  0.00    +0.068 C 
ATOM     14  C   UNL     1       8.754  -1.796  25.249  0.00  0.00    +0.087 A 
ATOM     15  C   UNL     1       8.012  -0.880  26.085  0.00  0.00    +0.263 A 
ATOM     16  O   UNL     1       7.386  -1.281  27.064  0.00  0.00    -0.267 OA
ENDROOT
BRANCH   1  18
ATOM     17  C   UNL     1       5.787   1.445  25.868  0.00  0.00    +0.027 C 
ATOM     18  C   UNL     1       7.198   1.396  26.438  0.00  0.00    +0.122 C 
ENDBRANCH   1  18
TORSDOF 1
ENDMDL
MODEL 7
REMARK VINA RESULT:      -5.6      2.022      4.019
REMARK  Name = 
REMARK  3 active torsions:
REMARK  status: ('A' for Active; 'I' for Inactive)
REMARK    1  A    between atoms: C_1  and  C_2
REMARK    2  A    between atoms: C_2  and  N_3
REMARK    3  A    between atoms: C_10  and  C_11
REMARK                            x       y       z     vdW  Elec       q    Type
REMARK                         _______ _______ _______ _____ _____    ______ ____
ROOT
ATOM      1  N   UNL     1       7.374  -5.209  25.653  0.00  0.00    -0.308 N 
ATOM      2  C   UNL     1       6.861  -5.353  24.301  0.00  0.00    +0.054 A 
ATOM      3  C   UNL     1       7.619  -4.997  23.174  0.00  0.00    +0.026 A 
ATOM      4  C   UNL     1       7.092  -5.123  21.885  0.00  0.00    +0.002 A 
ATOM      5  C   UNL     1       5.798  -5.600  21.695  0.00  0.00    +0.001 A 
ATOM      6  C   UNL     1       5.027  -5.973  22.794  0.00  0.00    +0.012 A 
ATOM      7  C   UNL     1       5.554  -5.861  24.086  0.00  0.00    +0.024 A 
ATOM      8  C   UNL     1       4.814  -6.240  25.269  0.00  0.00    +0.080 A 
ATOM      9  N   UNL     1       3.566  -6.766  25.403  0.00  0.00    -0.276 N 
ATOM     10  H   UNL     1       2.892  -6.993  24.680  0.00  0.00    +0.189 HD
ATOM     11  N   UNL     1       3.220  -6.999  26.684  0.00  0.00    -0.178 NA
ATOM     12  C   UNL     1       4.291  -6.598  27.389  0.00  0.00    +0.073 A 
ATOM     13  C   UNL     1       4.313  -6.694  28.869  0.00  0.00    +0.068 C 
ATOM     14  C   UNL     1       5.310  -6.111  26.541  0.00  0.00    +0.087 A 
ATOM     15  C   UNL     1       6.622  -5.564  26.801  0.00  0.00    +0.263 A 
ATOM     16  O   UNL     1       7.028  -5.410  27.950  0.00  0.00    -0.267 OA
ENDROOT
BRANCH   1  18
ATOM     17  C   UNL     1       8.446  -3.046  26.153  0.00  0.00    +0.027 C 
ATOM     18  C   UNL     1       8.646  -4.534  25.899  0.00  0.00    +0.122 C 
ENDBRANCH   1  18
TORSDOF 1
ENDMDL
MODEL 8
REMARK VINA RESULT:      -5.4      3.268      5.744
REMARK  Name = 
REMARK  3 active torsions:
REMARK  status: ('A' for Active; 'I' for Inactive)
REMARK    1  A    between atoms: C_1  and  C_2
REMARK    2  A    between atoms: C_2  and  N_3
REMARK    3  A    between atoms: C_10  and  C_11
REMARK                            x       y       z     vdW  Elec       q    Type
REMARK                         _______ _______ _______ _____ _____    ______ ____
ROOT
ATOM      1  N   UNL     1       8.242  -3.750  24.997  0.00  0.00    -0.308 N 
ATOM      2  C   UNL     1       7.657  -2.436  25.203  0.00  0.00    +0.054 A 
ATOM      3  C   UNL     1       7.998  -1.632  26.301  0.00  0.00    +0.026 A 
ATOM      4  C   UNL     1       7.401  -0.381  26.489  0.00  0.00    +0.002 A 
ATOM      5  C   UNL     1       6.450   0.089  25.589  0.00  0.00    +0.001 A 
ATOM      6  C   UNL     1       6.100  -0.682  24.482  0.00  0.00    +0.012 A 
ATOM      7  C   UNL     1       6.704  -1.929  24.282  0.00  0.00    +0.024 A 
ATOM      8  C   UNL     1       6.397  -2.775  23.150  0.00  0.00    +0.080 A 
ATOM      9  N   UNL     1       5.556  -2.578  22.099  0.00  0.00    -0.276 N 
ATOM     10  H   UNL     1       4.959  -1.782  21.904  0.00  0.00    +0.189 HD
ATOM     11  N   UNL     1       5.545  -3.604  21.225  0.00  0.00    -0.178 NA
ATOM     12  C   UNL     1       6.411  -4.488  21.749  0.00  0.00    +0.073 A 
ATOM     13  C   UNL     1       6.690  -5.778  21.073  0.00  0.00    +0.068 C 
ATOM     14  C   UNL     1       6.963  -4.009  22.957  0.00  0.00    +0.087 A 
ATOM     15  C   UNL     1       7.909  -4.574  23.893  0.00  0.00    +0.263 A 
ATOM     16  O   UNL     1       8.366  -5.703  23.728  0.00  0.00    -0.267 OA
ENDROOT
BRANCH   1  18
ATOM     17  C   UNL     1       8.285  -5.224  26.972  0.00  0.00    +0.027 C 
ATOM     18  C   UNL     1       9.093  -4.354  26.019  0.00  0.00    +0.122 C 
ENDBRANCH   1  18
TORSDOF 1
ENDMDL
MODEL 9
REMARK VINA RESULT:      -5.3      4.783      6.451
REMARK  Name = 
REMARK  3 active torsions:
REMARK  status: ('A' for Active; 'I' for Inactive)
REMARK    1  A    between atoms: C_1  and  C_2
REMARK    2  A    between atoms: C_2  and  N_3
REMARK    3  A    between atoms: C_10  and  C_11
REMARK                            x       y       z     vdW  Elec       q    Type
REMARK                         _______ _______ _______ _____ _____    ______ ____
ROOT
ATOM      1  N   UNL     1       9.479  -0.542  24.042  0.00  0.00    -0.308 N 
ATOM      2  C   UNL     1       8.646   0.277  24.906  0.00  0.00    +0.054 A 
ATOM      3  C   UNL     1       8.588   1.674  24.780  0.00  0.00    +0.026 A 
ATOM      4  C   UNL     1       7.796   2.441  25.640  0.00  0.00    +0.002 A 
ATOM      5  C   UNL     1       7.053   1.831  26.646  0.00  0.00    +0.001 A 
ATOM      6  C   UNL     1       7.080   0.445  26.788  0.00  0.00    +0.012 A 
ATOM      7  C   UNL     1       7.861  -0.329  25.921  0.00  0.00    +0.024 A 
ATOM      8  C   UNL     1       7.928  -1.771  26.004  0.00  0.00    +0.080 A 
ATOM      9  N   UNL     1       7.297  -2.641  26.839  0.00  0.00    -0.276 N 
ATOM     10  H   UNL     1       6.645  -2.440  27.589  0.00  0.00    +0.189 HD
ATOM     11  N   UNL     1       7.609  -3.930  26.600  0.00  0.00    -0.178 NA
ATOM     12  C   UNL     1       8.477  -3.871  25.578  0.00  0.00    +0.073 A 
ATOM     13  C   UNL     1       9.068  -5.106  25.004  0.00  0.00    +0.068 C 
ATOM     14  C   UNL     1       8.708  -2.537  25.177  0.00  0.00    +0.087 A 
ATOM     15  C   UNL     1       9.549  -1.953  24.157  0.00  0.00    +0.263 A 
ATOM     16  O   UNL     1      10.280  -2.653  23.460  0.00  0.00    -0.267 OA
ENDROOT
BRANCH   1  18
ATOM     17  C   UNL     1       9.775   0.306  21.747  0.00  0.00    +0.027 C 
ATOM     18  C   UNL     1      10.417   0.076  23.109  0.00  0.00    +0.122 C 
ENDBRANCH   1  18
TORSDOF 1
ENDMDL
