MODEL 1
REMARK VINA RESULT:      -5.8      0.000      0.000
REMARK  Name = 
REMARK  4 active torsions:
REMARK  status: ('A' for Active; 'I' for Inactive)
REMARK    1  A    between atoms: C_1  and  C_2
REMARK    2  A    between atoms: N_4  and  C_5
REMARK    3  A    between atoms: C_8  and  C_10
REMARK    4  A    between atoms: C_10  and  O_11
REMARK                            x       y       z     vdW  Elec       q    Type
REMARK                         _______ _______ _______ _____ _____    ______ ____
ROOT
ATOM      1  C   UNL     1       4.766  -5.890  26.763  0.00  0.00    +0.051 C 
ATOM      2  C   UNL     1       6.113  -5.637  26.166  0.00  0.00    +0.030 A 
ATOM      3  C   UNL     1       7.293  -5.777  27.045  0.00  0.00    +0.257 A 
ATOM      4  O   UNL     1       7.190  -6.090  28.226  0.00  0.00    -0.267 OA
ATOM      5  N   UNL     1       8.499  -5.518  26.462  0.00  0.00    -0.275 N 
ATOM      6  H   UNL     1       9.310  -5.577  27.055  0.00  0.00    +0.173 HD
ATOM      7  C   UNL     1       8.719  -5.178  25.151  0.00  0.00    +0.332 A 
ATOM      8  O   UNL     1       9.865  -4.968  24.765  0.00  0.00    -0.246 OA
ATOM      9  N   UNL     1       7.585  -5.102  24.350  0.00  0.00    -0.270 N 
ATOM     10  C   UNL     1       6.322  -5.283  24.894  0.00  0.00    +0.102 A 
ENDROOT
BRANCH   9  11
ATOM     11  C   UNL     1       7.760  -4.623  22.975  0.00  0.00    +0.248 C 
ATOM     12  C   UNL     1       6.511  -4.662  22.164  0.00  0.00    +0.025 C 
ATOM     13  C   UNL     1       6.108  -3.428  21.862  0.00  0.00    +0.007 C 
ATOM     14  C   UNL     1       6.994  -2.444  22.538  0.00  0.00    +0.169 C 
ATOM     15  O   UNL     1       8.138  -3.226  22.957  0.00  0.00    -0.343 OA
BRANCH  14  16
ATOM     16  C   UNL     1       6.297  -1.829  23.762  0.00  0.00    +0.191 C 
BRANCH  16  17
ATOM     17  O   UNL     1       6.062  -0.436  23.584  0.00  0.00    -0.392 OA
ATOM     18  H   UNL     1       6.421   0.008  24.371  0.00  0.00    +0.210 HD
ENDBRANCH  16  17
ENDBRANCH  14  16
ENDBRANCH   9  11
TORSDOF 3
ENDMDL
MODEL 2
REMARK VINA RESULT:      -5.8      2.000      2.211
REMARK  Name = 
REMARK  4 active torsions:
REMARK  status: ('A' for Active; 'I' for Inactive)
REMARK    1  A    between atoms: C_1  and  C_2
REMARK    2  A    between atoms: N_4  and  C_5
REMARK    3  A    between atoms: C_8  and  C_10
REMARK    4  A    between atoms: C_10  and  O_11
REMARK                            x       y       z     vdW  Elec       q    Type
REMARK                         _______ _______ _______ _____ _____    ______ ____
ROOT
ATOM      1  C   UNL     1       5.230  -4.046  27.218  0.00  0.00    +0.051 C 
ATOM      2  C   UNL     1       6.529  -4.360  26.548  0.00  0.00    +0.030 A 
ATOM      3  C   UNL     1       7.396  -5.382  27.171  0.00  0.00    +0.257 A 
ATOM      4  O   UNL     1       7.075  -5.965  28.201  0.00  0.00    -0.267 OA
ATOM      5  N   UNL     1       8.579  -5.622  26.537  0.00  0.00    -0.275 N 
ATOM      6  H   UNL     1       9.195  -6.293  26.965  0.00  0.00    +0.173 HD
ATOM      7  C   UNL     1       9.020  -5.037  25.376  0.00  0.00    +0.332 A 
ATOM      8  O   UNL     1      10.115  -5.349  24.920  0.00  0.00    -0.246 OA
ATOM      9  N   UNL     1       8.154  -4.114  24.800  0.00  0.00    -0.270 N 
ATOM     10  C   UNL     1       6.967  -3.771  25.431  0.00  0.00    +0.102 A 
ENDROOT
BRANCH   9  11
ATOM     11  C   UNL     1       8.634  -3.376  23.628  0.00  0.00    +0.248 C 
ATOM     12  C   UNL     1       7.647  -2.398  23.089  0.00  0.00    +0.025 C 
ATOM     13  C   UNL     1       8.083  -1.150  23.256  0.00  0.00    +0.007 C 
ATOM     14  C   UNL     1       9.357  -1.174  24.024  0.00  0.00    +0.169 C 
ATOM     15  O   UNL     1       9.780  -2.558  23.966  0.00  0.00    -0.343 OA
BRANCH  14  16
ATOM     16  C   UNL     1       9.126  -0.752  25.483  0.00  0.00    +0.191 C 
BRANCH  16  17
ATOM     17  O   UNL     1       9.915   0.380  25.830  0.00  0.00    -0.392 OA
ATOM     18  H   UNL     1      10.824   0.182  25.543  0.00  0.00    +0.210 HD
ENDBRANCH  16  17
ENDBRANCH  14  16
ENDBRANCH   9  11
TORSDOF 3
ENDMDL
MODEL 3
REMARK VINA RESULT:      -5.7      3.378      5.619
REMARK  Name = 
REMARK  4 active torsions:
REMARK  status: ('A' for Active; 'I' for Inactive)
REMARK    1  A    between atoms: C_1  and  C_2
REMARK    2  A    between atoms: N_4  and  C_5
REMARK    3  A    between atoms: C_8  and  C_10
REMARK    4  A    between atoms: C_10  and  O_11
REMARK                            x       y       z     vdW  Elec       q    Type
REMARK                         _______ _______ _______ _____ _____    ______ ____
ROOT
ATOM      1  C   UNL     1      10.195  -1.172  22.263  0.00  0.00    +0.051 C 
ATOM      2  C   UNL     1       9.706  -1.060  23.671  0.00  0.00    +0.030 A 
ATOM      3  C   UNL     1      10.220   0.056  24.492  0.00  0.00    +0.257 A 
ATOM      4  O   UNL     1      11.020   0.873  24.050  0.00  0.00    -0.267 OA
ATOM      5  N   UNL     1       9.761   0.107  25.775  0.00  0.00    -0.275 N 
ATOM      6  H   UNL     1      10.126   0.843  26.358  0.00  0.00    +0.173 HD
ATOM      7  C   UNL     1       8.857  -0.746  26.357  0.00  0.00    +0.332 A 
ATOM      8  O   UNL     1       8.537  -0.580  27.530  0.00  0.00    -0.246 OA
ATOM      9  N   UNL     1       8.366  -1.754  25.535  0.00  0.00    -0.270 N 
ATOM     10  C   UNL     1       8.844  -1.907  24.241  0.00  0.00    +0.102 A 
ENDROOT
BRANCH   9  11
ATOM     11  C   UNL     1       7.492  -2.760  26.147  0.00  0.00    +0.248 C 
ATOM     12  C   UNL     1       6.830  -3.659  25.161  0.00  0.00    +0.025 C 
ATOM     13  C   UNL     1       7.282  -4.906  25.284  0.00  0.00    +0.007 C 
ATOM     14  C   UNL     1       8.373  -4.935  26.295  0.00  0.00    +0.169 C 
ATOM     15  O   UNL     1       8.253  -3.666  26.982  0.00  0.00    -0.343 OA
BRANCH  14  16
ATOM     16  C   UNL     1       9.748  -5.041  25.616  0.00  0.00    +0.191 C 
BRANCH  16  17
ATOM     17  O   UNL     1       9.733  -5.986  24.553  0.00  0.00    -0.392 OA
ATOM     18  H   UNL     1       9.582  -5.480  23.735  0.00  0.00    +0.210 HD
ENDBRANCH  16  17
ENDBRANCH  14  16
ENDBRANCH   9  11
TORSDOF 3
ENDMDL
MODEL 4
REMARK VINA RESULT:      -5.4      5.278      7.545
REMARK  Name = 
REMARK  4 active torsions:
REMARK  status: ('A' for Active; 'I' for Inactive)
REMARK    1  A    between atoms: C_1  and  C_2
REMARK    2  A    between atoms: N_4  and  C_5
REMARK    3  A    between atoms: C_8  and  C_10
REMARK    4  A    between atoms: C_10  and  O_11
REMARK                            x       y       z     vdW  Elec       q    Type
REMARK                         _______ _______ _______ _____ _____    ______ ____
ROOT
ATOM      1  C   UNL     1       5.691   2.468  23.277  0.00  0.00    +0.051 C 
ATOM      2  C   UNL     1       7.181   2.558  23.361  0.00  0.00    +0.030 A 
ATOM      3  C   UNL     1       7.834   3.749  22.778  0.00  0.00    +0.257 A 
ATOM      4  O   UNL     1       7.190   4.643  22.240  0.00  0.00    -0.267 OA
ATOM      5  N   UNL     1       9.194   3.779  22.861  0.00  0.00    -0.275 N 
ATOM      6  H   UNL     1       9.657   4.568  22.440  0.00  0.00    +0.173 HD
ATOM      7  C   UNL     1      10.000   2.840  23.455  0.00  0.00    +0.332 A 
ATOM      8  O   UNL     1      11.217   2.997  23.450  0.00  0.00    -0.246 OA
ATOM      9  N   UNL     1       9.342   1.759  24.030  0.00  0.00    -0.270 N 
ATOM     10  C   UNL     1       7.965   1.630  23.919  0.00  0.00    +0.102 A 
ENDROOT
BRANCH   9  11
ATOM     11  C   UNL     1      10.167   0.672  24.567  0.00  0.00    +0.248 C 
ATOM     12  C   UNL     1       9.387  -0.373  25.288  0.00  0.00    +0.025 C 
ATOM     13  C   UNL     1       9.427  -1.529  24.628  0.00  0.00    +0.007 C 
ATOM     14  C   UNL     1      10.150  -1.335  23.342  0.00  0.00    +0.169 C 
ATOM     15  O   UNL     1      10.817  -0.059  23.500  0.00  0.00    -0.343 OA
BRANCH  14  16
ATOM     16  C   UNL     1       9.166  -1.275  22.163  0.00  0.00    +0.191 C 
BRANCH  16  17
ATOM     17  O   UNL     1       9.626  -0.396  21.143  0.00  0.00    -0.392 OA
ATOM     18  H   UNL     1       8.879   0.187  20.922  0.00  0.00    +0.210 HD
ENDBRANCH  16  17
ENDBRANCH  14  16
ENDBRANCH   9  11
TORSDOF 3
ENDMDL
MODEL 5
REMARK VINA RESULT:      -5.4      2.540      4.191
REMARK  Name = 
REMARK  4 active torsions:
REMARK  status: ('A' for Active; 'I' for Inactive)
REMARK    1  A    between atoms: C_1  and  C_2
REMARK    2  A    between atoms: N_4  and  C_5
REMARK    3  A    between atoms: C_8  and  C_10
REMARK    4  A    between atoms: C_10  and  O_11
REMARK                            x       y       z     vdW  Elec       q    Type
REMARK                         _______ _______ _______ _____ _____    ______ ____
ROOT
ATOM      1  C   UNL     1       3.101  -4.047  24.789  0.00  0.00    +0.051 C 
ATOM      2  C   UNL     1       4.261  -4.620  24.041  0.00  0.00    +0.030 A 
ATOM      3  C   UNL     1       3.993  -5.719  23.089  0.00  0.00    +0.257 A 
ATOM      4  O   UNL     1       2.862  -6.156  22.905  0.00  0.00    -0.267 OA
ATOM      5  N   UNL     1       5.084  -6.223  22.444  0.00  0.00    -0.275 N 
ATOM      6  H   UNL     1       4.923  -6.993  21.816  0.00  0.00    +0.173 HD
ATOM      7  C   UNL     1       6.381  -5.793  22.568  0.00  0.00    +0.332 A 
ATOM      8  O   UNL     1       7.266  -6.347  21.925  0.00  0.00    -0.246 OA
ATOM      9  N   UNL     1       6.581  -4.728  23.440  0.00  0.00    -0.270 N 
ATOM     10  C   UNL     1       5.527  -4.215  24.182  0.00  0.00    +0.102 A 
ENDROOT
BRANCH   9  11
ATOM     11  C   UNL     1       7.964  -4.316  23.697  0.00  0.00    +0.248 C 
ATOM     12  C   UNL     1       8.084  -2.952  24.285  0.00  0.00    +0.025 C 
ATOM     13  C   UNL     1       8.548  -3.017  25.532  0.00  0.00    +0.007 C 
ATOM     14  C   UNL     1       8.679  -4.444  25.933  0.00  0.00    +0.169 C 
ATOM     15  O   UNL     1       8.585  -5.173  24.685  0.00  0.00    -0.343 OA
BRANCH  14  16
ATOM     16  C   UNL     1       7.536  -4.855  26.874  0.00  0.00    +0.191 C 
BRANCH  16  17
ATOM     17  O   UNL     1       7.864  -6.027  27.612  0.00  0.00    -0.392 OA
ATOM     18  H   UNL     1       7.338  -6.751  27.230  0.00  0.00    +0.210 HD
ENDBRANCH  16  17
ENDBRANCH  14  16
ENDBRANCH   9  11
TORSDOF 3
ENDMDL
MODEL 6
REMARK VINA RESULT:      -5.3      3.862      4.918
REMARK  Name = 
REMARK  4 active torsions:
REMARK  status: ('A' for Active; 'I' for Inactive)
REMARK    1  A    between atoms: C_1  and  C_2
REMARK    2  A    between atoms: N_4  and  C_5
REMARK    3  A    between atoms: C_8  and  C_10
REMARK    4  A    between atoms: C_10  and  O_11
REMARK                            x       y       z     vdW  Elec       q    Type
REMARK                         _______ _______ _______ _____ _____    ______ ____
ROOT
ATOM      1  C   UNL     1       6.688  -1.520  26.000  0.00  0.00    +0.051 C 
ATOM      2  C   UNL     1       7.746  -1.578  24.946  0.00  0.00    +0.030 A 
ATOM      3  C   UNL     1       8.764  -2.645  25.049  0.00  0.00    +0.257 A 
ATOM      4  O   UNL     1       8.754  -3.465  25.961  0.00  0.00    -0.267 OA
ATOM      5  N   UNL     1       9.720  -2.647  24.077  0.00  0.00    -0.275 N 
ATOM      6  H   UNL     1      10.439  -3.348  24.150  0.00  0.00    +0.173 HD
ATOM      7  C   UNL     1       9.807  -1.787  23.011  0.00  0.00    +0.332 A 
ATOM      8  O   UNL     1      10.730  -1.906  22.212  0.00  0.00    -0.246 OA
ATOM      9  N   UNL     1       8.804  -0.828  22.929  0.00  0.00    -0.270 N 
ATOM     10  C   UNL     1       7.842  -0.724  23.923  0.00  0.00    +0.102 A 
ENDROOT
BRANCH   9  11
ATOM     11  C   UNL     1       8.924   0.187  21.877  0.00  0.00    +0.248 C 
ATOM     12  C   UNL     1       7.912   1.276  21.976  0.00  0.00    +0.025 C 
ATOM     13  C   UNL     1       8.496   2.436  22.273  0.00  0.00    +0.007 C 
ATOM     14  C   UNL     1       9.947   2.208  22.509  0.00  0.00    +0.169 C 
ATOM     15  O   UNL     1      10.190   0.885  21.974  0.00  0.00    -0.343 OA
BRANCH  14  16
ATOM     16  C   UNL     1      10.270   2.238  24.011  0.00  0.00    +0.191 C 
BRANCH  16  17
ATOM     17  O   UNL     1      11.171   1.198  24.373  0.00  0.00    -0.392 OA
ATOM     18  H   UNL     1      11.721   1.023  23.589  0.00  0.00    +0.210 HD
ENDBRANCH  16  17
ENDBRANCH  14  16
ENDBRANCH   9  11
TORSDOF 3
ENDMDL
MODEL 7
REMARK VINA RESULT:      -5.2      3.005      5.365
REMARK  Name = 
REMARK  4 active torsions:
REMARK  status: ('A' for Active; 'I' for Inactive)
REMARK    1  A    between atoms: C_1  and  C_2
REMARK    2  A    between atoms: N_4  and  C_5
REMARK    3  A    between atoms: C_8  and  C_10
REMARK    4  A    between atoms: C_10  and  O_11
REMARK                            x       y       z     vdW  Elec       q    Type
REMARK                         _______ _______ _______ _____ _____    ______ ____
ROOT
ATOM      1  C   UNL     1       7.228   1.617  22.569  0.00  0.00    +0.051 C 
ATOM      2  C   UNL     1       8.081   0.416  22.819  0.00  0.00    +0.030 A 
ATOM      3  C   UNL     1       9.476   0.446  22.329  0.00  0.00    +0.257 A 
ATOM      4  O   UNL     1       9.934   1.417  21.736  0.00  0.00    -0.267 OA
ATOM      5  N   UNL     1      10.210  -0.679  22.562  0.00  0.00    -0.275 N 
ATOM      6  H   UNL     1      11.152  -0.687  22.207  0.00  0.00    +0.173 HD
ATOM      7  C   UNL     1       9.795  -1.805  23.228  0.00  0.00    +0.332 A 
ATOM      8  O   UNL     1      10.568  -2.748  23.360  0.00  0.00    -0.246 OA
ATOM      9  N   UNL     1       8.492  -1.773  23.711  0.00  0.00    -0.270 N 
ATOM     10  C   UNL     1       7.667  -0.690  23.446  0.00  0.00    +0.102 A 
ENDROOT
BRANCH   9  11
ATOM     11  C   UNL     1       7.967  -2.999  24.319  0.00  0.00    +0.248 C 
ATOM     12  C   UNL     1       6.662  -2.811  25.015  0.00  0.00    +0.025 C 
ATOM     13  C   UNL     1       5.693  -3.473  24.383  0.00  0.00    +0.007 C 
ATOM     14  C   UNL     1       6.242  -4.077  23.140  0.00  0.00    +0.169 C 
ATOM     15  O   UNL     1       7.678  -3.996  23.310  0.00  0.00    -0.343 OA
BRANCH  14  16
ATOM     16  C   UNL     1       5.810  -3.275  21.903  0.00  0.00    +0.191 C 
BRANCH  16  17
ATOM     17  O   UNL     1       5.693  -4.107  20.754  0.00  0.00    -0.392 OA
ATOM     18  H   UNL     1       6.500  -4.650  20.723  0.00  0.00    +0.210 HD
ENDBRANCH  16  17
ENDBRANCH  14  16
ENDBRANCH   9  11
TORSDOF 3
ENDMDL
MODEL 8
REMARK VINA RESULT:      -5.2      2.398      3.298
REMARK  Name = 
REMARK  4 active torsions:
REMARK  status: ('A' for Active; 'I' for Inactive)
REMARK    1  A    between atoms: C_1  and  C_2
REMARK    2  A    between atoms: N_4  and  C_5
REMARK    3  A    between atoms: C_8  and  C_10
REMARK    4  A    between atoms: C_10  and  O_11
REMARK                            x       y       z     vdW  Elec       q    Type
REMARK                         _______ _______ _______ _____ _____    ______ ____
ROOT
ATOM      1  C   UNL     1       6.432  -5.284  21.864  0.00  0.00    +0.051 C 
ATOM      2  C   UNL     1       7.067  -4.571  23.014  0.00  0.00    +0.030 A 
ATOM      3  C   UNL     1       6.649  -4.957  24.379  0.00  0.00    +0.257 A 
ATOM      4  O   UNL     1       5.812  -5.831  24.579  0.00  0.00    -0.267 OA
ATOM      5  N   UNL     1       7.240  -4.267  25.396  0.00  0.00    -0.275 N 
ATOM      6  H   UNL     1       6.944  -4.495  26.330  0.00  0.00    +0.173 HD
ATOM      7  C   UNL     1       8.195  -3.288  25.276  0.00  0.00    +0.332 A 
ATOM      8  O   UNL     1       8.637  -2.748  26.285  0.00  0.00    -0.246 OA
ATOM      9  N   UNL     1       8.590  -2.989  23.978  0.00  0.00    -0.270 N 
ATOM     10  C   UNL     1       7.979  -3.601  22.893  0.00  0.00    +0.102 A 
ENDROOT
BRANCH   9  11
ATOM     11  C   UNL     1       9.516  -1.867  23.795  0.00  0.00    +0.248 C 
ATOM     12  C   UNL     1       9.851  -1.592  22.369  0.00  0.00    +0.025 C 
ATOM     13  C   UNL     1       9.358  -0.414  21.989  0.00  0.00    +0.007 C 
ATOM     14  C   UNL     1       8.552   0.161  23.099  0.00  0.00    +0.169 C 
ATOM     15  O   UNL     1       8.925  -0.628  24.254  0.00  0.00    -0.343 OA
BRANCH  14  16
ATOM     16  C   UNL     1       7.048   0.011  22.819  0.00  0.00    +0.191 C 
BRANCH  16  17
ATOM     17  O   UNL     1       6.456   1.255  22.464  0.00  0.00    -0.392 OA
ATOM     18  H   UNL     1       5.502   1.090  22.366  0.00  0.00    +0.210 HD
ENDBRANCH  16  17
ENDBRANCH  14  16
ENDBRANCH   9  11
TORSDOF 3
ENDMDL
MODEL 9
REMARK VINA RESULT:      -5.1      2.430      5.476
REMARK  Name = 
REMARK  4 active torsions:
REMARK  status: ('A' for Active; 'I' for Inactive)
REMARK    1  A    between atoms: C_1  and  C_2
REMARK    2  A    between atoms: N_4  and  C_5
REMARK    3  A    between atoms: C_8  and  C_10
REMARK    4  A    between atoms: C_10  and  O_11
REMARK                            x       y       z     vdW  Elec       q    Type
REMARK                         _______ _______ _______ _____ _____    ______ ____
ROOT
ATOM      1  C   UNL     1       9.768  -0.253  22.026  0.00  0.00    +0.051 C 
ATOM      2  C   UNL     1       8.518  -0.606  22.764  0.00  0.00    +0.030 A 
ATOM      3  C   UNL     1       7.765   0.491  23.408  0.00  0.00    +0.257 A 
ATOM      4  O   UNL     1       8.138   1.657  23.347  0.00  0.00    -0.267 OA
ATOM      5  N   UNL     1       6.642   0.119  24.087  0.00  0.00    -0.275 N 
ATOM      6  H   UNL     1       6.134   0.850  24.558  0.00  0.00    +0.173 HD
ATOM      7  C   UNL     1       6.135  -1.151  24.199  0.00  0.00    +0.332 A 
ATOM      8  O   UNL     1       5.111  -1.338  24.849  0.00  0.00    -0.246 OA
ATOM      9  N   UNL     1       6.850  -2.145  23.541  0.00  0.00    -0.270 N 
ATOM     10  C   UNL     1       8.040  -1.848  22.892  0.00  0.00    +0.102 A 
ENDROOT
BRANCH   9  11
ATOM     11  C   UNL     1       6.415  -3.532  23.735  0.00  0.00    +0.248 C 
ATOM     12  C   UNL     1       6.981  -4.482  22.737  0.00  0.00    +0.025 C 
ATOM     13  C   UNL     1       7.817  -5.337  23.324  0.00  0.00    +0.007 C 
ATOM     14  C   UNL     1       7.972  -4.966  24.756  0.00  0.00    +0.169 C 
ATOM     15  O   UNL     1       6.881  -4.048  25.005  0.00  0.00    -0.343 OA
BRANCH  14  16
ATOM     16  C   UNL     1       9.319  -4.266  24.998  0.00  0.00    +0.191 C 
BRANCH  16  17
ATOM     17  O   UNL     1      10.408  -5.176  24.887  0.00  0.00    -0.392 OA
ATOM     18  H   UNL     1      11.162  -4.664  24.547  0.00  0.00    +0.210 HD
ENDBRANCH  16  17
ENDBRANCH  14  16
ENDBRANCH   9  11
TORSDOF 3
ENDMDL
