MODEL 1
REMARK VINA RESULT:      -7.8      0.000      0.000
REMARK  Name = 
REMARK  12 active torsions:
REMARK  status: ('A' for Active; 'I' for Inactive)
REMARK    1  A    between atoms: C_1  and  O_2
REMARK    2  A    between atoms: O_2  and  C_3
REMARK    3  A    between atoms: C_13  and  C_14
REMARK    4  A    between atoms: C_14  and  C_16
REMARK    5  A    between atoms: C_14  and  C_22
REMARK    6  A    between atoms: C_22  and  O_23
REMARK    7  A    between atoms: C_22  and  C_24
REMARK    8  A    between atoms: C_22  and  C_29
REMARK    9  A    between atoms: C_24  and  C_25
REMARK   10  A    between atoms: C_25  and  N_26
REMARK   11  A    between atoms: N_26  and  C_27
REMARK   12  A    between atoms: N_26  and  C_28
REMARK                            x       y       z     vdW  Elec       q    Type
REMARK                         _______ _______ _______ _____ _____    ______ ____
ROOT
ATOM      1  C   UNL     1       7.447  -3.498  24.640  0.00  0.00    +0.090 C 
ENDROOT
BRANCH   1   3
ATOM      2  C   UNL     1       7.699  -4.929  26.793  0.00  0.00    +0.219 A 
ATOM      3  C   UNL     1       6.872  -4.327  25.827  0.00  0.00    +0.025 A 
ATOM      4  C   UNL     1       5.500  -4.444  26.082  0.00  0.00    +0.019 A 
ATOM      5  C   UNL     1       5.023  -5.169  27.185  0.00  0.00    +0.002 A 
ATOM      6  C   UNL     1       3.671  -5.151  27.555  0.00  0.00    +0.025 A 
ATOM      7  C   UNL     1       3.252  -5.871  28.670  0.00  0.00    +0.019 A 
ATOM      8  C   UNL     1       4.152  -6.677  29.362  0.00  0.00    +0.017 A 
ATOM      9  C   UNL     1       5.494  -6.689  28.980  0.00  0.00    +0.029 A 
ATOM     10 BR   UNL     1       1.477  -5.699  29.289  0.00  0.00    -0.050 Br
ATOM     11  C   UNL     1       5.956  -5.888  27.945  0.00  0.00    +0.075 A 
ATOM     12  N   UNL     1       7.267  -5.772  27.753  0.00  0.00    -0.213 NA
BRANCH   2  14
ATOM     13  C   UNL     1       9.924  -5.107  25.927  0.00  0.00    +0.279 C 
ATOM     14  O   UNL     1       9.012  -4.526  26.848  0.00  0.00    -0.479 OA
ENDBRANCH   2  14
ENDBRANCH   1   3
BRANCH   1  15
ATOM     15  C   UNL     1       7.121  -4.155  23.278  0.00  0.00    -0.037 A 
ATOM     16  C   UNL     1       7.518  -5.489  23.036  0.00  0.00    +0.004 A 
ATOM     17  C   UNL     1       7.063  -6.191  21.913  0.00  0.00    +0.000 A 
ATOM     18  C   UNL     1       6.248  -5.563  20.976  0.00  0.00    +0.000 A 
ATOM     19  C   UNL     1       5.859  -4.246  21.178  0.00  0.00    +0.000 A 
ATOM     20  C   UNL     1       6.251  -3.572  22.338  0.00  0.00    +0.004 A 
ENDBRANCH   1  15
BRANCH   1  21
ATOM     21  C   UNL     1       7.390  -1.851  24.803  0.00  0.00    +0.104 C 
BRANCH  21  22
ATOM     22  C   UNL     1       8.177  -0.980  23.772  0.00  0.00    -0.007 A 
ATOM     23  C   UNL     1       7.720   0.267  23.219  0.00  0.00    -0.012 A 
ATOM     24  C   UNL     1       6.608   1.021  23.674  0.00  0.00    +0.009 A 
ATOM     25  C   UNL     1       6.210   2.228  23.087  0.00  0.00    +0.001 A 
ATOM     26  C   UNL     1       6.919   2.740  22.011  0.00  0.00    +0.001 A 
ATOM     27  C   UNL     1       8.024   2.050  21.535  0.00  0.00    +0.008 A 
ATOM     28  C   UNL     1       8.441   0.851  22.125  0.00  0.00    -0.018 A 
ATOM     29  C   UNL     1       9.595   0.239  21.634  0.00  0.00    +0.008 A 
ATOM     30  C   UNL     1      10.105  -0.884  22.249  0.00  0.00    +0.001 A 
ATOM     31  C   UNL     1       9.422  -1.444  23.326  0.00  0.00    +0.007 A 
ENDBRANCH  21  22
BRANCH  21  32
ATOM     32  O   UNL     1       5.966  -1.529  24.650  0.00  0.00    -0.383 OA
ATOM     33  H   UNL     1       5.421  -2.314  24.804  0.00  0.00    +0.211 HD
ENDBRANCH  21  32
BRANCH  21  34
ATOM     34  C   UNL     1       7.660  -1.315  26.247  0.00  0.00    +0.056 C 
BRANCH  34  35
ATOM     35  C   UNL     1       6.445  -0.907  27.078  0.00  0.00    +0.087 C 
BRANCH  35  36
ATOM     36  N   UNL     1       6.082   0.525  27.036  0.00  0.00    -0.308 NA
ATOM     37  C   UNL     1       6.846   1.214  28.085  0.00  0.00    +0.104 C 
ATOM     38  C   UNL     1       4.651   0.756  27.254  0.00  0.00    +0.104 C 
ENDBRANCH  35  36
ENDBRANCH  34  35
ENDBRANCH  21  34
ENDBRANCH   1  21
TORSDOF 9
ENDMDL
MODEL 2
REMARK VINA RESULT:      -7.2      2.978      5.859
REMARK  Name = 
REMARK  12 active torsions:
REMARK  status: ('A' for Active; 'I' for Inactive)
REMARK    1  A    between atoms: C_1  and  O_2
REMARK    2  A    between atoms: O_2  and  C_3
REMARK    3  A    between atoms: C_13  and  C_14
REMARK    4  A    between atoms: C_14  and  C_16
REMARK    5  A    between atoms: C_14  and  C_22
REMARK    6  A    between atoms: C_22  and  O_23
REMARK    7  A    between atoms: C_22  and  C_24
REMARK    8  A    between atoms: C_22  and  C_29
REMARK    9  A    between atoms: C_24  and  C_25
REMARK   10  A    between atoms: C_25  and  N_26
REMARK   11  A    between atoms: N_26  and  C_27
REMARK   12  A    between atoms: N_26  and  C_28
REMARK                            x       y       z     vdW  Elec       q    Type
REMARK                         _______ _______ _______ _____ _____    ______ ____
ROOT
ATOM      1  C   UNL     1       6.590  -1.418  25.542  0.00  0.00    +0.090 C 
ENDROOT
BRANCH   1   3
ATOM      2  C   UNL     1       5.962   0.655  26.975  0.00  0.00    +0.219 A 
ATOM      3  C   UNL     1       5.984   0.005  25.728  0.00  0.00    +0.025 A 
ATOM      4  C   UNL     1       5.521   0.782  24.659  0.00  0.00    +0.019 A 
ATOM      5  C   UNL     1       5.018   2.076  24.863  0.00  0.00    +0.002 A 
ATOM      6  C   UNL     1       4.715   2.930  23.794  0.00  0.00    +0.025 A 
ATOM      7  C   UNL     1       4.238   4.213  24.051  0.00  0.00    +0.019 A 
ATOM      8  C   UNL     1       3.977   4.615  25.358  0.00  0.00    +0.017 A 
ATOM      9  C   UNL     1       4.279   3.752  26.413  0.00  0.00    +0.029 A 
ATOM     10 BR   UNL     1       4.011   5.435  22.630  0.00  0.00    -0.050 Br
ATOM     11  C   UNL     1       4.865   2.515  26.186  0.00  0.00    +0.075 A 
ATOM     12  N   UNL     1       5.327   1.819  27.221  0.00  0.00    -0.213 NA
BRANCH   2  14
ATOM     13  C   UNL     1       7.242   1.040  28.962  0.00  0.00    +0.279 C 
ATOM     14  O   UNL     1       6.754   0.142  27.975  0.00  0.00    -0.479 OA
ENDBRANCH   2  14
ENDBRANCH   1   3
BRANCH   1  15
ATOM     15  C   UNL     1       5.612  -2.359  24.798  0.00  0.00    -0.037 A 
ATOM     16  C   UNL     1       5.829  -2.649  23.433  0.00  0.00    +0.004 A 
ATOM     17  C   UNL     1       5.104  -3.652  22.779  0.00  0.00    +0.000 A 
ATOM     18  C   UNL     1       4.107  -4.351  23.454  0.00  0.00    +0.000 A 
ATOM     19  C   UNL     1       3.859  -4.072  24.790  0.00  0.00    +0.000 A 
ATOM     20  C   UNL     1       4.636  -3.125  25.462  0.00  0.00    +0.004 A 
ENDBRANCH   1  15
BRANCH   1  21
ATOM     21  C   UNL     1       8.213  -1.487  25.223  0.00  0.00    +0.104 C 
BRANCH  21  22
ATOM     22  C   UNL     1       8.749  -0.744  23.958  0.00  0.00    -0.007 A 
ATOM     23  C   UNL     1       8.889   0.683  23.830  0.00  0.00    -0.012 A 
ATOM     24  C   UNL     1       8.786   1.627  24.883  0.00  0.00    +0.009 A 
ATOM     25  C   UNL     1       8.927   3.005  24.691  0.00  0.00    +0.001 A 
ATOM     26  C   UNL     1       9.184   3.504  23.423  0.00  0.00    +0.001 A 
ATOM     27  C   UNL     1       9.309   2.623  22.359  0.00  0.00    +0.008 A 
ATOM     28  C   UNL     1       9.188   1.240  22.542  0.00  0.00    -0.018 A 
ATOM     29  C   UNL     1       9.382   0.408  21.440  0.00  0.00    +0.008 A 
ATOM     30  C   UNL     1       9.377  -0.962  21.591  0.00  0.00    +0.001 A 
ATOM     31  C   UNL     1       9.110  -1.512  22.843  0.00  0.00    +0.007 A 
ENDBRANCH  21  22
BRANCH  21  32
ATOM     32  O   UNL     1       8.831  -0.855  26.396  0.00  0.00    -0.383 OA
ATOM     33  H   UNL     1       8.365  -0.039  26.628  0.00  0.00    +0.211 HD
ENDBRANCH  21  32
BRANCH  21  34
ATOM     34  C   UNL     1       8.845  -2.916  25.291  0.00  0.00    +0.056 C 
BRANCH  34  35
ATOM     35  C   UNL     1       8.669  -3.695  26.594  0.00  0.00    +0.087 C 
BRANCH  35  36
ATOM     36  N   UNL     1       8.139  -5.069  26.461  0.00  0.00    -0.308 NA
ATOM     37  C   UNL     1       7.800  -5.286  25.048  0.00  0.00    +0.104 C 
ATOM     38  C   UNL     1       6.947  -5.301  27.282  0.00  0.00    +0.104 C 
ENDBRANCH  35  36
ENDBRANCH  34  35
ENDBRANCH  21  34
ENDBRANCH   1  21
TORSDOF 9
ENDMDL
MODEL 3
REMARK VINA RESULT:      -7.2      1.185      1.987
REMARK  Name = 
REMARK  12 active torsions:
REMARK  status: ('A' for Active; 'I' for Inactive)
REMARK    1  A    between atoms: C_1  and  O_2
REMARK    2  A    between atoms: O_2  and  C_3
REMARK    3  A    between atoms: C_13  and  C_14
REMARK    4  A    between atoms: C_14  and  C_16
REMARK    5  A    between atoms: C_14  and  C_22
REMARK    6  A    between atoms: C_22  and  O_23
REMARK    7  A    between atoms: C_22  and  C_24
REMARK    8  A    between atoms: C_22  and  C_29
REMARK    9  A    between atoms: C_24  and  C_25
REMARK   10  A    between atoms: C_25  and  N_26
REMARK   11  A    between atoms: N_26  and  C_27
REMARK   12  A    between atoms: N_26  and  C_28
REMARK                            x       y       z     vdW  Elec       q    Type
REMARK                         _______ _______ _______ _____ _____    ______ ____
ROOT
ATOM      1  C   UNL     1       7.051  -2.841  24.931  0.00  0.00    +0.090 C 
ENDROOT
BRANCH   1   3
ATOM      2  C   UNL     1       7.669  -4.551  26.785  0.00  0.00    +0.219 A 
ATOM      3  C   UNL     1       6.689  -3.824  26.084  0.00  0.00    +0.025 A 
ATOM      4  C   UNL     1       5.388  -3.975  26.577  0.00  0.00    +0.019 A 
ATOM      5  C   UNL     1       5.110  -4.844  27.644  0.00  0.00    +0.002 A 
ATOM      6  C   UNL     1       3.853  -4.878  28.264  0.00  0.00    +0.025 A 
ATOM      7  C   UNL     1       3.634  -5.743  29.332  0.00  0.00    +0.019 A 
ATOM      8  C   UNL     1       4.628  -6.635  29.725  0.00  0.00    +0.017 A 
ATOM      9  C   UNL     1       5.873  -6.594  29.097  0.00  0.00    +0.029 A 
ATOM     10 BR   UNL     1       2.012  -5.659  30.295  0.00  0.00    -0.050 Br
ATOM     11  C   UNL     1       6.151  -5.659  28.109  0.00  0.00    +0.075 A 
ATOM     12  N   UNL     1       7.405  -5.517  27.688  0.00  0.00    -0.213 NA
BRANCH   2  14
ATOM     13  C   UNL     1       9.860  -5.027  25.946  0.00  0.00    +0.279 C 
ATOM     14  O   UNL     1       8.978  -4.158  26.643  0.00  0.00    -0.479 OA
ENDBRANCH   2  14
ENDBRANCH   1   3
BRANCH   1  15
ATOM     15  C   UNL     1       6.883  -3.506  23.544  0.00  0.00    -0.037 A 
ATOM     16  C   UNL     1       7.528  -4.735  23.279  0.00  0.00    +0.004 A 
ATOM     17  C   UNL     1       7.236  -5.475  22.127  0.00  0.00    +0.000 A 
ATOM     18  C   UNL     1       6.339  -4.981  21.184  0.00  0.00    +0.000 A 
ATOM     19  C   UNL     1       5.707  -3.766  21.409  0.00  0.00    +0.000 A 
ATOM     20  C   UNL     1       5.940  -3.067  22.596  0.00  0.00    +0.004 A 
ENDBRANCH   1  15
BRANCH   1  21
ATOM     21  C   UNL     1       6.612  -1.260  25.153  0.00  0.00    +0.104 C 
BRANCH  21  22
ATOM     22  C   UNL     1       7.189  -0.188  24.173  0.00  0.00    -0.007 A 
ATOM     23  C   UNL     1       8.542   0.301  24.182  0.00  0.00    -0.012 A 
ATOM     24  C   UNL     1       9.624  -0.257  24.911  0.00  0.00    +0.009 A 
ATOM     25  C   UNL     1      10.919   0.271  24.881  0.00  0.00    +0.001 A 
ATOM     26  C   UNL     1      11.192   1.390  24.109  0.00  0.00    +0.001 A 
ATOM     27  C   UNL     1      10.174   1.966  23.364  0.00  0.00    +0.008 A 
ATOM     28  C   UNL     1       8.878   1.436  23.373  0.00  0.00    -0.018 A 
ATOM     29  C   UNL     1       7.916   2.030  22.555  0.00  0.00    +0.008 A 
ATOM     30  C   UNL     1       6.656   1.481  22.449  0.00  0.00    +0.001 A 
ATOM     31  C   UNL     1       6.329   0.365  23.216  0.00  0.00    +0.007 A 
ENDBRANCH  21  22
BRANCH  21  32
ATOM     32  O   UNL     1       5.154  -1.270  24.979  0.00  0.00    -0.383 OA
ATOM     33  H   UNL     1       4.822  -0.373  24.827  0.00  0.00    +0.211 HD
ENDBRANCH  21  32
BRANCH  21  34
ATOM     34  C   UNL     1       6.729  -0.736  26.621  0.00  0.00    +0.056 C 
BRANCH  34  35
ATOM     35  C   UNL     1       5.503  -0.046  27.217  0.00  0.00    +0.087 C 
BRANCH  35  36
ATOM     36  N   UNL     1       5.567   1.429  27.304  0.00  0.00    -0.308 NA
ATOM     37  C   UNL     1       4.747   1.980  26.218  0.00  0.00    +0.104 C 
ATOM     38  C   UNL     1       6.933   1.947  27.186  0.00  0.00    +0.104 C 
ENDBRANCH  35  36
ENDBRANCH  34  35
ENDBRANCH  21  34
ENDBRANCH   1  21
TORSDOF 9
ENDMDL
MODEL 4
REMARK VINA RESULT:      -7.2      2.277      6.002
REMARK  Name = 
REMARK  12 active torsions:
REMARK  status: ('A' for Active; 'I' for Inactive)
REMARK    1  A    between atoms: C_1  and  O_2
REMARK    2  A    between atoms: O_2  and  C_3
REMARK    3  A    between atoms: C_13  and  C_14
REMARK    4  A    between atoms: C_14  and  C_16
REMARK    5  A    between atoms: C_14  and  C_22
REMARK    6  A    between atoms: C_22  and  O_23
REMARK    7  A    between atoms: C_22  and  C_24
REMARK    8  A    between atoms: C_22  and  C_29
REMARK    9  A    between atoms: C_24  and  C_25
REMARK   10  A    between atoms: C_25  and  N_26
REMARK   11  A    between atoms: N_26  and  C_27
REMARK   12  A    between atoms: N_26  and  C_28
REMARK                            x       y       z     vdW  Elec       q    Type
REMARK                         _______ _______ _______ _____ _____    ______ ____
ROOT
ATOM      1  C   UNL     1       7.818  -0.279  24.671  0.00  0.00    +0.090 C 
ENDROOT
BRANCH   1   3
ATOM      2  C   UNL     1       8.384  -2.325  23.176  0.00  0.00    +0.219 A 
ATOM      3  C   UNL     1       7.437  -1.576  23.898  0.00  0.00    +0.025 A 
ATOM      4  C   UNL     1       6.161  -2.150  23.952  0.00  0.00    +0.019 A 
ATOM      5  C   UNL     1       5.869  -3.342  23.271  0.00  0.00    +0.002 A 
ATOM      6  C   UNL     1       4.657  -4.021  23.454  0.00  0.00    +0.025 A 
ATOM      7  C   UNL     1       4.424  -5.212  22.770  0.00  0.00    +0.019 A 
ATOM      8  C   UNL     1       5.350  -5.679  21.842  0.00  0.00    +0.017 A 
ATOM      9  C   UNL     1       6.551  -4.990  21.667  0.00  0.00    +0.029 A 
ATOM     10 BR   UNL     1       2.882  -6.231  23.154  0.00  0.00    -0.050 Br
ATOM     11  C   UNL     1       6.854  -3.867  22.423  0.00  0.00    +0.075 A 
ATOM     12  N   UNL     1       8.087  -3.369  22.375  0.00  0.00    -0.213 NA
BRANCH   2  14
ATOM     13  C   UNL     1      10.444  -1.389  22.393  0.00  0.00    +0.279 C 
ATOM     14  O   UNL     1       9.714  -2.064  23.407  0.00  0.00    -0.479 OA
ENDBRANCH   2  14
ENDBRANCH   1   3
BRANCH   1  15
ATOM     15  C   UNL     1       7.803   0.960  23.744  0.00  0.00    -0.037 A 
ATOM     16  C   UNL     1       6.676   1.202  22.926  0.00  0.00    +0.004 A 
ATOM     17  C   UNL     1       6.526   2.412  22.237  0.00  0.00    +0.000 A 
ATOM     18  C   UNL     1       7.519   3.385  22.302  0.00  0.00    +0.000 A 
ATOM     19  C   UNL     1       8.645   3.164  23.082  0.00  0.00    +0.000 A 
ATOM     20  C   UNL     1       8.758   1.990  23.830  0.00  0.00    +0.004 A 
ENDBRANCH   1  15
BRANCH   1  21
ATOM     21  C   UNL     1       7.257  -0.161  26.224  0.00  0.00    +0.104 C 
BRANCH  21  22
ATOM     22  C   UNL     1       6.506  -1.389  26.834  0.00  0.00    -0.007 A 
ATOM     23  C   UNL     1       7.012  -2.736  26.871  0.00  0.00    -0.012 A 
ATOM     24  C   UNL     1       8.342  -3.134  26.579  0.00  0.00    +0.009 A 
ATOM     25  C   UNL     1       8.770  -4.465  26.630  0.00  0.00    +0.001 A 
ATOM     26  C   UNL     1       7.877  -5.466  26.982  0.00  0.00    +0.001 A 
ATOM     27  C   UNL     1       6.568  -5.130  27.292  0.00  0.00    +0.008 A 
ATOM     28  C   UNL     1       6.132  -3.799  27.262  0.00  0.00    -0.018 A 
ATOM     29  C   UNL     1       4.818  -3.525  27.642  0.00  0.00    +0.008 A 
ATOM     30  C   UNL     1       4.374  -2.223  27.730  0.00  0.00    +0.001 A 
ATOM     31  C   UNL     1       5.230  -1.183  27.373  0.00  0.00    +0.007 A 
ENDBRANCH  21  22
BRANCH  21  32
ATOM     32  O   UNL     1       8.469   0.050  27.024  0.00  0.00    -0.383 OA
ATOM     33  H   UNL     1       9.149  -0.599  26.791  0.00  0.00    +0.211 HD
ENDBRANCH  21  32
BRANCH  21  34
ATOM     34  C   UNL     1       6.460   1.145  26.546  0.00  0.00    +0.056 C 
BRANCH  34  35
ATOM     35  C   UNL     1       6.959   1.998  27.711  0.00  0.00    +0.087 C 
BRANCH  35  36
ATOM     36  N   UNL     1       6.611   1.516  29.065  0.00  0.00    -0.308 NA
ATOM     37  C   UNL     1       5.391   2.214  29.492  0.00  0.00    +0.104 C 
ATOM     38  C   UNL     1       7.673   1.759  30.046  0.00  0.00    +0.104 C 
ENDBRANCH  35  36
ENDBRANCH  34  35
ENDBRANCH  21  34
ENDBRANCH   1  21
TORSDOF 9
ENDMDL
MODEL 5
REMARK VINA RESULT:      -7.0      2.260      5.199
REMARK  Name = 
REMARK  12 active torsions:
REMARK  status: ('A' for Active; 'I' for Inactive)
REMARK    1  A    between atoms: C_1  and  O_2
REMARK    2  A    between atoms: O_2  and  C_3
REMARK    3  A    between atoms: C_13  and  C_14
REMARK    4  A    between atoms: C_14  and  C_16
REMARK    5  A    between atoms: C_14  and  C_22
REMARK    6  A    between atoms: C_22  and  O_23
REMARK    7  A    between atoms: C_22  and  C_24
REMARK    8  A    between atoms: C_22  and  C_29
REMARK    9  A    between atoms: C_24  and  C_25
REMARK   10  A    between atoms: C_25  and  N_26
REMARK   11  A    between atoms: N_26  and  C_27
REMARK   12  A    between atoms: N_26  and  C_28
REMARK                            x       y       z     vdW  Elec       q    Type
REMARK                         _______ _______ _______ _____ _____    ______ ____
ROOT
ATOM      1  C   UNL     1       7.178  -2.802  25.636  0.00  0.00    +0.090 C 
ENDROOT
BRANCH   1   3
ATOM      2  C   UNL     1       7.760  -0.604  26.889  0.00  0.00    +0.219 A 
ATOM      3  C   UNL     1       6.796  -1.456  26.319  0.00  0.00    +0.025 A 
ATOM      4  C   UNL     1       5.493  -0.944  26.321  0.00  0.00    +0.019 A 
ATOM      5  C   UNL     1       5.197   0.294  26.915  0.00  0.00    +0.002 A 
ATOM      6  C   UNL     1       3.942   0.901  26.774  0.00  0.00    +0.025 A 
ATOM      7  C   UNL     1       3.706   2.139  27.366  0.00  0.00    +0.019 A 
ATOM      8  C   UNL     1       4.679   2.730  28.167  0.00  0.00    +0.017 A 
ATOM      9  C   UNL     1       5.923   2.112  28.302  0.00  0.00    +0.029 A 
ATOM     10 BR   UNL     1       2.090   3.053  27.023  0.00  0.00    -0.050 Br
ATOM     11  C   UNL     1       6.220   0.936  27.626  0.00  0.00    +0.075 A 
ATOM     12  N   UNL     1       7.476   0.497  27.614  0.00  0.00    -0.213 NA
BRANCH   2  14
ATOM     13  C   UNL     1       9.766   0.176  25.840  0.00  0.00    +0.279 C 
ATOM     14  O   UNL     1       9.078  -0.829  26.570  0.00  0.00    -0.479 OA
ENDBRANCH   2  14
ENDBRANCH   1   3
BRANCH   1  15
ATOM     15  C   UNL     1       6.536  -4.009  26.362  0.00  0.00    -0.037 A 
ATOM     16  C   UNL     1       7.347  -4.867  27.137  0.00  0.00    +0.004 A 
ATOM     17  C   UNL     1       6.785  -5.836  27.977  0.00  0.00    +0.000 A 
ATOM     18  C   UNL     1       5.405  -6.011  28.023  0.00  0.00    +0.000 A 
ATOM     19  C   UNL     1       4.586  -5.195  27.256  0.00  0.00    +0.000 A 
ATOM     20  C   UNL     1       5.143  -4.177  26.477  0.00  0.00    +0.004 A 
ENDBRANCH   1  15
BRANCH   1  21
ATOM     21  C   UNL     1       7.275  -2.783  23.983  0.00  0.00    +0.104 C 
BRANCH  21  22
ATOM     22  C   UNL     1       8.199  -1.718  23.310  0.00  0.00    -0.007 A 
ATOM     23  C   UNL     1       7.804  -0.381  22.956  0.00  0.00    -0.012 A 
ATOM     24  C   UNL     1       6.607   0.266  23.356  0.00  0.00    +0.009 A 
ATOM     25  C   UNL     1       6.278   1.571  22.972  0.00  0.00    +0.001 A 
ATOM     26  C   UNL     1       7.145   2.294  22.166  0.00  0.00    +0.001 A 
ATOM     27  C   UNL     1       8.336   1.714  21.759  0.00  0.00    +0.008 A 
ATOM     28  C   UNL     1       8.684   0.416  22.151  0.00  0.00    -0.018 A 
ATOM     29  C   UNL     1       9.924  -0.085  21.753  0.00  0.00    +0.008 A 
ATOM     30  C   UNL     1      10.356  -1.315  22.201  0.00  0.00    +0.001 A 
ATOM     31  C   UNL     1       9.516  -2.085  23.002  0.00  0.00    +0.007 A 
ENDBRANCH  21  22
BRANCH  21  32
ATOM     32  O   UNL     1       7.813  -4.106  23.644  0.00  0.00    -0.383 OA
ATOM     33  H   UNL     1       7.109  -4.771  23.643  0.00  0.00    +0.211 HD
ENDBRANCH  21  32
BRANCH  21  34
ATOM     34  C   UNL     1       5.902  -2.824  23.236  0.00  0.00    +0.056 C 
BRANCH  34  35
ATOM     35  C   UNL     1       5.897  -3.388  21.816  0.00  0.00    +0.087 C 
BRANCH  35  36
ATOM     36  N   UNL     1       5.291  -4.726  21.651  0.00  0.00    -0.308 NA
ATOM     37  C   UNL     1       4.695  -5.112  22.938  0.00  0.00    +0.104 C 
ATOM     38  C   UNL     1       6.264  -5.746  21.247  0.00  0.00    +0.104 C 
ENDBRANCH  35  36
ENDBRANCH  34  35
ENDBRANCH  21  34
ENDBRANCH   1  21
TORSDOF 9
ENDMDL
MODEL 6
REMARK VINA RESULT:      -6.9      2.478      4.462
REMARK  Name = 
REMARK  12 active torsions:
REMARK  status: ('A' for Active; 'I' for Inactive)
REMARK    1  A    between atoms: C_1  and  O_2
REMARK    2  A    between atoms: O_2  and  C_3
REMARK    3  A    between atoms: C_13  and  C_14
REMARK    4  A    between atoms: C_14  and  C_16
REMARK    5  A    between atoms: C_14  and  C_22
REMARK    6  A    between atoms: C_22  and  O_23
REMARK    7  A    between atoms: C_22  and  C_24
REMARK    8  A    between atoms: C_22  and  C_29
REMARK    9  A    between atoms: C_24  and  C_25
REMARK   10  A    between atoms: C_25  and  N_26
REMARK   11  A    between atoms: N_26  and  C_27
REMARK   12  A    between atoms: N_26  and  C_28
REMARK                            x       y       z     vdW  Elec       q    Type
REMARK                         _______ _______ _______ _____ _____    ______ ____
ROOT
ATOM      1  C   UNL     1       7.361  -0.641  24.964  0.00  0.00    +0.090 C 
ENDROOT
BRANCH   1   3
ATOM      2  C   UNL     1       7.655  -3.219  24.882  0.00  0.00    +0.219 A 
ATOM      3  C   UNL     1       6.873  -2.080  24.621  0.00  0.00    +0.025 A 
ATOM      4  C   UNL     1       5.589  -2.354  24.134  0.00  0.00    +0.019 A 
ATOM      5  C   UNL     1       5.174  -3.670  23.875  0.00  0.00    +0.002 A 
ATOM      6  C   UNL     1       3.845  -3.978  23.557  0.00  0.00    +0.025 A 
ATOM      7  C   UNL     1       3.480  -5.302  23.329  0.00  0.00    +0.019 A 
ATOM      8  C   UNL     1       4.446  -6.304  23.326  0.00  0.00    +0.017 A 
ATOM      9  C   UNL     1       5.767  -5.983  23.640  0.00  0.00    +0.029 A 
ATOM     10 BR   UNL     1       1.661  -5.750  23.091  0.00  0.00    -0.050 Br
ATOM     11  C   UNL     1       6.131  -4.689  23.986  0.00  0.00    +0.075 A 
ATOM     12  N   UNL     1       7.346  -4.469  24.479  0.00  0.00    -0.213 NA
BRANCH   2  14
ATOM     13  C   UNL     1       9.051  -4.151  26.590  0.00  0.00    +0.279 C 
ATOM     14  O   UNL     1       8.734  -3.073  25.721  0.00  0.00    -0.479 OA
ENDBRANCH   2  14
ENDBRANCH   1   3
BRANCH   1  15
ATOM     15  C   UNL     1       8.417  -0.143  23.948  0.00  0.00    -0.037 A 
ATOM     16  C   UNL     1       8.196  -0.331  22.566  0.00  0.00    +0.004 A 
ATOM     17  C   UNL     1       9.012   0.286  21.609  0.00  0.00    +0.000 A 
ATOM     18  C   UNL     1      10.099   1.058  22.006  0.00  0.00    +0.000 A 
ATOM     19  C   UNL     1      10.351   1.243  23.358  0.00  0.00    +0.000 A 
ATOM     20  C   UNL     1       9.491   0.691  24.311  0.00  0.00    +0.004 A 
ENDBRANCH   1  15
BRANCH   1  21
ATOM     21  C   UNL     1       6.214   0.402  25.547  0.00  0.00    +0.104 C 
BRANCH  21  22
ATOM     22  C   UNL     1       6.570   1.921  25.629  0.00  0.00    -0.007 A 
ATOM     23  C   UNL     1       6.737   2.796  24.499  0.00  0.00    -0.012 A 
ATOM     24  C   UNL     1       6.390   2.498  23.157  0.00  0.00    +0.009 A 
ATOM     25  C   UNL     1       6.584   3.393  22.099  0.00  0.00    +0.001 A 
ATOM     26  C   UNL     1       7.135   4.642  22.343  0.00  0.00    +0.001 A 
ATOM     27  C   UNL     1       7.479   4.991  23.640  0.00  0.00    +0.008 A 
ATOM     28  C   UNL     1       7.274   4.110  24.709  0.00  0.00    -0.018 A 
ATOM     29  C   UNL     1       7.588   4.547  25.996  0.00  0.00    +0.008 A 
ATOM     30  C   UNL     1       7.306   3.757  27.090  0.00  0.00    +0.001 A 
ATOM     31  C   UNL     1       6.764   2.488  26.895  0.00  0.00    +0.007 A 
ENDBRANCH  21  22
BRANCH  21  32
ATOM     32  O   UNL     1       5.098   0.265  24.603  0.00  0.00    -0.383 OA
ATOM     33  H   UNL     1       5.092  -0.620  24.209  0.00  0.00    +0.211 HD
ENDBRANCH  21  32
BRANCH  21  34
ATOM     34  C   UNL     1       5.529  -0.042  26.880  0.00  0.00    +0.056 C 
BRANCH  34  35
ATOM     35  C   UNL     1       4.004   0.039  26.942  0.00  0.00    +0.087 C 
BRANCH  35  36
ATOM     36  N   UNL     1       3.278  -1.233  26.733  0.00  0.00    -0.308 NA
ATOM     37  C   UNL     1       1.952  -1.100  27.352  0.00  0.00    +0.104 C 
ATOM     38  C   UNL     1       3.969  -2.385  27.319  0.00  0.00    +0.104 C 
ENDBRANCH  35  36
ENDBRANCH  34  35
ENDBRANCH  21  34
ENDBRANCH   1  21
TORSDOF 9
ENDMDL
MODEL 7
REMARK VINA RESULT:      -6.9      2.369      6.191
REMARK  Name = 
REMARK  12 active torsions:
REMARK  status: ('A' for Active; 'I' for Inactive)
REMARK    1  A    between atoms: C_1  and  O_2
REMARK    2  A    between atoms: O_2  and  C_3
REMARK    3  A    between atoms: C_13  and  C_14
REMARK    4  A    between atoms: C_14  and  C_16
REMARK    5  A    between atoms: C_14  and  C_22
REMARK    6  A    between atoms: C_22  and  O_23
REMARK    7  A    between atoms: C_22  and  C_24
REMARK    8  A    between atoms: C_22  and  C_29
REMARK    9  A    between atoms: C_24  and  C_25
REMARK   10  A    between atoms: C_25  and  N_26
REMARK   11  A    between atoms: N_26  and  C_27
REMARK   12  A    between atoms: N_26  and  C_28
REMARK                            x       y       z     vdW  Elec       q    Type
REMARK                         _______ _______ _______ _____ _____    ______ ____
ROOT
ATOM      1  C   UNL     1       6.962  -1.620  24.381  0.00  0.00    +0.090 C 
ENDROOT
BRANCH   1   3
ATOM      2  C   UNL     1       8.125  -0.518  26.425  0.00  0.00    +0.219 A 
ATOM      3  C   UNL     1       6.956  -0.761  25.681  0.00  0.00    +0.025 A 
ATOM      4  C   UNL     1       5.821  -0.084  26.143  0.00  0.00    +0.019 A 
ATOM      5  C   UNL     1       5.867   0.711  27.299  0.00  0.00    +0.002 A 
ATOM      6  C   UNL     1       4.796   1.532  27.676  0.00  0.00    +0.025 A 
ATOM      7  C   UNL     1       4.899   2.318  28.820  0.00  0.00    +0.019 A 
ATOM      8  C   UNL     1       6.023   2.222  29.636  0.00  0.00    +0.017 A 
ATOM      9  C   UNL     1       7.081   1.397  29.251  0.00  0.00    +0.029 A 
ATOM     10 BR   UNL     1       3.545   3.567  29.230  0.00  0.00    -0.050 Br
ATOM     11  C   UNL     1       7.048   0.695  28.054  0.00  0.00    +0.075 A 
ATOM     12  N   UNL     1       8.154   0.093  27.627  0.00  0.00    -0.213 NA
BRANCH   2  14
ATOM     13  C   UNL     1      10.104   0.294  25.350  0.00  0.00    +0.279 C 
ATOM     14  O   UNL     1       9.331  -0.798  25.827  0.00  0.00    -0.479 OA
ENDBRANCH   2  14
ENDBRANCH   1   3
BRANCH   1  15
ATOM     15  C   UNL     1       7.604  -0.854  23.199  0.00  0.00    -0.037 A 
ATOM     16  C   UNL     1       7.290   0.509  23.001  0.00  0.00    +0.004 A 
ATOM     17  C   UNL     1       8.003   1.293  22.085  0.00  0.00    +0.000 A 
ATOM     18  C   UNL     1       9.005   0.724  21.304  0.00  0.00    +0.000 A 
ATOM     19  C   UNL     1       9.319  -0.618  21.464  0.00  0.00    +0.000 A 
ATOM     20  C   UNL     1       8.661  -1.380  22.433  0.00  0.00    +0.004 A 
ENDBRANCH   1  15
BRANCH   1  21
ATOM     21  C   UNL     1       7.247  -3.239  24.574  0.00  0.00    +0.104 C 
BRANCH  21  22
ATOM     22  C   UNL     1       6.545  -4.235  23.596  0.00  0.00    -0.007 A 
ATOM     23  C   UNL     1       5.147  -4.576  23.621  0.00  0.00    -0.012 A 
ATOM     24  C   UNL     1       4.142  -3.912  24.370  0.00  0.00    +0.009 A 
ATOM     25  C   UNL     1       2.797  -4.298  24.355  0.00  0.00    +0.001 A 
ATOM     26  C   UNL     1       2.395  -5.374  23.579  0.00  0.00    +0.001 A 
ATOM     27  C   UNL     1       3.335  -6.050  22.816  0.00  0.00    +0.008 A 
ATOM     28  C   UNL     1       4.680  -5.662  22.809  0.00  0.00    -0.018 A 
ATOM     29  C   UNL     1       5.562  -6.348  21.973  0.00  0.00    +0.008 A 
ATOM     30  C   UNL     1       6.872  -5.937  21.852  0.00  0.00    +0.001 A 
ATOM     31  C   UNL     1       7.327  -4.869  22.622  0.00  0.00    +0.007 A 
ENDBRANCH  21  22
BRANCH  21  32
ATOM     32  O   UNL     1       8.695  -3.371  24.367  0.00  0.00    -0.383 OA
ATOM     33  H   UNL     1       9.179  -3.089  25.156  0.00  0.00    +0.211 HD
ENDBRANCH  21  32
BRANCH  21  34
ATOM     34  C   UNL     1       7.110  -3.769  26.039  0.00  0.00    +0.056 C 
BRANCH  34  35
ATOM     35  C   UNL     1       7.335  -5.263  26.264  0.00  0.00    +0.087 C 
BRANCH  35  36
ATOM     36  N   UNL     1       6.452  -5.910  27.259  0.00  0.00    -0.308 NA
ATOM     37  C   UNL     1       5.357  -6.565  26.530  0.00  0.00    +0.104 C 
ATOM     38  C   UNL     1       5.887  -4.959  28.221  0.00  0.00    +0.104 C 
ENDBRANCH  35  36
ENDBRANCH  34  35
ENDBRANCH  21  34
ENDBRANCH   1  21
TORSDOF 9
ENDMDL
MODEL 8
REMARK VINA RESULT:      -6.8      2.955      6.078
REMARK  Name = 
REMARK  12 active torsions:
REMARK  status: ('A' for Active; 'I' for Inactive)
REMARK    1  A    between atoms: C_1  and  O_2
REMARK    2  A    between atoms: O_2  and  C_3
REMARK    3  A    between atoms: C_13  and  C_14
REMARK    4  A    between atoms: C_14  and  C_16
REMARK    5  A    between atoms: C_14  and  C_22
REMARK    6  A    between atoms: C_22  and  O_23
REMARK    7  A    between atoms: C_22  and  C_24
REMARK    8  A    between atoms: C_22  and  C_29
REMARK    9  A    between atoms: C_24  and  C_25
REMARK   10  A    between atoms: C_25  and  N_26
REMARK   11  A    between atoms: N_26  and  C_27
REMARK   12  A    between atoms: N_26  and  C_28
REMARK                            x       y       z     vdW  Elec       q    Type
REMARK                         _______ _______ _______ _____ _____    ______ ____
ROOT
ATOM      1  C   UNL     1       5.653  -2.457  25.762  0.00  0.00    +0.090 C 
ENDROOT
BRANCH   1   3
ATOM      2  C   UNL     1       4.982  -0.151  26.748  0.00  0.00    +0.219 A 
ATOM      3  C   UNL     1       5.483  -0.911  25.676  0.00  0.00    +0.025 A 
ATOM      4  C   UNL     1       5.912  -0.156  24.578  0.00  0.00    +0.019 A 
ATOM      5  C   UNL     1       5.775   1.241  24.556  0.00  0.00    +0.002 A 
ATOM      6  C   UNL     1       6.355   2.026  23.550  0.00  0.00    +0.025 A 
ATOM      7  C   UNL     1       6.207   3.410  23.585  0.00  0.00    +0.019 A 
ATOM      8  C   UNL     1       5.413   4.005  24.562  0.00  0.00    +0.017 A 
ATOM      9  C   UNL     1       4.839   3.211  25.555  0.00  0.00    +0.029 A 
ATOM     10 BR   UNL     1       7.141   4.488  22.349  0.00  0.00    -0.050 Br
ATOM     11  C   UNL     1       5.070   1.843  25.607  0.00  0.00    +0.075 A 
ATOM     12  N   UNL     1       4.680   1.162  26.681  0.00  0.00    -0.213 NA
BRANCH   2  14
ATOM     13  C   UNL     1       4.726   0.081  29.117  0.00  0.00    +0.279 C 
ATOM     14  O   UNL     1       4.925  -0.751  27.983  0.00  0.00    -0.479 OA
ENDBRANCH   2  14
ENDBRANCH   1   3
BRANCH   1  15
ATOM     15  C   UNL     1       4.429  -3.197  25.170  0.00  0.00    -0.037 A 
ATOM     16  C   UNL     1       4.529  -3.798  23.896  0.00  0.00    +0.004 A 
ATOM     17  C   UNL     1       3.529  -4.653  23.416  0.00  0.00    +0.000 A 
ATOM     18  C   UNL     1       2.382  -4.885  24.170  0.00  0.00    +0.000 A 
ATOM     19  C   UNL     1       2.250  -4.291  25.417  0.00  0.00    +0.000 A 
ATOM     20  C   UNL     1       3.282  -3.500  25.927  0.00  0.00    +0.004 A 
ENDBRANCH   1  15
BRANCH   1  21
ATOM     21  C   UNL     1       7.181  -3.040  25.502  0.00  0.00    +0.104 C 
BRANCH  21  22
ATOM     22  C   UNL     1       7.979  -2.501  24.271  0.00  0.00    -0.007 A 
ATOM     23  C   UNL     1       8.874  -1.375  24.291  0.00  0.00    -0.012 A 
ATOM     24  C   UNL     1       9.357  -0.716  25.451  0.00  0.00    +0.009 A 
ATOM     25  C   UNL     1      10.225   0.380  25.402  0.00  0.00    +0.001 A 
ATOM     26  C   UNL     1      10.655   0.867  24.177  0.00  0.00    +0.001 A 
ATOM     27  C   UNL     1      10.225   0.251  23.012  0.00  0.00    +0.008 A 
ATOM     28  C   UNL     1       9.371  -0.858  23.049  0.00  0.00    -0.018 A 
ATOM     29  C   UNL     1       9.023  -1.465  21.842  0.00  0.00    +0.008 A 
ATOM     30  C   UNL     1       8.272  -2.621  21.833  0.00  0.00    +0.001 A 
ATOM     31  C   UNL     1       7.805  -3.142  23.038  0.00  0.00    +0.007 A 
ENDBRANCH  21  22
BRANCH  21  32
ATOM     32  O   UNL     1       7.920  -2.646  26.708  0.00  0.00    -0.383 OA
ATOM     33  H   UNL     1       8.796  -2.306  26.475  0.00  0.00    +0.211 HD
ENDBRANCH  21  32
BRANCH  21  34
ATOM     34  C   UNL     1       7.319  -4.596  25.567  0.00  0.00    +0.056 C 
BRANCH  34  35
ATOM     35  C   UNL     1       7.593  -5.216  26.937  0.00  0.00    +0.087 C 
BRANCH  35  36
ATOM     36  N   UNL     1       6.458  -5.923  27.568  0.00  0.00    -0.308 NA
ATOM     37  C   UNL     1       5.551  -6.363  26.498  0.00  0.00    +0.104 C 
ATOM     38  C   UNL     1       5.716  -5.081  28.511  0.00  0.00    +0.104 C 
ENDBRANCH  35  36
ENDBRANCH  34  35
ENDBRANCH  21  34
ENDBRANCH   1  21
TORSDOF 9
ENDMDL
MODEL 9
REMARK VINA RESULT:      -6.8      2.447      4.739
REMARK  Name = 
REMARK  12 active torsions:
REMARK  status: ('A' for Active; 'I' for Inactive)
REMARK    1  A    between atoms: C_1  and  O_2
REMARK    2  A    between atoms: O_2  and  C_3
REMARK    3  A    between atoms: C_13  and  C_14
REMARK    4  A    between atoms: C_14  and  C_16
REMARK    5  A    between atoms: C_14  and  C_22
REMARK    6  A    between atoms: C_22  and  O_23
REMARK    7  A    between atoms: C_22  and  C_24
REMARK    8  A    between atoms: C_22  and  C_29
REMARK    9  A    between atoms: C_24  and  C_25
REMARK   10  A    between atoms: C_25  and  N_26
REMARK   11  A    between atoms: N_26  and  C_27
REMARK   12  A    between atoms: N_26  and  C_28
REMARK                            x       y       z     vdW  Elec       q    Type
REMARK                         _______ _______ _______ _____ _____    ______ ____
ROOT
ATOM      1  C   UNL     1       6.251  -1.738  25.187  0.00  0.00    +0.090 C 
ENDROOT
BRANCH   1   3
ATOM      2  C   UNL     1       5.683  -4.079  26.157  0.00  0.00    +0.219 A 
ATOM      3  C   UNL     1       5.537  -3.121  25.137  0.00  0.00    +0.025 A 
ATOM      4  C   UNL     1       4.620  -3.471  24.138  0.00  0.00    +0.019 A 
ATOM      5  C   UNL     1       3.968  -4.714  24.150  0.00  0.00    +0.002 A 
ATOM      6  C   UNL     1       2.923  -5.011  23.265  0.00  0.00    +0.025 A 
ATOM      7  C   UNL     1       2.295  -6.252  23.332  0.00  0.00    +0.019 A 
ATOM      8  C   UNL     1       2.761  -7.226  24.210  0.00  0.00    +0.017 A 
ATOM      9  C   UNL     1       3.805  -6.918  25.083  0.00  0.00    +0.029 A 
ATOM     10 BR   UNL     1       0.765  -6.590  22.279  0.00  0.00    -0.050 Br
ATOM     11  C   UNL     1       4.367  -5.649  25.115  0.00  0.00    +0.075 A 
ATOM     12  N   UNL     1       5.208  -5.339  26.098  0.00  0.00    -0.213 NA
BRANCH   2  14
ATOM     13  C   UNL     1       5.463  -3.856  28.531  0.00  0.00    +0.279 C 
ATOM     14  O   UNL     1       6.227  -3.662  27.349  0.00  0.00    -0.479 OA
ENDBRANCH   2  14
ENDBRANCH   1   3
BRANCH   1  15
ATOM     15  C   UNL     1       5.666  -0.838  26.302  0.00  0.00    -0.037 A 
ATOM     16  C   UNL     1       4.272  -0.833  26.532  0.00  0.00    +0.004 A 
ATOM     17  C   UNL     1       3.724  -0.206  27.658  0.00  0.00    +0.000 A 
ATOM     18  C   UNL     1       4.544   0.479  28.550  0.00  0.00    +0.000 A 
ATOM     19  C   UNL     1       5.915   0.507  28.336  0.00  0.00    +0.000 A 
ATOM     20  C   UNL     1       6.469  -0.185  27.255  0.00  0.00    +0.004 A 
ENDBRANCH   1  15
BRANCH   1  21
ATOM     21  C   UNL     1       7.880  -1.743  24.894  0.00  0.00    +0.104 C 
BRANCH  21  22
ATOM     22  C   UNL     1       8.584  -0.378  24.607  0.00  0.00    -0.007 A 
ATOM     23  C   UNL     1       8.045   0.679  23.793  0.00  0.00    -0.012 A 
ATOM     24  C   UNL     1       6.715   0.760  23.308  0.00  0.00    +0.009 A 
ATOM     25  C   UNL     1       6.254   1.815  22.513  0.00  0.00    +0.001 A 
ATOM     26  C   UNL     1       7.112   2.848  22.169  0.00  0.00    +0.001 A 
ATOM     27  C   UNL     1       8.420   2.826  22.628  0.00  0.00    +0.008 A 
ATOM     28  C   UNL     1       8.888   1.784  23.439  0.00  0.00    -0.018 A 
ATOM     29  C   UNL     1      10.198   1.854  23.915  0.00  0.00    +0.008 A 
ATOM     30  C   UNL     1      10.670   0.909  24.800  0.00  0.00    +0.001 A 
ATOM     31  C   UNL     1       9.850  -0.156  25.165  0.00  0.00    +0.007 A 
ENDBRANCH  21  22
BRANCH  21  32
ATOM     32  O   UNL     1       8.460  -2.283  26.130  0.00  0.00    -0.383 OA
ATOM     33  H   UNL     1       7.879  -2.108  26.884  0.00  0.00    +0.211 HD
ENDBRANCH  21  32
BRANCH  21  34
ATOM     34  C   UNL     1       8.365  -2.804  23.853  0.00  0.00    +0.056 C 
BRANCH  34  35
ATOM     35  C   UNL     1       9.493  -3.740  24.284  0.00  0.00    +0.087 C 
BRANCH  35  36
ATOM     36  N   UNL     1       9.139  -5.172  24.401  0.00  0.00    -0.308 NA
ATOM     37  C   UNL     1       7.931  -5.404  23.598  0.00  0.00    +0.104 C 
ATOM     38  C   UNL     1       8.883  -5.583  25.784  0.00  0.00    +0.104 C 
ENDBRANCH  35  36
ENDBRANCH  34  35
ENDBRANCH  21  34
ENDBRANCH   1  21
TORSDOF 9
ENDMDL
