MODEL 1
REMARK VINA RESULT:      -7.6      0.000      0.000
REMARK  Name = 
REMARK  9 active torsions:
REMARK  status: ('A' for Active; 'I' for Inactive)
REMARK    1  A    between atoms: C_1  and  C_2
REMARK    2  A    between atoms: C_2  and  N_3
REMARK    3  A    between atoms: C_4  and  C_6
REMARK    4  A    between atoms: N_13  and  C_14
REMARK    5  A    between atoms: C_16  and  C_21
REMARK    6  A    between atoms: C_19  and  C_20
REMARK    7  A    between atoms: N_23  and  O_24
REMARK    8  A    between atoms: O_24  and  C_25
REMARK    9  A    between atoms: C_27  and  C_28
REMARK                            x       y       z     vdW  Elec       q    Type
REMARK                         _______ _______ _______ _____ _____    ______ ____
ROOT
ATOM      1  C   UNL     1       8.035  -3.743  25.519  0.00  0.00    +0.060 A 
ATOM      2  C   UNL     1       8.000  -2.310  25.717  0.00  0.00    -0.008 A 
ATOM      3  C   UNL     1       7.157  -1.666  26.766  0.00  0.00    +0.047 C 
ATOM      4  C   UNL     1       8.829  -1.752  24.745  0.00  0.00    +0.109 A 
ATOM      5  N   UNL     1       9.382  -2.777  24.028  0.00  0.00    -0.234 N 
ATOM      6  N   UNL     1      10.243  -2.643  23.011  0.00  0.00    -0.155 NA
ATOM      7  C   UNL     1      10.511  -1.413  22.717  0.00  0.00    +0.245 A 
ATOM      8  N   UNL     1       9.995  -0.299  23.317  0.00  0.00    -0.217 NA
ATOM      9  C   UNL     1       9.177  -0.415  24.327  0.00  0.00    +0.151 A 
ATOM     10  N   UNL     1       8.693   0.713  24.952  0.00  0.00    -0.297 N 
ATOM     11  H   UNL     1       8.299   0.611  25.870  0.00  0.00    +0.154 HD
ATOM     12  C   UNL     1       8.920  -3.974  24.482  0.00  0.00    +0.126 A 
ENDROOT
BRANCH  10  13
ATOM     13  C   UNL     1       8.475   1.980  24.374  0.00  0.00    +0.036 A 
ATOM     14  C   UNL     1       7.177   2.370  23.985  0.00  0.00    -0.029 A 
ATOM     15  C   UNL     1       5.996   1.455  24.176  0.00  0.00    +0.045 C 
ATOM     16  C   UNL     1       6.966   3.652  23.449  0.00  0.00    +0.006 A 
ATOM     17  C   UNL     1       8.022   4.555  23.322  0.00  0.00    +0.013 A 
ATOM     18  C   UNL     1       9.302   4.189  23.738  0.00  0.00    +0.040 A 
ATOM     19  C   UNL     1       9.523   2.902  24.239  0.00  0.00    +0.036 A 
BRANCH  18  20
ATOM     20  C   UNL     1      10.415   5.170  23.624  0.00  0.00    +0.267 C 
ATOM     21  N   UNL     1      11.653   4.615  23.360  0.00  0.00    -0.191 N 
ATOM     22  H   UNL     1      11.844   3.666  23.664  0.00  0.00    +0.183 HD
ATOM     23  O   UNL     1      10.191   6.366  23.773  0.00  0.00    -0.268 OA
BRANCH  21  24
ATOM     24  O   UNL     1      12.745   5.505  23.499  0.00  0.00    -0.283 OA
ATOM     25  C   UNL     1      13.388   5.608  22.233  0.00  0.00    +0.226 C 
ENDBRANCH  21  24
ENDBRANCH  18  20
ENDBRANCH  10  13
BRANCH   1  28
ATOM     26  N   UNL     1       6.176  -5.240  25.610  0.00  0.00    -0.312 N 
ATOM     27  H   UNL     1       5.944  -4.873  24.699  0.00  0.00    +0.149 HD
ATOM     28  C   UNL     1       7.289  -4.758  26.263  0.00  0.00    +0.246 C 
ATOM     29  O   UNL     1       7.612  -5.115  27.391  0.00  0.00    -0.270 OA
BRANCH  26  31
ATOM     30  C   UNL     1       4.467  -6.916  25.130  0.00  0.00    +0.024 C 
ATOM     31  C   UNL     1       5.319  -6.246  26.191  0.00  0.00    +0.101 C 
ENDBRANCH  26  31
ENDBRANCH   1  28
TORSDOF 5
ENDMDL
MODEL 2
REMARK VINA RESULT:      -7.1      2.246      8.928
REMARK  Name = 
REMARK  9 active torsions:
REMARK  status: ('A' for Active; 'I' for Inactive)
REMARK    1  A    between atoms: C_1  and  C_2
REMARK    2  A    between atoms: C_2  and  N_3
REMARK    3  A    between atoms: C_4  and  C_6
REMARK    4  A    between atoms: N_13  and  C_14
REMARK    5  A    between atoms: C_16  and  C_21
REMARK    6  A    between atoms: C_19  and  C_20
REMARK    7  A    between atoms: N_23  and  O_24
REMARK    8  A    between atoms: O_24  and  C_25
REMARK    9  A    between atoms: C_27  and  C_28
REMARK                            x       y       z     vdW  Elec       q    Type
REMARK                         _______ _______ _______ _____ _____    ______ ____
ROOT
ATOM      1  C   UNL     1       8.502   2.120  24.426  0.00  0.00    +0.060 A 
ATOM      2  C   UNL     1       7.540   1.054  24.246  0.00  0.00    -0.008 A 
ATOM      3  C   UNL     1       6.087   1.226  24.540  0.00  0.00    +0.047 C 
ATOM      4  C   UNL     1       8.257  -0.063  23.820  0.00  0.00    +0.109 A 
ATOM      5  N   UNL     1       9.568   0.305  23.695  0.00  0.00    -0.234 N 
ATOM      6  N   UNL     1      10.568  -0.493  23.299  0.00  0.00    -0.155 NA
ATOM      7  C   UNL     1      10.198  -1.707  23.055  0.00  0.00    +0.245 A 
ATOM      8  N   UNL     1       8.937  -2.218  23.185  0.00  0.00    -0.217 NA
ATOM      9  C   UNL     1       7.948  -1.445  23.543  0.00  0.00    +0.151 A 
ATOM     10  N   UNL     1       6.673  -1.959  23.632  0.00  0.00    -0.297 N 
ATOM     11  H   UNL     1       5.904  -1.313  23.638  0.00  0.00    +0.154 HD
ATOM     12  C   UNL     1       9.729   1.609  24.050  0.00  0.00    +0.126 A 
ENDROOT
BRANCH  10  13
ATOM     13  C   UNL     1       6.307  -3.284  23.941  0.00  0.00    +0.036 A 
ATOM     14  C   UNL     1       5.865  -4.154  22.924  0.00  0.00    -0.029 A 
ATOM     15  C   UNL     1       5.773  -3.700  21.491  0.00  0.00    +0.045 C 
ATOM     16  C   UNL     1       5.543  -5.486  23.238  0.00  0.00    +0.006 A 
ATOM     17  C   UNL     1       5.682  -5.966  24.541  0.00  0.00    +0.013 A 
ATOM     18  C   UNL     1       6.153  -5.120  25.545  0.00  0.00    +0.040 A 
ATOM     19  C   UNL     1       6.441  -3.785  25.244  0.00  0.00    +0.036 A 
BRANCH  18  20
ATOM     20  C   UNL     1       6.325  -5.651  26.924  0.00  0.00    +0.267 C 
ATOM     21  N   UNL     1       5.625  -6.811  27.191  0.00  0.00    -0.191 N 
ATOM     22  H   UNL     1       4.769  -7.001  26.678  0.00  0.00    +0.183 HD
ATOM     23  O   UNL     1       7.039  -5.054  27.722  0.00  0.00    -0.268 OA
BRANCH  21  24
ATOM     24  O   UNL     1       5.581  -7.179  28.557  0.00  0.00    -0.283 OA
ATOM     25  C   UNL     1       4.287  -6.853  29.056  0.00  0.00    +0.226 C 
ENDBRANCH  21  24
ENDBRANCH  18  20
ENDBRANCH  10  13
BRANCH   1  28
ATOM     26  N   UNL     1       8.401   4.460  23.959  0.00  0.00    -0.312 N 
ATOM     27  H   UNL     1       8.688   4.200  23.026  0.00  0.00    +0.149 HD
ATOM     28  C   UNL     1       8.240   3.477  24.909  0.00  0.00    +0.246 C 
ATOM     29  O   UNL     1       7.942   3.712  26.075  0.00  0.00    -0.270 OA
BRANCH  26  31
ATOM     30  C   UNL     1       9.418   6.680  23.925  0.00  0.00    +0.024 C 
ATOM     31  C   UNL     1       8.187   5.857  24.254  0.00  0.00    +0.101 C 
ENDBRANCH  26  31
ENDBRANCH   1  28
TORSDOF 5
ENDMDL
MODEL 3
REMARK VINA RESULT:      -7.0      3.134      4.687
REMARK  Name = 
REMARK  9 active torsions:
REMARK  status: ('A' for Active; 'I' for Inactive)
REMARK    1  A    between atoms: C_1  and  C_2
REMARK    2  A    between atoms: C_2  and  N_3
REMARK    3  A    between atoms: C_4  and  C_6
REMARK    4  A    between atoms: N_13  and  C_14
REMARK    5  A    between atoms: C_16  and  C_21
REMARK    6  A    between atoms: C_19  and  C_20
REMARK    7  A    between atoms: N_23  and  O_24
REMARK    8  A    between atoms: O_24  and  C_25
REMARK    9  A    between atoms: C_27  and  C_28
REMARK                            x       y       z     vdW  Elec       q    Type
REMARK                         _______ _______ _______ _____ _____    ______ ____
ROOT
ATOM      1  C   UNL     1       5.585  -5.242  25.690  0.00  0.00    +0.060 A 
ATOM      2  C   UNL     1       6.519  -4.162  25.457  0.00  0.00    -0.008 A 
ATOM      3  C   UNL     1       7.262  -3.491  26.564  0.00  0.00    +0.047 C 
ATOM      4  C   UNL     1       6.505  -3.912  24.086  0.00  0.00    +0.109 A 
ATOM      5  N   UNL     1       5.658  -4.813  23.504  0.00  0.00    -0.234 N 
ATOM      6  N   UNL     1       5.386  -4.897  22.196  0.00  0.00    -0.155 NA
ATOM      7  C   UNL     1       5.988  -4.004  21.482  0.00  0.00    +0.245 A 
ATOM      8  N   UNL     1       6.820  -3.020  21.937  0.00  0.00    -0.217 NA
ATOM      9  C   UNL     1       7.116  -2.943  23.206  0.00  0.00    +0.151 A 
ATOM     10  N   UNL     1       7.987  -1.973  23.651  0.00  0.00    -0.297 N 
ATOM     11  H   UNL     1       8.407  -2.096  24.555  0.00  0.00    +0.154 HD
ATOM     12  C   UNL     1       5.103  -5.618  24.451  0.00  0.00    +0.126 A 
ENDROOT
BRANCH  10  13
ATOM     13  C   UNL     1       8.202  -0.699  23.089  0.00  0.00    +0.036 A 
ATOM     14  C   UNL     1       9.411  -0.412  22.423  0.00  0.00    -0.029 A 
ATOM     15  C   UNL     1      10.496  -1.449  22.290  0.00  0.00    +0.045 C 
ATOM     16  C   UNL     1       9.598   0.849  21.830  0.00  0.00    +0.006 A 
ATOM     17  C   UNL     1       8.589   1.812  21.870  0.00  0.00    +0.013 A 
ATOM     18  C   UNL     1       7.377   1.523  22.497  0.00  0.00    +0.040 A 
ATOM     19  C   UNL     1       7.201   0.282  23.118  0.00  0.00    +0.036 A 
BRANCH  18  20
ATOM     20  C   UNL     1       6.298   2.547  22.508  0.00  0.00    +0.267 C 
ATOM     21  N   UNL     1       5.154   2.177  23.188  0.00  0.00    -0.191 N 
ATOM     22  H   UNL     1       4.918   1.192  23.258  0.00  0.00    +0.183 HD
ATOM     23  O   UNL     1       6.467   3.616  21.932  0.00  0.00    -0.268 OA
BRANCH  21  24
ATOM     24  O   UNL     1       4.043   3.032  22.991  0.00  0.00    -0.283 OA
ATOM     25  C   UNL     1       3.648   3.534  24.264  0.00  0.00    +0.226 C 
ENDBRANCH  21  24
ENDBRANCH  18  20
ENDBRANCH  10  13
BRANCH   1  28
ATOM     26  N   UNL     1       4.284  -5.107  27.689  0.00  0.00    -0.312 N 
ATOM     27  H   UNL     1       3.932  -4.244  27.301  0.00  0.00    +0.149 HD
ATOM     28  C   UNL     1       5.215  -5.830  26.979  0.00  0.00    +0.246 C 
ATOM     29  O   UNL     1       5.728  -6.861  27.400  0.00  0.00    -0.270 OA
BRANCH  26  31
ATOM     30  C   UNL     1       4.572  -4.863  30.102  0.00  0.00    +0.024 C 
ATOM     31  C   UNL     1       3.801  -5.534  28.981  0.00  0.00    +0.101 C 
ENDBRANCH  26  31
ENDBRANCH   1  28
TORSDOF 5
ENDMDL
MODEL 4
REMARK VINA RESULT:      -7.0      2.353      9.208
REMARK  Name = 
REMARK  9 active torsions:
REMARK  status: ('A' for Active; 'I' for Inactive)
REMARK    1  A    between atoms: C_1  and  C_2
REMARK    2  A    between atoms: C_2  and  N_3
REMARK    3  A    between atoms: C_4  and  C_6
REMARK    4  A    between atoms: N_13  and  C_14
REMARK    5  A    between atoms: C_16  and  C_21
REMARK    6  A    between atoms: C_19  and  C_20
REMARK    7  A    between atoms: N_23  and  O_24
REMARK    8  A    between atoms: O_24  and  C_25
REMARK    9  A    between atoms: C_27  and  C_28
REMARK                            x       y       z     vdW  Elec       q    Type
REMARK                         _______ _______ _______ _____ _____    ______ ____
ROOT
ATOM      1  C   UNL     1       8.526   2.664  23.134  0.00  0.00    +0.060 A 
ATOM      2  C   UNL     1       7.699   1.615  23.689  0.00  0.00    -0.008 A 
ATOM      3  C   UNL     1       6.672   1.875  24.740  0.00  0.00    +0.047 C 
ATOM      4  C   UNL     1       8.105   0.426  23.087  0.00  0.00    +0.109 A 
ATOM      5  N   UNL     1       9.082   0.728  22.180  0.00  0.00    -0.234 N 
ATOM      6  N   UNL     1       9.717  -0.151  21.394  0.00  0.00    -0.155 NA
ATOM      7  C   UNL     1       9.345  -1.375  21.577  0.00  0.00    +0.245 A 
ATOM      8  N   UNL     1       8.419  -1.820  22.479  0.00  0.00    -0.217 NA
ATOM      9  C   UNL     1       7.773  -0.972  23.231  0.00  0.00    +0.151 A 
ATOM     10  N   UNL     1       6.812  -1.425  24.109  0.00  0.00    -0.297 N 
ATOM     11  H   UNL     1       6.151  -0.761  24.468  0.00  0.00    +0.154 HD
ATOM     12  C   UNL     1       9.342   2.064  22.194  0.00  0.00    +0.126 A 
ENDROOT
BRANCH  10  13
ATOM     13  C   UNL     1       6.768  -2.679  24.750  0.00  0.00    +0.036 A 
ATOM     14  C   UNL     1       7.402  -2.863  25.996  0.00  0.00    -0.029 A 
ATOM     15  C   UNL     1       8.135  -1.735  26.674  0.00  0.00    +0.045 C 
ATOM     16  C   UNL     1       7.315  -4.106  26.645  0.00  0.00    +0.006 A 
ATOM     17  C   UNL     1       6.585  -5.155  26.084  0.00  0.00    +0.013 A 
ATOM     18  C   UNL     1       5.926  -4.969  24.869  0.00  0.00    +0.040 A 
ATOM     19  C   UNL     1       6.039  -3.745  24.203  0.00  0.00    +0.036 A 
BRANCH  18  20
ATOM     20  C   UNL     1       5.127  -6.085  24.294  0.00  0.00    +0.267 C 
ATOM     21  N   UNL     1       4.314  -6.742  25.198  0.00  0.00    -0.191 N 
ATOM     22  H   UNL     1       4.579  -6.761  26.177  0.00  0.00    +0.183 HD
ATOM     23  O   UNL     1       5.231  -6.360  23.104  0.00  0.00    -0.268 OA
BRANCH  21  24
ATOM     24  O   UNL     1       3.750  -7.950  24.721  0.00  0.00    -0.283 OA
ATOM     25  C   UNL     1       2.336  -7.781  24.671  0.00  0.00    +0.226 C 
ENDBRANCH  21  24
ENDBRANCH  18  20
ENDBRANCH  10  13
BRANCH   1  28
ATOM     26  N   UNL     1       8.031   4.912  22.497  0.00  0.00    -0.312 N 
ATOM     27  H   UNL     1       7.739   4.510  21.619  0.00  0.00    +0.149 HD
ATOM     28  C   UNL     1       8.511   4.085  23.487  0.00  0.00    +0.246 C 
ATOM     29  O   UNL     1       8.931   4.498  24.563  0.00  0.00    -0.270 OA
BRANCH  26  31
ATOM     30  C   UNL     1       6.816   6.924  21.834  0.00  0.00    +0.024 C 
ATOM     31  C   UNL     1       7.943   6.343  22.667  0.00  0.00    +0.101 C 
ENDBRANCH  26  31
ENDBRANCH   1  28
TORSDOF 5
ENDMDL
MODEL 5
REMARK VINA RESULT:      -6.8      3.191      9.806
REMARK  Name = 
REMARK  9 active torsions:
REMARK  status: ('A' for Active; 'I' for Inactive)
REMARK    1  A    between atoms: C_1  and  C_2
REMARK    2  A    between atoms: C_2  and  N_3
REMARK    3  A    between atoms: C_4  and  C_6
REMARK    4  A    between atoms: N_13  and  C_14
REMARK    5  A    between atoms: C_16  and  C_21
REMARK    6  A    between atoms: C_19  and  C_20
REMARK    7  A    between atoms: N_23  and  O_24
REMARK    8  A    between atoms: O_24  and  C_25
REMARK    9  A    between atoms: C_27  and  C_28
REMARK                            x       y       z     vdW  Elec       q    Type
REMARK                         _______ _______ _______ _____ _____    ______ ____
ROOT
ATOM      1  C   UNL     1       9.359  -1.250  23.336  0.00  0.00    +0.060 A 
ATOM      2  C   UNL     1       8.006  -1.761  23.295  0.00  0.00    -0.008 A 
ATOM      3  C   UNL     1       6.857  -0.950  22.796  0.00  0.00    +0.047 C 
ATOM      4  C   UNL     1       8.048  -3.047  23.831  0.00  0.00    +0.109 A 
ATOM      5  N   UNL     1       9.351  -3.332  24.134  0.00  0.00    -0.234 N 
ATOM      6  N   UNL     1       9.797  -4.479  24.662  0.00  0.00    -0.155 NA
ATOM      7  C   UNL     1       8.862  -5.337  24.904  0.00  0.00    +0.245 A 
ATOM      8  N   UNL     1       7.522  -5.165  24.696  0.00  0.00    -0.217 NA
ATOM      9  C   UNL     1       7.076  -4.064  24.158  0.00  0.00    +0.151 A 
ATOM     10  N   UNL     1       5.728  -3.914  23.914  0.00  0.00    -0.297 N 
ATOM     11  H   UNL     1       5.442  -3.202  23.267  0.00  0.00    +0.154 HD
ATOM     12  C   UNL     1      10.147  -2.268  23.840  0.00  0.00    +0.126 A 
ENDROOT
BRANCH  10  13
ATOM     13  C   UNL     1       4.663  -4.496  24.631  0.00  0.00    +0.036 A 
ATOM     14  C   UNL     1       4.065  -3.801  25.702  0.00  0.00    -0.029 A 
ATOM     15  C   UNL     1       4.538  -2.430  26.106  0.00  0.00    +0.045 C 
ATOM     16  C   UNL     1       2.977  -4.375  26.382  0.00  0.00    +0.006 A 
ATOM     17  C   UNL     1       2.463  -5.612  25.992  0.00  0.00    +0.013 A 
ATOM     18  C   UNL     1       3.027  -6.288  24.911  0.00  0.00    +0.040 A 
ATOM     19  C   UNL     1       4.132  -5.738  24.254  0.00  0.00    +0.036 A 
BRANCH  18  20
ATOM     20  C   UNL     1       2.453  -7.594  24.486  0.00  0.00    +0.267 C 
ATOM     21  N   UNL     1       2.445  -8.570  25.464  0.00  0.00    -0.191 N 
ATOM     22  H   UNL     1       3.146  -8.539  26.198  0.00  0.00    +0.183 HD
ATOM     23  O   UNL     1       2.043  -7.735  23.340  0.00  0.00    -0.268 OA
BRANCH  21  24
ATOM     24  O   UNL     1       2.139  -9.872  25.002  0.00  0.00    -0.283 OA
ATOM     25  C   UNL     1       0.905 -10.266  25.595  0.00  0.00    +0.226 C 
ENDBRANCH  21  24
ENDBRANCH  18  20
ENDBRANCH  10  13
BRANCH   1  28
ATOM     26  N   UNL     1      10.081   0.936  23.970  0.00  0.00    -0.312 N 
ATOM     27  H   UNL     1       9.941   0.616  24.917  0.00  0.00    +0.149 HD
ATOM     28  C   UNL     1       9.817   0.078  22.926  0.00  0.00    +0.246 C 
ATOM     29  O   UNL     1       9.914   0.404  21.748  0.00  0.00    -0.270 OA
BRANCH  26  31
ATOM     30  C   UNL     1       9.387   3.270  23.793  0.00  0.00    +0.024 C 
ATOM     31  C   UNL     1      10.542   2.287  23.756  0.00  0.00    +0.101 C 
ENDBRANCH  26  31
ENDBRANCH   1  28
TORSDOF 5
ENDMDL
MODEL 6
REMARK VINA RESULT:      -6.8      2.327      9.074
REMARK  Name = 
REMARK  9 active torsions:
REMARK  status: ('A' for Active; 'I' for Inactive)
REMARK    1  A    between atoms: C_1  and  C_2
REMARK    2  A    between atoms: C_2  and  N_3
REMARK    3  A    between atoms: C_4  and  C_6
REMARK    4  A    between atoms: N_13  and  C_14
REMARK    5  A    between atoms: C_16  and  C_21
REMARK    6  A    between atoms: C_19  and  C_20
REMARK    7  A    between atoms: N_23  and  O_24
REMARK    8  A    between atoms: O_24  and  C_25
REMARK    9  A    between atoms: C_27  and  C_28
REMARK                            x       y       z     vdW  Elec       q    Type
REMARK                         _______ _______ _______ _____ _____    ______ ____
ROOT
ATOM      1  C   UNL     1       9.182   2.511  23.408  0.00  0.00    +0.060 A 
ATOM      2  C   UNL     1       8.265   1.539  23.962  0.00  0.00    -0.008 A 
ATOM      3  C   UNL     1       7.377   1.843  25.122  0.00  0.00    +0.047 C 
ATOM      4  C   UNL     1       8.447   0.361  23.238  0.00  0.00    +0.109 A 
ATOM      5  N   UNL     1       9.377   0.607  22.267  0.00  0.00    -0.234 N 
ATOM      6  N   UNL     1       9.813  -0.279  21.362  0.00  0.00    -0.155 NA
ATOM      7  C   UNL     1       9.289  -1.453  21.490  0.00  0.00    +0.245 A 
ATOM      8  N   UNL     1       8.390  -1.845  22.441  0.00  0.00    -0.217 NA
ATOM      9  C   UNL     1       7.935  -0.986  23.311  0.00  0.00    +0.151 A 
ATOM     10  N   UNL     1       6.997  -1.380  24.241  0.00  0.00    -0.297 N 
ATOM     11  H   UNL     1       6.469  -0.666  24.709  0.00  0.00    +0.154 HD
ATOM     12  C   UNL     1       9.823   1.890  22.353  0.00  0.00    +0.126 A 
ENDROOT
BRANCH  10  13
ATOM     13  C   UNL     1       6.831  -2.667  24.790  0.00  0.00    +0.036 A 
ATOM     14  C   UNL     1       7.469  -3.011  25.999  0.00  0.00    -0.029 A 
ATOM     15  C   UNL     1       8.336  -2.024  26.734  0.00  0.00    +0.045 C 
ATOM     16  C   UNL     1       7.261  -4.284  26.558  0.00  0.00    +0.006 A 
ATOM     17  C   UNL     1       6.409  -5.203  25.945  0.00  0.00    +0.013 A 
ATOM     18  C   UNL     1       5.747  -4.856  24.768  0.00  0.00    +0.040 A 
ATOM     19  C   UNL     1       5.978  -3.604  24.189  0.00  0.00    +0.036 A 
BRANCH  18  20
ATOM     20  C   UNL     1       4.818  -5.834  24.138  0.00  0.00    +0.267 C 
ATOM     21  N   UNL     1       4.114  -5.348  23.053  0.00  0.00    -0.191 N 
ATOM     22  H   UNL     1       3.917  -4.354  22.996  0.00  0.00    +0.183 HD
ATOM     23  O   UNL     1       4.721  -6.966  24.597  0.00  0.00    -0.268 OA
BRANCH  21  24
ATOM     24  O   UNL     1       3.057  -6.179  22.610  0.00  0.00    -0.283 OA
ATOM     25  C   UNL     1       1.855  -5.719  23.221  0.00  0.00    +0.226 C 
ENDBRANCH  21  24
ENDBRANCH  18  20
ENDBRANCH  10  13
BRANCH   1  28
ATOM     26  N   UNL     1      10.552   4.468  23.393  0.00  0.00    -0.312 N 
ATOM     27  H   UNL     1      11.163   3.932  22.793  0.00  0.00    +0.149 HD
ATOM     28  C   UNL     1       9.397   3.886  23.864  0.00  0.00    +0.246 C 
ATOM     29  O   UNL     1       8.627   4.449  24.635  0.00  0.00    -0.270 OA
BRANCH  26  31
ATOM     30  C   UNL     1      12.437   5.979  23.744  0.00  0.00    +0.024 C 
ATOM     31  C   UNL     1      10.929   5.818  23.737  0.00  0.00    +0.101 C 
ENDBRANCH  26  31
ENDBRANCH   1  28
TORSDOF 5
ENDMDL
MODEL 7
REMARK VINA RESULT:      -6.8      2.241      3.493
REMARK  Name = 
REMARK  9 active torsions:
REMARK  status: ('A' for Active; 'I' for Inactive)
REMARK    1  A    between atoms: C_1  and  C_2
REMARK    2  A    between atoms: C_2  and  N_3
REMARK    3  A    between atoms: C_4  and  C_6
REMARK    4  A    between atoms: N_13  and  C_14
REMARK    5  A    between atoms: C_16  and  C_21
REMARK    6  A    between atoms: C_19  and  C_20
REMARK    7  A    between atoms: N_23  and  O_24
REMARK    8  A    between atoms: O_24  and  C_25
REMARK    9  A    between atoms: C_27  and  C_28
REMARK                            x       y       z     vdW  Elec       q    Type
REMARK                         _______ _______ _______ _____ _____    ______ ____
ROOT
ATOM      1  C   UNL     1       5.572  -5.376  24.914  0.00  0.00    +0.060 A 
ATOM      2  C   UNL     1       5.765  -4.037  24.400  0.00  0.00    -0.008 A 
ATOM      3  C   UNL     1       4.933  -3.475  23.296  0.00  0.00    +0.047 C 
ATOM      4  C   UNL     1       6.842  -3.493  25.097  0.00  0.00    +0.109 A 
ATOM      5  N   UNL     1       7.254  -4.415  26.018  0.00  0.00    -0.234 N 
ATOM      6  N   UNL     1       8.262  -4.257  26.885  0.00  0.00    -0.155 NA
ATOM      7  C   UNL     1       8.872  -3.123  26.771  0.00  0.00    +0.245 A 
ATOM      8  N   UNL     1       8.596  -2.136  25.867  0.00  0.00    -0.217 NA
ATOM      9  C   UNL     1       7.600  -2.265  25.035  0.00  0.00    +0.151 A 
ATOM     10  N   UNL     1       7.303  -1.248  24.154  0.00  0.00    -0.297 N 
ATOM     11  H   UNL     1       6.395  -1.245  23.726  0.00  0.00    +0.154 HD
ATOM     12  C   UNL     1       6.501  -5.546  25.924  0.00  0.00    +0.126 A 
ENDROOT
BRANCH  10  13
ATOM     13  C   UNL     1       8.200  -0.315  23.597  0.00  0.00    +0.036 A 
ATOM     14  C   UNL     1       8.938  -0.641  22.441  0.00  0.00    -0.029 A 
ATOM     15  C   UNL     1       8.789  -1.981  21.771  0.00  0.00    +0.045 C 
ATOM     16  C   UNL     1       9.798   0.314  21.872  0.00  0.00    +0.006 A 
ATOM     17  C   UNL     1       9.911   1.592  22.422  0.00  0.00    +0.013 A 
ATOM     18  C   UNL     1       9.157   1.932  23.545  0.00  0.00    +0.040 A 
ATOM     19  C   UNL     1       8.327   0.974  24.135  0.00  0.00    +0.036 A 
BRANCH  18  20
ATOM     20  C   UNL     1       9.264   3.306  24.106  0.00  0.00    +0.267 C 
ATOM     21  N   UNL     1      10.088   4.160  23.398  0.00  0.00    -0.191 N 
ATOM     22  H   UNL     1      10.856   3.772  22.860  0.00  0.00    +0.183 HD
ATOM     23  O   UNL     1       8.651   3.597  25.127  0.00  0.00    -0.268 OA
BRANCH  21  24
ATOM     24  O   UNL     1      10.391   5.376  24.056  0.00  0.00    -0.283 OA
ATOM     25  C   UNL     1       9.579   6.396  23.483  0.00  0.00    +0.226 C 
ENDBRANCH  21  24
ENDBRANCH  18  20
ENDBRANCH  10  13
BRANCH   1  28
ATOM     26  N   UNL     1       3.307  -6.133  24.908  0.00  0.00    -0.312 N 
ATOM     27  H   UNL     1       3.127  -5.334  25.498  0.00  0.00    +0.149 HD
ATOM     28  C   UNL     1       4.590  -6.364  24.466  0.00  0.00    +0.246 C 
ATOM     29  O   UNL     1       4.902  -7.337  23.787  0.00  0.00    -0.270 OA
BRANCH  26  31
ATOM     30  C   UNL     1       1.667  -6.683  23.184  0.00  0.00    +0.024 C 
ATOM     31  C   UNL     1       2.207  -7.004  24.565  0.00  0.00    +0.101 C 
ENDBRANCH  26  31
ENDBRANCH   1  28
TORSDOF 5
ENDMDL
MODEL 8
REMARK VINA RESULT:      -6.7      2.057      2.978
REMARK  Name = 
REMARK  9 active torsions:
REMARK  status: ('A' for Active; 'I' for Inactive)
REMARK    1  A    between atoms: C_1  and  C_2
REMARK    2  A    between atoms: C_2  and  N_3
REMARK    3  A    between atoms: C_4  and  C_6
REMARK    4  A    between atoms: N_13  and  C_14
REMARK    5  A    between atoms: C_16  and  C_21
REMARK    6  A    between atoms: C_19  and  C_20
REMARK    7  A    between atoms: N_23  and  O_24
REMARK    8  A    between atoms: O_24  and  C_25
REMARK    9  A    between atoms: C_27  and  C_28
REMARK                            x       y       z     vdW  Elec       q    Type
REMARK                         _______ _______ _______ _____ _____    ______ ____
ROOT
ATOM      1  C   UNL     1       8.259  -2.268  24.876  0.00  0.00    +0.060 A 
ATOM      2  C   UNL     1       8.088  -1.023  24.159  0.00  0.00    -0.008 A 
ATOM      3  C   UNL     1       8.276  -0.915  22.682  0.00  0.00    +0.047 C 
ATOM      4  C   UNL     1       7.785  -0.052  25.112  0.00  0.00    +0.109 A 
ATOM      5  N   UNL     1       7.720  -0.667  26.331  0.00  0.00    -0.234 N 
ATOM      6  N   UNL     1       7.443  -0.067  27.495  0.00  0.00    -0.155 NA
ATOM      7  C   UNL     1       7.257   1.208  27.391  0.00  0.00    +0.245 A 
ATOM      8  N   UNL     1       7.339   1.953  26.248  0.00  0.00    -0.217 NA
ATOM      9  C   UNL     1       7.580   1.377  25.102  0.00  0.00    +0.151 A 
ATOM     10  N   UNL     1       7.621   2.131  23.950  0.00  0.00    -0.297 N 
ATOM     11  H   UNL     1       7.534   1.652  23.071  0.00  0.00    +0.154 HD
ATOM     12  C   UNL     1       7.998  -1.994  26.205  0.00  0.00    +0.126 A 
ENDROOT
BRANCH  10  13
ATOM     13  C   UNL     1       7.992   3.485  23.829  0.00  0.00    +0.036 A 
ATOM     14  C   UNL     1       7.007   4.493  23.811  0.00  0.00    -0.029 A 
ATOM     15  C   UNL     1       5.543   4.158  23.923  0.00  0.00    +0.045 C 
ATOM     16  C   UNL     1       7.393   5.842  23.732  0.00  0.00    +0.006 A 
ATOM     17  C   UNL     1       8.742   6.198  23.699  0.00  0.00    +0.013 A 
ATOM     18  C   UNL     1       9.722   5.207  23.752  0.00  0.00    +0.040 A 
ATOM     19  C   UNL     1       9.343   3.862  23.794  0.00  0.00    +0.036 A 
BRANCH  18  20
ATOM     20  C   UNL     1      11.158   5.600  23.744  0.00  0.00    +0.267 C 
ATOM     21  N   UNL     1      11.932   4.950  22.802  0.00  0.00    -0.191 N 
ATOM     22  H   UNL     1      11.659   4.022  22.493  0.00  0.00    +0.183 HD
ATOM     23  O   UNL     1      11.565   6.435  24.543  0.00  0.00    -0.268 OA
BRANCH  21  24
ATOM     24  O   UNL     1      13.328   5.128  22.954  0.00  0.00    -0.283 OA
ATOM     25  C   UNL     1      13.770   6.011  21.928  0.00  0.00    +0.226 C 
ENDBRANCH  21  24
ENDBRANCH  18  20
ENDBRANCH  10  13
BRANCH   1  28
ATOM     26  N   UNL     1       7.586  -4.270  23.760  0.00  0.00    -0.312 N 
ATOM     27  H   UNL     1       6.661  -3.868  23.777  0.00  0.00    +0.149 HD
ATOM     28  C   UNL     1       8.632  -3.568  24.317  0.00  0.00    +0.246 C 
ATOM     29  O   UNL     1       9.776  -4.005  24.380  0.00  0.00    -0.270 OA
BRANCH  26  31
ATOM     30  C   UNL     1       7.037  -5.667  21.834  0.00  0.00    +0.024 C 
ATOM     31  C   UNL     1       7.767  -5.571  23.161  0.00  0.00    +0.101 C 
ENDBRANCH  26  31
ENDBRANCH   1  28
TORSDOF 5
ENDMDL
MODEL 9
REMARK VINA RESULT:      -6.6      2.957      4.206
REMARK  Name = 
REMARK  9 active torsions:
REMARK  status: ('A' for Active; 'I' for Inactive)
REMARK    1  A    between atoms: C_1  and  C_2
REMARK    2  A    between atoms: C_2  and  N_3
REMARK    3  A    between atoms: C_4  and  C_6
REMARK    4  A    between atoms: N_13  and  C_14
REMARK    5  A    between atoms: C_16  and  C_21
REMARK    6  A    between atoms: C_19  and  C_20
REMARK    7  A    between atoms: N_23  and  O_24
REMARK    8  A    between atoms: O_24  and  C_25
REMARK    9  A    between atoms: C_27  and  C_28
REMARK                            x       y       z     vdW  Elec       q    Type
REMARK                         _______ _______ _______ _____ _____    ______ ____
ROOT
ATOM      1  C   UNL     1       4.941  -4.531  25.782  0.00  0.00    +0.060 A 
ATOM      2  C   UNL     1       5.988  -3.557  25.562  0.00  0.00    -0.008 A 
ATOM      3  C   UNL     1       6.682  -2.857  26.682  0.00  0.00    +0.047 C 
ATOM      4  C   UNL     1       6.124  -3.423  24.181  0.00  0.00    +0.109 A 
ATOM      5  N   UNL     1       5.256  -4.297  23.588  0.00  0.00    -0.234 N 
ATOM      6  N   UNL     1       5.100  -4.469  22.269  0.00  0.00    -0.155 NA
ATOM      7  C   UNL     1       5.846  -3.694  21.553  0.00  0.00    +0.245 A 
ATOM      8  N   UNL     1       6.717  -2.747  22.013  0.00  0.00    -0.217 NA
ATOM      9  C   UNL     1       6.900  -2.588  23.295  0.00  0.00    +0.151 A 
ATOM     10  N   UNL     1       7.810  -1.659  23.749  0.00  0.00    -0.297 N 
ATOM     11  H   UNL     1       8.131  -1.739  24.697  0.00  0.00    +0.154 HD
ATOM     12  C   UNL     1       4.544  -4.970  24.533  0.00  0.00    +0.126 A 
ENDROOT
BRANCH  10  13
ATOM     13  C   UNL     1       8.192  -0.460  23.115  0.00  0.00    +0.036 A 
ATOM     14  C   UNL     1       9.441  -0.365  22.469  0.00  0.00    -0.029 A 
ATOM     15  C   UNL     1      10.394  -1.531  22.432  0.00  0.00    +0.045 C 
ATOM     16  C   UNL     1       9.793   0.823  21.805  0.00  0.00    +0.006 A 
ATOM     17  C   UNL     1       8.910   1.901  21.754  0.00  0.00    +0.013 A 
ATOM     18  C   UNL     1       7.658   1.802  22.362  0.00  0.00    +0.040 A 
ATOM     19  C   UNL     1       7.318   0.635  23.054  0.00  0.00    +0.036 A 
BRANCH  18  20
ATOM     20  C   UNL     1       6.713   2.948  22.278  0.00  0.00    +0.267 C 
ATOM     21  N   UNL     1       7.297   4.160  21.965  0.00  0.00    -0.191 N 
ATOM     22  H   UNL     1       8.267   4.321  22.218  0.00  0.00    +0.183 HD
ATOM     23  O   UNL     1       5.519   2.770  22.489  0.00  0.00    -0.268 OA
BRANCH  21  24
ATOM     24  O   UNL     1       6.455   5.286  22.130  0.00  0.00    -0.283 OA
ATOM     25  C   UNL     1       6.873   5.975  23.304  0.00  0.00    +0.226 C 
ENDBRANCH  21  24
ENDBRANCH  18  20
ENDBRANCH  10  13
BRANCH   1  28
ATOM     26  N   UNL     1       4.913  -6.171  27.518  0.00  0.00    -0.312 N 
ATOM     27  H   UNL     1       5.595  -6.657  26.954  0.00  0.00    +0.149 HD
ATOM     28  C   UNL     1       4.401  -4.975  27.068  0.00  0.00    +0.246 C 
ATOM     29  O   UNL     1       3.536  -4.347  27.668  0.00  0.00    -0.270 OA
BRANCH  26  31
ATOM     30  C   UNL     1       5.370  -6.290  29.914  0.00  0.00    +0.024 C 
ATOM     31  C   UNL     1       4.497  -6.764  28.767  0.00  0.00    +0.101 C 
ENDBRANCH  26  31
ENDBRANCH   1  28
TORSDOF 5
ENDMDL
