MODEL 1
REMARK VINA RESULT:      -7.2      0.000      0.000
REMARK  Name = 
REMARK  11 active torsions:
REMARK  status: ('A' for Active; 'I' for Inactive)
REMARK    1  A    between atoms: N_1  and  C_2
REMARK    2  A    between atoms: C_4  and  C_6
REMARK    3  A    between atoms: C_6  and  O_7
REMARK    4  A    between atoms: O_7  and  P_8
REMARK    5  A    between atoms: P_8  and  O_9
REMARK    6  A    between atoms: P_8  and  O_11
REMARK    7  A    between atoms: O_11  and  P_12
REMARK    8  A    between atoms: P_12  and  O_13
REMARK    9  A    between atoms: P_12  and  O_14
REMARK   10  A    between atoms: C_17  and  N_22
REMARK   11  A    between atoms: C_19  and  O_21
REMARK                            x       y       z     vdW  Elec       q    Type
REMARK                         _______ _______ _______ _____ _____    ______ ____
ROOT
ATOM      1  C   UNL     1       8.025  -5.306  25.849  0.00  0.00    +0.115 C 
ATOM      2  C   UNL     1       9.255  -4.476  25.464  0.00  0.00    +0.183 C 
ATOM      3  C   UNL     1       8.749  -3.559  24.339  0.00  0.00    +0.252 C 
ATOM      4  O   UNL     1       7.318  -3.731  24.225  0.00  0.00    -0.347 OA
ATOM      5  C   UNL     1       6.857  -4.427  25.393  0.00  0.00    +0.166 C 
ENDROOT
BRANCH   3   6
ATOM      6  N   UNL     1       9.042  -2.151  24.566  0.00  0.00    -0.286 N 
ATOM      7  C   UNL     1       9.338  -1.233  23.591  0.00  0.00    +0.167 A 
ATOM      8  N   UNL     1       9.481  -1.449  22.272  0.00  0.00    -0.216 NA
ATOM      9  C   UNL     1       9.784  -0.293  21.635  0.00  0.00    +0.225 A 
ATOM     10  N   UNL     1       9.929   0.946  22.156  0.00  0.00    -0.219 NA
ATOM     11  C   UNL     1       9.750   1.107  23.487  0.00  0.00    +0.147 A 
ATOM     12  N   UNL     1       9.873   2.381  24.023  0.00  0.00    -0.341 N 
ATOM     13  H   UNL     1      10.060   2.387  25.020  0.00  0.00    +0.144 HD
ATOM     14  H   UNL     1      10.412   3.002  23.435  0.00  0.00    +0.144 HD
ATOM     15  C   UNL     1       9.460  -0.029  24.263  0.00  0.00    +0.147 A 
ATOM     16  N   UNL     1       9.276  -0.199  25.620  0.00  0.00    -0.231 NA
ATOM     17  C   UNL     1       9.014  -1.481  25.761  0.00  0.00    +0.203 A 
ENDBRANCH   3   6
BRANCH   1  18
ATOM     18  N   UNL     1       8.002  -5.662  27.273  0.00  0.00    -0.323 NA
ATOM     19  H   UNL     1       8.662  -6.414  27.478  0.00  0.00    +0.119 HD
ATOM     20  H   UNL     1       8.319  -4.861  27.824  0.00  0.00    +0.119 HD
ENDBRANCH   1  18
BRANCH   2  21
ATOM     21  O   UNL     1      10.307  -5.331  25.001  0.00  0.00    -0.386 OA
ATOM     22  H   UNL     1      10.008  -6.250  25.132  0.00  0.00    +0.210 HD
ENDBRANCH   2  21
BRANCH   5  23
ATOM     23  C   UNL     1       5.575  -5.194  25.054  0.00  0.00    +0.205 C 
BRANCH  23  24
ATOM     24  O   UNL     1       5.478  -6.401  25.789  0.00  0.00    -0.284 OA
BRANCH  24  25
ATOM     25  P   UNL     1       3.978  -6.831  26.322  0.00  0.00    +0.483 P 
ATOM     26  O   UNL     1       3.008  -5.821  25.713  0.00  0.00    -0.227 OA
BRANCH  25  27
ATOM     27  O   UNL     1       3.773  -7.784  24.894  0.00  0.00    -0.302 OA
ATOM     28  H   UNL     1       2.974  -7.394  24.484  0.00  0.00    +0.222 HD
ENDBRANCH  25  27
BRANCH  25  29
ATOM     29  O   UNL     1       4.183  -5.877  27.751  0.00  0.00    -0.186 OA
BRANCH  29  30
ATOM     30  P   UNL     1       4.827  -6.500  29.053  0.00  0.00    +0.481 P 
ATOM     31  O   UNL     1       3.920  -7.084  30.074  0.00  0.00    -0.227 OA
BRANCH  30  32
ATOM     32  O   UNL     1       5.976  -5.504  29.519  0.00  0.00    -0.302 OA
ATOM     33  H   UNL     1       5.739  -5.052  30.349  0.00  0.00    +0.222 HD
ENDBRANCH  30  32
BRANCH  30  34
ATOM     34  O   UNL     1       5.756  -7.623  28.378  0.00  0.00    -0.302 OA
ATOM     35  H   UNL     1       6.504  -7.231  27.891  0.00  0.00    +0.222 HD
ENDBRANCH  30  34
ENDBRANCH  29  30
ENDBRANCH  25  29
ENDBRANCH  24  25
ENDBRANCH  23  24
ENDBRANCH   5  23
TORSDOF 11
ENDMDL
MODEL 2
REMARK VINA RESULT:      -7.1      2.354      3.532
REMARK  Name = 
REMARK  11 active torsions:
REMARK  status: ('A' for Active; 'I' for Inactive)
REMARK    1  A    between atoms: N_1  and  C_2
REMARK    2  A    between atoms: C_4  and  C_6
REMARK    3  A    between atoms: C_6  and  O_7
REMARK    4  A    between atoms: O_7  and  P_8
REMARK    5  A    between atoms: P_8  and  O_9
REMARK    6  A    between atoms: P_8  and  O_11
REMARK    7  A    between atoms: O_11  and  P_12
REMARK    8  A    between atoms: P_12  and  O_13
REMARK    9  A    between atoms: P_12  and  O_14
REMARK   10  A    between atoms: C_17  and  N_22
REMARK   11  A    between atoms: C_19  and  O_21
REMARK                            x       y       z     vdW  Elec       q    Type
REMARK                         _______ _______ _______ _____ _____    ______ ____
ROOT
ATOM      1  C   UNL     1       7.776  -5.280  26.055  0.00  0.00    +0.115 C 
ATOM      2  C   UNL     1       9.006  -4.589  25.454  0.00  0.00    +0.183 C 
ATOM      3  C   UNL     1       8.418  -3.587  24.449  0.00  0.00    +0.252 C 
ATOM      4  O   UNL     1       6.980  -3.586  24.601  0.00  0.00    -0.347 OA
ATOM      5  C   UNL     1       6.659  -4.257  25.830  0.00  0.00    +0.166 C 
ENDROOT
BRANCH   3   6
ATOM      6  N   UNL     1       8.916  -2.231  24.628  0.00  0.00    -0.286 N 
ATOM      7  C   UNL     1       9.261  -1.370  23.617  0.00  0.00    +0.167 A 
ATOM      8  N   UNL     1       9.275  -1.615  22.295  0.00  0.00    -0.216 NA
ATOM      9  C   UNL     1       9.685  -0.517  21.616  0.00  0.00    +0.225 A 
ATOM     10  N   UNL     1      10.035   0.694  22.102  0.00  0.00    -0.219 NA
ATOM     11  C   UNL     1       9.979   0.890  23.440  0.00  0.00    +0.147 A 
ATOM     12  N   UNL     1      10.314   2.140  23.941  0.00  0.00    -0.341 N 
ATOM     13  H   UNL     1      10.573   2.129  24.922  0.00  0.00    +0.144 HD
ATOM     14  H   UNL     1      10.888   2.676  23.304  0.00  0.00    +0.144 HD
ATOM     15  C   UNL     1       9.595  -0.188  24.256  0.00  0.00    +0.147 A 
ATOM     16  N   UNL     1       9.491  -0.320  25.625  0.00  0.00    -0.231 NA
ATOM     17  C   UNL     1       9.068  -1.553  25.809  0.00  0.00    +0.203 A 
ENDBRANCH   3   6
BRANCH   1  18
ATOM     18  N   UNL     1       7.971  -5.673  27.456  0.00  0.00    -0.323 NA
ATOM     19  H   UNL     1       8.516  -6.533  27.527  0.00  0.00    +0.119 HD
ATOM     20  H   UNL     1       8.526  -4.957  27.931  0.00  0.00    +0.119 HD
ENDBRANCH   1  18
BRANCH   2  21
ATOM     21  O   UNL     1       9.844  -5.549  24.798  0.00  0.00    -0.386 OA
ATOM     22  H   UNL     1      10.658  -5.630  25.330  0.00  0.00    +0.210 HD
ENDBRANCH   2  21
BRANCH   5  23
ATOM     23  C   UNL     1       5.253  -4.856  25.728  0.00  0.00    +0.205 C 
BRANCH  23  24
ATOM     24  O   UNL     1       5.082  -5.582  24.524  0.00  0.00    -0.284 OA
BRANCH  24  25
ATOM     25  P   UNL     1       3.889  -5.069  23.507  0.00  0.00    +0.483 P 
ATOM     26  O   UNL     1       2.753  -6.080  23.646  0.00  0.00    -0.227 OA
BRANCH  25  27
ATOM     27  O   UNL     1       3.181  -4.197  24.821  0.00  0.00    -0.302 OA
ATOM     28  H   UNL     1       3.915  -4.143  25.468  0.00  0.00    +0.222 HD
ENDBRANCH  25  27
BRANCH  25  29
ATOM     29  O   UNL     1       4.598  -5.942  22.192  0.00  0.00    -0.186 OA
BRANCH  29  30
ATOM     30  P   UNL     1       5.946  -5.452  21.529  0.00  0.00    +0.481 P 
ATOM     31  O   UNL     1       6.081  -5.557  20.054  0.00  0.00    -0.227 OA
BRANCH  30  32
ATOM     32  O   UNL     1       7.129  -5.975  22.453  0.00  0.00    -0.302 OA
ATOM     33  H   UNL     1       7.138  -6.948  22.501  0.00  0.00    +0.222 HD
ENDBRANCH  30  32
BRANCH  30  34
ATOM     34  O   UNL     1       5.937  -3.920  22.013  0.00  0.00    -0.302 OA
ATOM     35  H   UNL     1       6.590  -3.382  21.529  0.00  0.00    +0.222 HD
ENDBRANCH  30  34
ENDBRANCH  29  30
ENDBRANCH  25  29
ENDBRANCH  24  25
ENDBRANCH  23  24
ENDBRANCH   5  23
TORSDOF 11
ENDMDL
MODEL 3
REMARK VINA RESULT:      -6.9      2.341      3.554
REMARK  Name = 
REMARK  11 active torsions:
REMARK  status: ('A' for Active; 'I' for Inactive)
REMARK    1  A    between atoms: N_1  and  C_2
REMARK    2  A    between atoms: C_4  and  C_6
REMARK    3  A    between atoms: C_6  and  O_7
REMARK    4  A    between atoms: O_7  and  P_8
REMARK    5  A    between atoms: P_8  and  O_9
REMARK    6  A    between atoms: P_8  and  O_11
REMARK    7  A    between atoms: O_11  and  P_12
REMARK    8  A    between atoms: P_12  and  O_13
REMARK    9  A    between atoms: P_12  and  O_14
REMARK   10  A    between atoms: C_17  and  N_22
REMARK   11  A    between atoms: C_19  and  O_21
REMARK                            x       y       z     vdW  Elec       q    Type
REMARK                         _______ _______ _______ _____ _____    ______ ____
ROOT
ATOM      1  C   UNL     1       6.913  -4.888  22.929  0.00  0.00    +0.115 C 
ATOM      2  C   UNL     1       6.700  -3.599  22.128  0.00  0.00    +0.183 C 
ATOM      3  C   UNL     1       7.014  -2.479  23.133  0.00  0.00    +0.252 C 
ATOM      4  O   UNL     1       7.533  -3.086  24.338  0.00  0.00    -0.347 OA
ATOM      5  C   UNL     1       7.868  -4.451  24.043  0.00  0.00    +0.166 C 
ENDROOT
BRANCH   3   6
ATOM      6  N   UNL     1       7.980  -1.511  22.634  0.00  0.00    -0.286 N 
ATOM      7  C   UNL     1       7.852  -0.148  22.710  0.00  0.00    +0.167 A 
ATOM      8  N   UNL     1       6.809   0.557  23.183  0.00  0.00    -0.216 NA
ATOM      9  C   UNL     1       7.052   1.885  23.081  0.00  0.00    +0.225 A 
ATOM     10  N   UNL     1       8.151   2.508  22.601  0.00  0.00    -0.219 NA
ATOM     11  C   UNL     1       9.179   1.747  22.160  0.00  0.00    +0.147 A 
ATOM     12  N   UNL     1      10.320   2.383  21.690  0.00  0.00    -0.341 N 
ATOM     13  H   UNL     1      10.889   1.802  21.084  0.00  0.00    +0.144 HD
ATOM     14  H   UNL     1      10.147   3.338  21.407  0.00  0.00    +0.144 HD
ATOM     15  C   UNL     1       9.034   0.349  22.188  0.00  0.00    +0.147 A 
ATOM     16  N   UNL     1       9.859  -0.675  21.771  0.00  0.00    -0.231 NA
ATOM     17  C   UNL     1       9.200  -1.774  22.068  0.00  0.00    +0.203 A 
ENDBRANCH   3   6
BRANCH   1  18
ATOM     18  N   UNL     1       7.405  -5.997  22.102  0.00  0.00    -0.323 NA
ATOM     19  H   UNL     1       7.207  -6.899  22.537  0.00  0.00    +0.119 HD
ATOM     20  H   UNL     1       6.900  -6.003  21.213  0.00  0.00    +0.119 HD
ENDBRANCH   1  18
BRANCH   2  21
ATOM     21  O   UNL     1       5.344  -3.517  21.669  0.00  0.00    -0.386 OA
ATOM     22  H   UNL     1       5.297  -2.767  21.047  0.00  0.00    +0.210 HD
ENDBRANCH   2  21
BRANCH   5  23
ATOM     23  C   UNL     1       7.779  -5.284  25.326  0.00  0.00    +0.205 C 
BRANCH  23  24
ATOM     24  O   UNL     1       6.436  -5.594  25.654  0.00  0.00    -0.284 OA
BRANCH  24  25
ATOM     25  P   UNL     1       6.024  -5.529  27.249  0.00  0.00    +0.483 P 
ATOM     26  O   UNL     1       5.637  -6.953  27.643  0.00  0.00    -0.227 OA
BRANCH  25  27
ATOM     27  O   UNL     1       7.655  -5.933  27.659  0.00  0.00    -0.302 OA
ATOM     28  H   UNL     1       8.168  -5.543  26.922  0.00  0.00    +0.222 HD
ENDBRANCH  25  27
BRANCH  25  29
ATOM     29  O   UNL     1       4.393  -5.125  26.839  0.00  0.00    -0.186 OA
BRANCH  29  30
ATOM     30  P   UNL     1       4.047  -3.730  26.180  0.00  0.00    +0.481 P 
ATOM     31  O   UNL     1       2.906  -2.957  26.734  0.00  0.00    -0.227 OA
BRANCH  30  32
ATOM     32  O   UNL     1       4.156  -3.925  24.606  0.00  0.00    -0.302 OA
ATOM     33  H   UNL     1       3.505  -4.574  24.283  0.00  0.00    +0.222 HD
ENDBRANCH  30  32
BRANCH  30  34
ATOM     34  O   UNL     1       5.443  -2.972  26.416  0.00  0.00    -0.302 OA
ATOM     35  H   UNL     1       6.173  -3.597  26.578  0.00  0.00    +0.222 HD
ENDBRANCH  30  34
ENDBRANCH  29  30
ENDBRANCH  25  29
ENDBRANCH  24  25
ENDBRANCH  23  24
ENDBRANCH   5  23
TORSDOF 11
ENDMDL
MODEL 4
REMARK VINA RESULT:      -6.9      4.697      8.219
REMARK  Name = 
REMARK  11 active torsions:
REMARK  status: ('A' for Active; 'I' for Inactive)
REMARK    1  A    between atoms: N_1  and  C_2
REMARK    2  A    between atoms: C_4  and  C_6
REMARK    3  A    between atoms: C_6  and  O_7
REMARK    4  A    between atoms: O_7  and  P_8
REMARK    5  A    between atoms: P_8  and  O_9
REMARK    6  A    between atoms: P_8  and  O_11
REMARK    7  A    between atoms: O_11  and  P_12
REMARK    8  A    between atoms: P_12  and  O_13
REMARK    9  A    between atoms: P_12  and  O_14
REMARK   10  A    between atoms: C_17  and  N_22
REMARK   11  A    between atoms: C_19  and  O_21
REMARK                            x       y       z     vdW  Elec       q    Type
REMARK                         _______ _______ _______ _____ _____    ______ ____
ROOT
ATOM      1  C   UNL     1       7.923  -2.324  22.868  0.00  0.00    +0.115 C 
ATOM      2  C   UNL     1       7.169  -3.627  23.153  0.00  0.00    +0.183 C 
ATOM      3  C   UNL     1       8.179  -4.479  23.937  0.00  0.00    +0.252 C 
ATOM      4  O   UNL     1       9.335  -3.660  24.224  0.00  0.00    -0.347 OA
ATOM      5  C   UNL     1       8.986  -2.290  23.970  0.00  0.00    +0.166 C 
ENDROOT
BRANCH   3   6
ATOM      6  N   UNL     1       7.645  -5.004  25.186  0.00  0.00    -0.286 N 
ATOM      7  C   UNL     1       6.450  -5.662  25.326  0.00  0.00    +0.167 A 
ATOM      8  N   UNL     1       5.521  -5.893  24.382  0.00  0.00    -0.216 NA
ATOM      9  C   UNL     1       4.470  -6.566  24.909  0.00  0.00    +0.225 A 
ATOM     10  N   UNL     1       4.295  -6.998  26.177  0.00  0.00    -0.219 NA
ATOM     11  C   UNL     1       5.274  -6.757  27.079  0.00  0.00    +0.147 A 
ATOM     12  N   UNL     1       5.110  -7.221  28.377  0.00  0.00    -0.341 N 
ATOM     13  H   UNL     1       5.686  -6.739  29.058  0.00  0.00    +0.144 HD
ATOM     14  H   UNL     1       4.141  -7.392  28.611  0.00  0.00    +0.144 HD
ATOM     15  C   UNL     1       6.406  -6.038  26.658  0.00  0.00    +0.147 A 
ATOM     16  N   UNL     1       7.527  -5.599  27.332  0.00  0.00    -0.231 NA
ATOM     17  C   UNL     1       8.252  -4.996  26.414  0.00  0.00    +0.203 A 
ENDBRANCH   3   6
BRANCH   1  18
ATOM     18  N   UNL     1       7.041  -1.151  22.835  0.00  0.00    -0.323 NA
ATOM     19  H   UNL     1       6.696  -0.973  21.891  0.00  0.00    +0.119 HD
ATOM     20  H   UNL     1       6.209  -1.341  23.399  0.00  0.00    +0.119 HD
ENDBRANCH   1  18
BRANCH   2  21
ATOM     21  O   UNL     1       6.796  -4.265  21.925  0.00  0.00    -0.386 OA
ATOM     22  H   UNL     1       7.140  -5.177  21.960  0.00  0.00    +0.210 HD
ENDBRANCH   2  21
BRANCH   5  23
ATOM     23  C   UNL     1      10.251  -1.503  23.614  0.00  0.00    +0.205 C 
BRANCH  23  24
ATOM     24  O   UNL     1       9.940  -0.223  23.093  0.00  0.00    -0.284 OA
BRANCH  24  25
ATOM     25  P   UNL     1       9.859   1.022  24.173  0.00  0.00    +0.483 P 
ATOM     26  O   UNL     1       9.135   0.470  25.398  0.00  0.00    -0.227 OA
BRANCH  25  27
ATOM     27  O   UNL     1      11.335   0.467  24.882  0.00  0.00    -0.302 OA
ATOM     28  H   UNL     1      12.009   0.738  24.224  0.00  0.00    +0.222 HD
ENDBRANCH  25  27
BRANCH  25  29
ATOM     29  O   UNL     1       8.382   1.576  23.462  0.00  0.00    -0.186 OA
BRANCH  29  30
ATOM     30  P   UNL     1       8.380   2.284  22.049  0.00  0.00    +0.481 P 
ATOM     31  O   UNL     1       7.525   3.484  21.868  0.00  0.00    -0.227 OA
BRANCH  30  32
ATOM     32  O   UNL     1       8.334   1.129  20.957  0.00  0.00    -0.302 OA
ATOM     33  H   UNL     1       9.154   0.605  20.961  0.00  0.00    +0.222 HD
ENDBRANCH  30  32
BRANCH  30  34
ATOM     34  O   UNL     1       9.940   2.649  21.933  0.00  0.00    -0.302 OA
ATOM     35  H   UNL     1      10.191   3.369  22.541  0.00  0.00    +0.222 HD
ENDBRANCH  30  34
ENDBRANCH  29  30
ENDBRANCH  25  29
ENDBRANCH  24  25
ENDBRANCH  23  24
ENDBRANCH   5  23
TORSDOF 11
ENDMDL
MODEL 5
REMARK VINA RESULT:      -6.8      4.859      8.347
REMARK  Name = 
REMARK  11 active torsions:
REMARK  status: ('A' for Active; 'I' for Inactive)
REMARK    1  A    between atoms: N_1  and  C_2
REMARK    2  A    between atoms: C_4  and  C_6
REMARK    3  A    between atoms: C_6  and  O_7
REMARK    4  A    between atoms: O_7  and  P_8
REMARK    5  A    between atoms: P_8  and  O_9
REMARK    6  A    between atoms: P_8  and  O_11
REMARK    7  A    between atoms: O_11  and  P_12
REMARK    8  A    between atoms: P_12  and  O_13
REMARK    9  A    between atoms: P_12  and  O_14
REMARK   10  A    between atoms: C_17  and  N_22
REMARK   11  A    between atoms: C_19  and  O_21
REMARK                            x       y       z     vdW  Elec       q    Type
REMARK                         _______ _______ _______ _____ _____    ______ ____
ROOT
ATOM      1  C   UNL     1       9.105  -4.613  25.498  0.00  0.00    +0.115 C 
ATOM      2  C   UNL     1       7.770  -5.255  25.891  0.00  0.00    +0.183 C 
ATOM      3  C   UNL     1       6.714  -4.352  25.236  0.00  0.00    +0.252 C 
ATOM      4  O   UNL     1       7.398  -3.392  24.398  0.00  0.00    -0.347 OA
ATOM      5  C   UNL     1       8.754  -3.832  24.228  0.00  0.00    +0.166 C 
ENDROOT
BRANCH   3   6
ATOM      6  N   UNL     1       5.748  -5.084  24.430  0.00  0.00    -0.286 N 
ATOM      7  C   UNL     1       4.807  -5.957  24.913  0.00  0.00    +0.167 A 
ATOM      8  N   UNL     1       4.631  -6.358  26.185  0.00  0.00    -0.216 NA
ATOM      9  C   UNL     1       3.604  -7.236  26.265  0.00  0.00    +0.225 A 
ATOM     10  N   UNL     1       2.805  -7.694  25.275  0.00  0.00    -0.219 NA
ATOM     11  C   UNL     1       3.014  -7.238  24.019  0.00  0.00    +0.147 A 
ATOM     12  N   UNL     1       2.181  -7.685  23.003  0.00  0.00    -0.341 N 
ATOM     13  H   UNL     1       2.579  -7.585  22.076  0.00  0.00    +0.144 HD
ATOM     14  H   UNL     1       1.721  -8.557  23.231  0.00  0.00    +0.144 HD
ATOM     15  C   UNL     1       4.075  -6.341  23.803  0.00  0.00    +0.147 A 
ATOM     16  N   UNL     1       4.567  -5.748  22.658  0.00  0.00    -0.231 NA
ATOM     17  C   UNL     1       5.559  -4.992  23.076  0.00  0.00    +0.203 A 
ENDBRANCH   3   6
BRANCH   1  18
ATOM     18  N   UNL     1      10.183  -5.597  25.331  0.00  0.00    -0.323 NA
ATOM     19  H   UNL     1      10.906  -5.250  24.700  0.00  0.00    +0.119 HD
ATOM     20  H   UNL     1      10.648  -5.741  26.230  0.00  0.00    +0.119 HD
ENDBRANCH   1  18
BRANCH   2  21
ATOM     21  O   UNL     1       7.627  -5.269  27.317  0.00  0.00    -0.386 OA
ATOM     22  H   UNL     1       7.301  -4.388  27.581  0.00  0.00    +0.210 HD
ENDBRANCH   2  21
BRANCH   5  23
ATOM     23  C   UNL     1       9.650  -2.620  23.954  0.00  0.00    +0.205 C 
BRANCH  23  24
ATOM     24  O   UNL     1       8.891  -1.486  23.576  0.00  0.00    -0.284 OA
BRANCH  24  25
ATOM     25  P   UNL     1       9.569  -0.472  22.465  0.00  0.00    +0.483 P 
ATOM     26  O   UNL     1      10.721   0.228  23.181  0.00  0.00    -0.227 OA
BRANCH  25  27
ATOM     27  O   UNL     1      10.683  -1.724  22.042  0.00  0.00    -0.302 OA
ATOM     28  H   UNL     1      11.371  -1.243  21.536  0.00  0.00    +0.222 HD
ENDBRANCH  25  27
BRANCH  25  29
ATOM     29  O   UNL     1       8.453   0.781  22.889  0.00  0.00    -0.186 OA
BRANCH  29  30
ATOM     30  P   UNL     1       8.695   2.272  22.422  0.00  0.00    +0.481 P 
ATOM     31  O   UNL     1       7.515   3.087  22.039  0.00  0.00    -0.227 OA
BRANCH  30  32
ATOM     32  O   UNL     1       9.966   2.252  21.466  0.00  0.00    -0.302 OA
ATOM     33  H   UNL     1      10.446   3.099  21.498  0.00  0.00    +0.222 HD
ENDBRANCH  30  32
BRANCH  30  34
ATOM     34  O   UNL     1       9.408   2.849  23.741  0.00  0.00    -0.302 OA
ATOM     35  H   UNL     1       8.869   2.703  24.539  0.00  0.00    +0.222 HD
ENDBRANCH  30  34
ENDBRANCH  29  30
ENDBRANCH  25  29
ENDBRANCH  24  25
ENDBRANCH  23  24
ENDBRANCH   5  23
TORSDOF 11
ENDMDL
MODEL 6
REMARK VINA RESULT:      -6.8      4.377      8.154
REMARK  Name = 
REMARK  11 active torsions:
REMARK  status: ('A' for Active; 'I' for Inactive)
REMARK    1  A    between atoms: N_1  and  C_2
REMARK    2  A    between atoms: C_4  and  C_6
REMARK    3  A    between atoms: C_6  and  O_7
REMARK    4  A    between atoms: O_7  and  P_8
REMARK    5  A    between atoms: P_8  and  O_9
REMARK    6  A    between atoms: P_8  and  O_11
REMARK    7  A    between atoms: O_11  and  P_12
REMARK    8  A    between atoms: P_12  and  O_13
REMARK    9  A    between atoms: P_12  and  O_14
REMARK   10  A    between atoms: C_17  and  N_22
REMARK   11  A    between atoms: C_19  and  O_21
REMARK                            x       y       z     vdW  Elec       q    Type
REMARK                         _______ _______ _______ _____ _____    ______ ____
ROOT
ATOM      1  C   UNL     1       9.493  -3.066  24.636  0.00  0.00    +0.115 C 
ATOM      2  C   UNL     1       9.148  -4.541  24.869  0.00  0.00    +0.183 C 
ATOM      3  C   UNL     1       8.391  -4.539  26.207  0.00  0.00    +0.252 C 
ATOM      4  O   UNL     1       8.172  -3.166  26.601  0.00  0.00    -0.347 OA
ATOM      5  C   UNL     1       8.441  -2.327  25.467  0.00  0.00    +0.166 C 
ENDROOT
BRANCH   3   6
ATOM      6  N   UNL     1       7.109  -5.226  26.145  0.00  0.00    -0.286 N 
ATOM      7  C   UNL     1       6.470  -5.817  27.206  0.00  0.00    +0.167 A 
ATOM      8  N   UNL     1       6.915  -5.941  28.469  0.00  0.00    -0.216 NA
ATOM      9  C   UNL     1       6.003  -6.597  29.227  0.00  0.00    +0.225 A 
ATOM     10  N   UNL     1       4.795  -7.080  28.864  0.00  0.00    -0.219 NA
ATOM     11  C   UNL     1       4.391  -6.905  27.585  0.00  0.00    +0.147 A 
ATOM     12  N   UNL     1       3.139  -7.378  27.214  0.00  0.00    -0.341 N 
ATOM     13  H   UNL     1       3.038  -7.520  26.215  0.00  0.00    +0.144 HD
ATOM     14  H   UNL     1       2.795  -8.099  27.834  0.00  0.00    +0.144 HD
ATOM     15  C   UNL     1       5.266  -6.263  26.691  0.00  0.00    +0.147 A 
ATOM     16  N   UNL     1       5.171  -5.985  25.344  0.00  0.00    -0.231 NA
ATOM     17  C   UNL     1       6.287  -5.351  25.056  0.00  0.00    +0.203 A 
ENDBRANCH   3   6
BRANCH   1  18
ATOM     18  N   UNL     1       9.513  -2.704  23.213  0.00  0.00    -0.323 NA
ATOM     19  H   UNL     1       8.630  -2.942  22.759  0.00  0.00    +0.119 HD
ATOM     20  H   UNL     1       9.602  -1.689  23.126  0.00  0.00    +0.119 HD
ENDBRANCH   1  18
BRANCH   2  21
ATOM     21  O   UNL     1      10.344  -5.325  24.952  0.00  0.00    -0.386 OA
ATOM     22  H   UNL     1      10.208  -6.116  24.397  0.00  0.00    +0.210 HD
ENDBRANCH   2  21
BRANCH   5  23
ATOM     23  C   UNL     1       8.869  -0.939  25.953  0.00  0.00    +0.205 C 
BRANCH  23  24
ATOM     24  O   UNL     1       9.106  -0.057  24.870  0.00  0.00    -0.284 OA
BRANCH  24  25
ATOM     25  P   UNL     1       8.136   1.273  24.765  0.00  0.00    +0.483 P 
ATOM     26  O   UNL     1       6.709   0.745  24.644  0.00  0.00    -0.227 OA
BRANCH  25  27
ATOM     27  O   UNL     1       7.933   1.228  26.481  0.00  0.00    -0.302 OA
ATOM     28  H   UNL     1       7.056   0.805  26.587  0.00  0.00    +0.222 HD
ENDBRANCH  25  27
BRANCH  25  29
ATOM     29  O   UNL     1       8.340   1.318  23.047  0.00  0.00    -0.186 OA
BRANCH  29  30
ATOM     30  P   UNL     1       9.755   1.057  22.393  0.00  0.00    +0.481 P 
ATOM     31  O   UNL     1       9.947  -0.193  21.615  0.00  0.00    -0.227 OA
BRANCH  30  32
ATOM     32  O   UNL     1      10.844   1.469  23.476  0.00  0.00    -0.302 OA
ATOM     33  H   UNL     1      11.071   0.719  24.054  0.00  0.00    +0.222 HD
ENDBRANCH  30  32
BRANCH  30  34
ATOM     34  O   UNL     1       9.858   2.357  21.456  0.00  0.00    -0.302 OA
ATOM     35  H   UNL     1       9.039   2.885  21.475  0.00  0.00    +0.222 HD
ENDBRANCH  30  34
ENDBRANCH  29  30
ENDBRANCH  25  29
ENDBRANCH  24  25
ENDBRANCH  23  24
ENDBRANCH   5  23
TORSDOF 11
ENDMDL
MODEL 7
REMARK VINA RESULT:      -6.7      4.337      7.619
REMARK  Name = 
REMARK  11 active torsions:
REMARK  status: ('A' for Active; 'I' for Inactive)
REMARK    1  A    between atoms: N_1  and  C_2
REMARK    2  A    between atoms: C_4  and  C_6
REMARK    3  A    between atoms: C_6  and  O_7
REMARK    4  A    between atoms: O_7  and  P_8
REMARK    5  A    between atoms: P_8  and  O_9
REMARK    6  A    between atoms: P_8  and  O_11
REMARK    7  A    between atoms: O_11  and  P_12
REMARK    8  A    between atoms: P_12  and  O_13
REMARK    9  A    between atoms: P_12  and  O_14
REMARK   10  A    between atoms: C_17  and  N_22
REMARK   11  A    between atoms: C_19  and  O_21
REMARK                            x       y       z     vdW  Elec       q    Type
REMARK                         _______ _______ _______ _____ _____    ______ ____
ROOT
ATOM      1  C   UNL     1       9.267  -2.842  24.298  0.00  0.00    +0.115 C 
ATOM      2  C   UNL     1       9.133  -4.286  24.793  0.00  0.00    +0.183 C 
ATOM      3  C   UNL     1       8.580  -4.142  26.219  0.00  0.00    +0.252 C 
ATOM      4  O   UNL     1       8.261  -2.750  26.442  0.00  0.00    -0.347 OA
ATOM      5  C   UNL     1       8.265  -2.081  25.171  0.00  0.00    +0.166 C 
ENDROOT
BRANCH   3   6
ATOM      6  N   UNL     1       7.392  -4.947  26.461  0.00  0.00    -0.286 N 
ATOM      7  C   UNL     1       6.509  -5.372  25.501  0.00  0.00    +0.167 A 
ATOM      8  N   UNL     1       6.520  -5.084  24.187  0.00  0.00    -0.216 NA
ATOM      9  C   UNL     1       5.475  -5.682  23.565  0.00  0.00    +0.225 A 
ATOM     10  N   UNL     1       4.520  -6.477  24.095  0.00  0.00    -0.219 NA
ATOM     11  C   UNL     1       4.574  -6.751  25.419  0.00  0.00    +0.147 A 
ATOM     12  N   UNL     1       3.609  -7.588  25.963  0.00  0.00    -0.341 N 
ATOM     13  H   UNL     1       3.501  -7.486  26.966  0.00  0.00    +0.144 HD
ATOM     14  H   UNL     1       2.773  -7.639  25.397  0.00  0.00    +0.144 HD
ATOM     15  C   UNL     1       5.599  -6.163  26.180  0.00  0.00    +0.147 A 
ATOM     16  N   UNL     1       5.889  -6.204  27.528  0.00  0.00    -0.231 NA
ATOM     17  C   UNL     1       6.978  -5.476  27.656  0.00  0.00    +0.203 A 
ENDBRANCH   3   6
BRANCH   1  18
ATOM     18  N   UNL     1       9.041  -2.712  22.853  0.00  0.00    -0.323 NA
ATOM     19  H   UNL     1       8.865  -1.741  22.591  0.00  0.00    +0.119 HD
ATOM     20  H   UNL     1       9.893  -2.981  22.355  0.00  0.00    +0.119 HD
ENDBRANCH   1  18
BRANCH   2  21
ATOM     21  O   UNL     1      10.413  -4.931  24.796  0.00  0.00    -0.386 OA
ATOM     22  H   UNL     1      10.883  -4.631  25.597  0.00  0.00    +0.210 HD
ENDBRANCH   2  21
BRANCH   5  23
ATOM     23  C   UNL     1       8.592  -0.599  25.378  0.00  0.00    +0.205 C 
BRANCH  23  24
ATOM     24  O   UNL     1       7.438   0.212  25.255  0.00  0.00    -0.284 OA
BRANCH  24  25
ATOM     25  P   UNL     1       7.116   0.828  23.759  0.00  0.00    +0.483 P 
ATOM     26  O   UNL     1       6.925  -0.376  22.839  0.00  0.00    -0.227 OA
BRANCH  25  27
ATOM     27  O   UNL     1       5.426   0.736  24.114  0.00  0.00    -0.302 OA
ATOM     28  H   UNL     1       5.027   0.569  23.235  0.00  0.00    +0.222 HD
ENDBRANCH  25  27
BRANCH  25  29
ATOM     29  O   UNL     1       8.806   0.920  23.403  0.00  0.00    -0.186 OA
BRANCH  29  30
ATOM     30  P   UNL     1       9.316   1.002  21.909  0.00  0.00    +0.481 P 
ATOM     31  O   UNL     1       9.674  -0.263  21.220  0.00  0.00    -0.227 OA
BRANCH  30  32
ATOM     32  O   UNL     1      10.317   2.235  21.832  0.00  0.00    -0.302 OA
ATOM     33  H   UNL     1       9.852   3.079  21.971  0.00  0.00    +0.222 HD
ENDBRANCH  30  32
BRANCH  30  34
ATOM     34  O   UNL     1       8.038   1.701  21.232  0.00  0.00    -0.302 OA
ATOM     35  H   UNL     1       8.296   2.382  20.584  0.00  0.00    +0.222 HD
ENDBRANCH  30  34
ENDBRANCH  29  30
ENDBRANCH  25  29
ENDBRANCH  24  25
ENDBRANCH  23  24
ENDBRANCH   5  23
TORSDOF 11
ENDMDL
MODEL 8
REMARK VINA RESULT:      -6.7      3.042      4.722
REMARK  Name = 
REMARK  11 active torsions:
REMARK  status: ('A' for Active; 'I' for Inactive)
REMARK    1  A    between atoms: N_1  and  C_2
REMARK    2  A    between atoms: C_4  and  C_6
REMARK    3  A    between atoms: C_6  and  O_7
REMARK    4  A    between atoms: O_7  and  P_8
REMARK    5  A    between atoms: P_8  and  O_9
REMARK    6  A    between atoms: P_8  and  O_11
REMARK    7  A    between atoms: O_11  and  P_12
REMARK    8  A    between atoms: P_12  and  O_13
REMARK    9  A    between atoms: P_12  and  O_14
REMARK   10  A    between atoms: C_17  and  N_22
REMARK   11  A    between atoms: C_19  and  O_21
REMARK                            x       y       z     vdW  Elec       q    Type
REMARK                         _______ _______ _______ _____ _____    ______ ____
ROOT
ATOM      1  C   UNL     1       9.002  -1.083  24.710  0.00  0.00    +0.115 C 
ATOM      2  C   UNL     1       9.270   0.425  24.653  0.00  0.00    +0.183 C 
ATOM      3  C   UNL     1       9.282   0.745  23.150  0.00  0.00    +0.252 C 
ATOM      4  O   UNL     1       8.879  -0.443  22.431  0.00  0.00    -0.347 OA
ATOM      5  C   UNL     1       8.308  -1.363  23.374  0.00  0.00    +0.166 C 
ENDROOT
BRANCH   3   6
ATOM      6  N   UNL     1       8.400   1.844  22.787  0.00  0.00    -0.286 N 
ATOM      7  C   UNL     1       8.618   3.168  23.072  0.00  0.00    +0.167 A 
ATOM      8  N   UNL     1       9.626   3.702  23.784  0.00  0.00    -0.216 NA
ATOM      9  C   UNL     1       9.491   5.048  23.856  0.00  0.00    +0.225 A 
ATOM     10  N   UNL     1       8.530   5.830  23.317  0.00  0.00    -0.219 NA
ATOM     11  C   UNL     1       7.554   5.239  22.590  0.00  0.00    +0.147 A 
ATOM     12  N   UNL     1       6.579   6.041  22.013  0.00  0.00    -0.341 N 
ATOM     13  H   UNL     1       5.726   5.543  21.783  0.00  0.00    +0.144 HD
ATOM     14  H   UNL     1       6.496   6.942  22.465  0.00  0.00    +0.144 HD
ATOM     15  C   UNL     1       7.569   3.839  22.467  0.00  0.00    +0.147 A 
ATOM     16  N   UNL     1       6.707   2.955  21.851  0.00  0.00    -0.231 NA
ATOM     17  C   UNL     1       7.245   1.772  22.051  0.00  0.00    +0.203 A 
ENDBRANCH   3   6
BRANCH   1  18
ATOM     18  N   UNL     1       8.231  -1.480  25.895  0.00  0.00    -0.323 NA
ATOM     19  H   UNL     1       7.978  -0.669  26.461  0.00  0.00    +0.119 HD
ATOM     20  H   UNL     1       7.344  -1.892  25.594  0.00  0.00    +0.119 HD
ENDBRANCH   1  18
BRANCH   2  21
ATOM     21  O   UNL     1      10.533   0.729  25.258  0.00  0.00    -0.386 OA
ATOM     22  H   UNL     1      10.812   1.600  24.917  0.00  0.00    +0.210 HD
ENDBRANCH   2  21
BRANCH   5  23
ATOM     23  C   UNL     1       8.478  -2.794  22.853  0.00  0.00    +0.205 C 
BRANCH  23  24
ATOM     24  O   UNL     1       8.476  -3.738  23.909  0.00  0.00    -0.284 OA
BRANCH  24  25
ATOM     25  P   UNL     1       7.205  -4.786  23.970  0.00  0.00    +0.483 P 
ATOM     26  O   UNL     1       5.968  -3.971  23.598  0.00  0.00    -0.227 OA
BRANCH  25  27
ATOM     27  O   UNL     1       7.418  -5.102  22.284  0.00  0.00    -0.302 OA
ATOM     28  H   UNL     1       6.500  -5.097  21.943  0.00  0.00    +0.222 HD
ENDBRANCH  25  27
BRANCH  25  29
ATOM     29  O   UNL     1       6.991  -4.469  25.658  0.00  0.00    -0.186 OA
BRANCH  29  30
ATOM     30  P   UNL     1       7.951  -5.123  26.731  0.00  0.00    +0.481 P 
ATOM     31  O   UNL     1       7.337  -5.855  27.868  0.00  0.00    -0.227 OA
BRANCH  30  32
ATOM     32  O   UNL     1       9.101  -4.064  27.024  0.00  0.00    -0.302 OA
ATOM     33  H   UNL     1       9.862  -4.195  26.431  0.00  0.00    +0.222 HD
ENDBRANCH  30  32
BRANCH  30  34
ATOM     34  O   UNL     1       8.784  -6.109  25.775  0.00  0.00    -0.302 OA
ATOM     35  H   UNL     1       9.575  -6.464  26.221  0.00  0.00    +0.222 HD
ENDBRANCH  30  34
ENDBRANCH  29  30
ENDBRANCH  25  29
ENDBRANCH  24  25
ENDBRANCH  23  24
ENDBRANCH   5  23
TORSDOF 11
ENDMDL
MODEL 9
REMARK VINA RESULT:      -6.6      1.939      2.573
REMARK  Name = 
REMARK  11 active torsions:
REMARK  status: ('A' for Active; 'I' for Inactive)
REMARK    1  A    between atoms: N_1  and  C_2
REMARK    2  A    between atoms: C_4  and  C_6
REMARK    3  A    between atoms: C_6  and  O_7
REMARK    4  A    between atoms: O_7  and  P_8
REMARK    5  A    between atoms: P_8  and  O_9
REMARK    6  A    between atoms: P_8  and  O_11
REMARK    7  A    between atoms: O_11  and  P_12
REMARK    8  A    between atoms: P_12  and  O_13
REMARK    9  A    between atoms: P_12  and  O_14
REMARK   10  A    between atoms: C_17  and  N_22
REMARK   11  A    between atoms: C_19  and  O_21
REMARK                            x       y       z     vdW  Elec       q    Type
REMARK                         _______ _______ _______ _____ _____    ______ ____
ROOT
ATOM      1  C   UNL     1       7.841  -5.347  25.961  0.00  0.00    +0.115 C 
ATOM      2  C   UNL     1       9.034  -4.600  25.352  0.00  0.00    +0.183 C 
ATOM      3  C   UNL     1       8.394  -3.633  24.345  0.00  0.00    +0.252 C 
ATOM      4  O   UNL     1       6.958  -3.701  24.502  0.00  0.00    -0.347 OA
ATOM      5  C   UNL     1       6.675  -4.380  25.735  0.00  0.00    +0.166 C 
ENDROOT
BRANCH   3   6
ATOM      6  N   UNL     1       8.827  -2.254  24.514  0.00  0.00    -0.286 N 
ATOM      7  C   UNL     1       9.164  -1.395  23.499  0.00  0.00    +0.167 A 
ATOM      8  N   UNL     1       9.230  -1.661  22.183  0.00  0.00    -0.216 NA
ATOM      9  C   UNL     1       9.612  -0.557  21.497  0.00  0.00    +0.225 A 
ATOM     10  N   UNL     1       9.894   0.677  21.972  0.00  0.00    -0.219 NA
ATOM     11  C   UNL     1       9.788   0.892  23.304  0.00  0.00    +0.147 A 
ATOM     12  N   UNL     1      10.052   2.163  23.793  0.00  0.00    -0.341 N 
ATOM     13  H   UNL     1      10.282   2.180  24.781  0.00  0.00    +0.144 HD
ATOM     14  H   UNL     1      10.621   2.714  23.164  0.00  0.00    +0.144 HD
ATOM     15  C   UNL     1       9.427  -0.189  24.127  0.00  0.00    +0.147 A 
ATOM     16  N   UNL     1       9.286  -0.304  25.495  0.00  0.00    -0.231 NA
ATOM     17  C   UNL     1       8.912  -1.550  25.687  0.00  0.00    +0.203 A 
ENDBRANCH   3   6
BRANCH   1  18
ATOM     18  N   UNL     1       8.061  -5.722  27.364  0.00  0.00    -0.323 NA
ATOM     19  H   UNL     1       7.256  -6.223  27.743  0.00  0.00    +0.119 HD
ATOM     20  H   UNL     1       8.843  -6.379  27.416  0.00  0.00    +0.119 HD
ENDBRANCH   1  18
BRANCH   2  21
ATOM     21  O   UNL     1       9.915  -5.522  24.698  0.00  0.00    -0.386 OA
ATOM     22  H   UNL     1       9.698  -6.413  25.032  0.00  0.00    +0.210 HD
ENDBRANCH   2  21
BRANCH   5  23
ATOM     23  C   UNL     1       5.300  -5.047  25.642  0.00  0.00    +0.205 C 
BRANCH  23  24
ATOM     24  O   UNL     1       4.665  -4.764  24.409  0.00  0.00    -0.284 OA
BRANCH  24  25
ATOM     25  P   UNL     1       4.769  -5.917  23.234  0.00  0.00    +0.483 P 
ATOM     26  O   UNL     1       3.392  -5.974  22.576  0.00  0.00    -0.227 OA
BRANCH  25  27
ATOM     27  O   UNL     1       5.185  -4.683  22.097  0.00  0.00    -0.302 OA
ATOM     28  H   UNL     1       6.164  -4.676  22.131  0.00  0.00    +0.222 HD
ENDBRANCH  25  27
BRANCH  25  29
ATOM     29  O   UNL     1       4.353  -7.152  24.372  0.00  0.00    -0.186 OA
BRANCH  29  30
ATOM     30  P   UNL     1       2.840  -7.508  24.663  0.00  0.00    +0.481 P 
ATOM     31  O   UNL     1       2.188  -8.540  23.817  0.00  0.00    -0.227 OA
BRANCH  30  32
ATOM     32  O   UNL     1       2.087  -6.132  24.924  0.00  0.00    -0.302 OA
ATOM     33  H   UNL     1       2.292  -5.778  25.808  0.00  0.00    +0.222 HD
ENDBRANCH  30  32
BRANCH  30  34
ATOM     34  O   UNL     1       2.971  -7.993  26.189  0.00  0.00    -0.302 OA
ATOM     35  H   UNL     1       3.695  -7.536  26.654  0.00  0.00    +0.222 HD
ENDBRANCH  30  34
ENDBRANCH  29  30
ENDBRANCH  25  29
ENDBRANCH  24  25
ENDBRANCH  23  24
ENDBRANCH   5  23
TORSDOF 11
ENDMDL
