MODEL 1
REMARK VINA RESULT:      -7.0      0.000      0.000
REMARK  Name = 
REMARK  24 active torsions:
REMARK  status: ('A' for Active; 'I' for Inactive)
REMARK    1  A    between atoms: C_1  and  C_2
REMARK    2  A    between atoms: C_2  and  C_3
REMARK    3  A    between atoms: C_2  and  C_4
REMARK    4  A    between atoms: C_2  and  C_36
REMARK    5  A    between atoms: C_4  and  O_5
REMARK    6  A    between atoms: O_5  and  P_6
REMARK    7  A    between atoms: P_6  and  O_7
REMARK    8  A    between atoms: P_6  and  O_9
REMARK    9  A    between atoms: O_9  and  P_10
REMARK   10  A    between atoms: P_10  and  O_11
REMARK   11  A    between atoms: P_10  and  O_13
REMARK   12  A    between atoms: O_13  and  C_14
REMARK   13  A    between atoms: C_14  and  C_15
REMARK   14  A    between atoms: C_18  and  N_26
REMARK   15  A    between atoms: C_20  and  O_22
REMARK   16  A    between atoms: C_23  and  O_25
REMARK   17  A    between atoms: C_36  and  O_38
REMARK   18  A    between atoms: C_36  and  C_39
REMARK   19  A    between atoms: N_41  and  C_42
REMARK   20  A    between atoms: C_42  and  C_43
REMARK   21  A    between atoms: C_43  and  C_44
REMARK   22  A    between atoms: N_46  and  C_47
REMARK   23  A    between atoms: C_47  and  C_48
REMARK   24  A    between atoms: C_48  and  S_49
REMARK                            x       y       z     vdW  Elec       q    Type
REMARK                         _______ _______ _______ _____ _____    ______ ____
ROOT
ATOM      1  O   UNL     1       6.903  -4.852  25.603  0.00  0.00    -0.186 OA
ENDROOT
BRANCH   1   2
ATOM      2  P   UNL     1       6.974  -5.609  27.156  0.00  0.00    +0.483 P 
ATOM      3  O   UNL     1       6.442  -4.353  27.847  0.00  0.00    -0.227 OA
BRANCH   2   4
ATOM      4  O   UNL     1       7.046  -6.367  28.710  0.00  0.00    -0.302 OA
ATOM      5  H   UNL     1       7.858  -6.914  28.644  0.00  0.00    +0.222 HD
ENDBRANCH   2   4
BRANCH   2   6
ATOM      6  O   UNL     1       5.724  -6.580  26.757  0.00  0.00    -0.286 OA
BRANCH   6   7
ATOM      7  C   UNL     1       4.494  -6.322  27.403  0.00  0.00    +0.181 C 
BRANCH   7   9
ATOM      8  C   UNL     1       2.142  -7.105  27.353  0.00  0.00    +0.016 C 
ATOM      9  C   UNL     1       3.270  -6.513  26.470  0.00  0.00    +0.024 C 
ATOM     10  C   UNL     1       2.757  -5.157  25.951  0.00  0.00    +0.016 C 
BRANCH   9  11
ATOM     11  C   UNL     1       3.614  -7.484  25.299  0.00  0.00    +0.208 C 
BRANCH  11  12
ATOM     12  C   UNL     1       3.724  -6.849  23.890  0.00  0.00    +0.242 C 
ATOM     13  N   UNL     1       5.034  -6.627  23.493  0.00  0.00    -0.313 N 
ATOM     14  H   UNL     1       5.682  -7.352  23.784  0.00  0.00    +0.149 HD
ATOM     15  O   UNL     1       2.781  -6.562  23.161  0.00  0.00    -0.273 OA
BRANCH  13  16
ATOM     16  C   UNL     1       5.278  -5.961  22.224  0.00  0.00    +0.113 C 
BRANCH  16  17
ATOM     17  C   UNL     1       6.700  -5.416  22.138  0.00  0.00    +0.114 C 
BRANCH  17  18
ATOM     18  C   UNL     1       6.686  -3.914  21.953  0.00  0.00    +0.215 C 
ATOM     19  N   UNL     1       7.876  -3.304  22.260  0.00  0.00    -0.314 N 
ATOM     20  H   UNL     1       8.593  -3.835  22.751  0.00  0.00    +0.149 HD
ATOM     21  O   UNL     1       5.713  -3.308  21.518  0.00  0.00    -0.276 OA
BRANCH  19  22
ATOM     22  C   UNL     1       8.037  -1.861  22.165  0.00  0.00    +0.114 C 
BRANCH  22  23
ATOM     23  C   UNL     1       9.500  -1.411  22.141  0.00  0.00    +0.084 C 
BRANCH  23  24
ATOM     24  S   UNL     1       9.650   0.380  21.840  0.00  0.00    -0.177 S 
ATOM     25  H   UNL     1       8.664   0.748  22.673  0.00  0.00    +0.102 HD
ENDBRANCH  23  24
ENDBRANCH  22  23
ENDBRANCH  19  22
ENDBRANCH  17  18
ENDBRANCH  16  17
ENDBRANCH  13  16
ENDBRANCH  11  12
BRANCH  11  26
ATOM     26  O   UNL     1       2.668  -8.557  25.179  0.00  0.00    -0.382 OA
ATOM     27  H   UNL     1       1.856  -8.209  24.780  0.00  0.00    +0.210 HD
ENDBRANCH  11  26
ENDBRANCH   9  11
ENDBRANCH   7   9
ENDBRANCH   6   7
ENDBRANCH   2   6
ENDBRANCH   1   2
BRANCH   1  28
ATOM     28  P   UNL     1       8.542  -4.439  25.493  0.00  0.00    +0.483 P 
ATOM     29  O   UNL     1       9.314  -5.264  24.514  0.00  0.00    -0.227 OA
BRANCH  28  30
ATOM     30  O   UNL     1       9.058  -4.753  26.981  0.00  0.00    -0.302 OA
ATOM     31  H   UNL     1       8.409  -5.254  27.508  0.00  0.00    +0.222 HD
ENDBRANCH  28  30
BRANCH  28  32
ATOM     32  O   UNL     1       8.903  -2.856  25.363  0.00  0.00    -0.284 OA
BRANCH  32  33
ATOM     33  C   UNL     1       8.327  -1.889  26.266  0.00  0.00    +0.206 C 
BRANCH  33  34
ATOM     34  C   UNL     1       7.082  -0.978  25.893  0.00  0.00    +0.178 C 
ATOM     35  C   UNL     1       6.440  -0.055  26.942  0.00  0.00    +0.178 C 
ATOM     36  C   UNL     1       6.733   1.368  26.481  0.00  0.00    +0.195 C 
ATOM     37  C   UNL     1       7.549   1.188  25.202  0.00  0.00    +0.253 C 
ATOM     38  O   UNL     1       7.320  -0.150  24.730  0.00  0.00    -0.346 OA
BRANCH  37  39
ATOM     39  N   UNL     1       7.232   2.173  24.176  0.00  0.00    -0.286 N 
ATOM     40  C   UNL     1       7.761   3.439  24.162  0.00  0.00    +0.167 A 
ATOM     41  N   UNL     1       8.568   3.991  25.087  0.00  0.00    -0.216 NA
ATOM     42  C   UNL     1       8.952   5.226  24.704  0.00  0.00    +0.225 A 
ATOM     43  N   UNL     1       8.627   5.894  23.578  0.00  0.00    -0.219 NA
ATOM     44  C   UNL     1       7.790   5.310  22.693  0.00  0.00    +0.147 A 
ATOM     45  N   UNL     1       7.483   6.004  21.531  0.00  0.00    -0.341 N 
ATOM     46  H   UNL     1       7.180   5.406  20.771  0.00  0.00    +0.144 HD
ATOM     47  H   UNL     1       8.186   6.703  21.316  0.00  0.00    +0.144 HD
ATOM     48  C   UNL     1       7.317   4.014  22.981  0.00  0.00    +0.147 A 
ATOM     49  N   UNL     1       6.493   3.138  22.305  0.00  0.00    -0.231 NA
ATOM     50  C   UNL     1       6.460   2.048  23.050  0.00  0.00    +0.203 A 
ENDBRANCH  37  39
BRANCH  36  51
ATOM     51  O   UNL     1       7.477   2.083  27.483  0.00  0.00    -0.385 OA
ATOM     52  H   UNL     1       7.691   1.440  28.190  0.00  0.00    +0.210 HD
ENDBRANCH  36  51
BRANCH  35  53
ATOM     53  O   UNL     1       5.003  -0.249  26.926  0.00  0.00    -0.386 OA
ATOM     54  H   UNL     1       4.612   0.118  27.742  0.00  0.00    +0.210 HD
ENDBRANCH  35  53
ENDBRANCH  33  34
ENDBRANCH  32  33
ENDBRANCH  28  32
ENDBRANCH   1  28
TORSDOF 22
ENDMDL
MODEL 2
REMARK VINA RESULT:      -6.7      3.074      9.891
REMARK  Name = 
REMARK  24 active torsions:
REMARK  status: ('A' for Active; 'I' for Inactive)
REMARK    1  A    between atoms: C_1  and  C_2
REMARK    2  A    between atoms: C_2  and  C_3
REMARK    3  A    between atoms: C_2  and  C_4
REMARK    4  A    between atoms: C_2  and  C_36
REMARK    5  A    between atoms: C_4  and  O_5
REMARK    6  A    between atoms: O_5  and  P_6
REMARK    7  A    between atoms: P_6  and  O_7
REMARK    8  A    between atoms: P_6  and  O_9
REMARK    9  A    between atoms: O_9  and  P_10
REMARK   10  A    between atoms: P_10  and  O_11
REMARK   11  A    between atoms: P_10  and  O_13
REMARK   12  A    between atoms: O_13  and  C_14
REMARK   13  A    between atoms: C_14  and  C_15
REMARK   14  A    between atoms: C_18  and  N_26
REMARK   15  A    between atoms: C_20  and  O_22
REMARK   16  A    between atoms: C_23  and  O_25
REMARK   17  A    between atoms: C_36  and  O_38
REMARK   18  A    between atoms: C_36  and  C_39
REMARK   19  A    between atoms: N_41  and  C_42
REMARK   20  A    between atoms: C_42  and  C_43
REMARK   21  A    between atoms: C_43  and  C_44
REMARK   22  A    between atoms: N_46  and  C_47
REMARK   23  A    between atoms: C_47  and  C_48
REMARK   24  A    between atoms: C_48  and  S_49
REMARK                            x       y       z     vdW  Elec       q    Type
REMARK                         _______ _______ _______ _____ _____    ______ ____
ROOT
ATOM      1  O   UNL     1       9.086   1.739  24.791  0.00  0.00    -0.186 OA
ENDROOT
BRANCH   1   2
ATOM      2  P   UNL     1       9.684   2.021  23.193  0.00  0.00    +0.483 P 
ATOM      3  O   UNL     1       8.270   2.016  22.611  0.00  0.00    -0.227 OA
BRANCH   2   4
ATOM      4  O   UNL     1      10.284   2.303  21.595  0.00  0.00    -0.302 OA
ATOM      5  H   UNL     1      10.942   1.585  21.483  0.00  0.00    +0.222 HD
ENDBRANCH   2   4
BRANCH   2   6
ATOM      6  O   UNL     1      10.098   3.546  23.601  0.00  0.00    -0.286 OA
BRANCH   6   7
ATOM      7  C   UNL     1       9.166   4.266  24.381  0.00  0.00    +0.181 C 
BRANCH   7   9
ATOM      8  C   UNL     1       9.287   6.418  25.607  0.00  0.00    +0.016 C 
ATOM      9  C   UNL     1       9.271   5.801  24.185  0.00  0.00    +0.024 C 
ATOM     10  C   UNL     1      10.611   6.180  23.526  0.00  0.00    +0.016 C 
BRANCH   9  11
ATOM     11  C   UNL     1       8.057   6.340  23.369  0.00  0.00    +0.208 C 
BRANCH  11  12
ATOM     12  C   UNL     1       6.691   5.659  23.639  0.00  0.00    +0.242 C 
ATOM     13  N   UNL     1       6.192   4.980  22.538  0.00  0.00    -0.313 N 
ATOM     14  H   UNL     1       6.903   4.510  21.986  0.00  0.00    +0.149 HD
ATOM     15  O   UNL     1       6.081   5.682  24.702  0.00  0.00    -0.273 OA
BRANCH  13  16
ATOM     16  C   UNL     1       4.880   4.364  22.630  0.00  0.00    +0.113 C 
BRANCH  16  17
ATOM     17  C   UNL     1       4.979   2.851  22.798  0.00  0.00    +0.114 C 
BRANCH  17  18
ATOM     18  C   UNL     1       4.852   2.465  24.256  0.00  0.00    +0.215 C 
ATOM     19  N   UNL     1       6.048   2.428  24.928  0.00  0.00    -0.314 N 
ATOM     20  H   UNL     1       6.917   2.467  24.397  0.00  0.00    +0.149 HD
ATOM     21  O   UNL     1       3.772   2.257  24.796  0.00  0.00    -0.276 OA
BRANCH  19  22
ATOM     22  C   UNL     1       6.119   2.052  26.332  0.00  0.00    +0.114 C 
BRANCH  22  23
ATOM     23  C   UNL     1       6.888   3.057  27.193  0.00  0.00    +0.084 C 
BRANCH  23  24
ATOM     24  S   UNL     1       6.037   3.381  28.773  0.00  0.00    -0.177 S 
ATOM     25  H   UNL     1       5.733   4.662  28.512  0.00  0.00    +0.102 HD
ENDBRANCH  23  24
ENDBRANCH  22  23
ENDBRANCH  19  22
ENDBRANCH  17  18
ENDBRANCH  16  17
ENDBRANCH  13  16
ENDBRANCH  11  12
BRANCH  11  26
ATOM     26  O   UNL     1       8.268   6.259  21.952  0.00  0.00    -0.382 OA
ATOM     27  H   UNL     1       8.097   7.131  21.564  0.00  0.00    +0.210 HD
ENDBRANCH  11  26
ENDBRANCH   9  11
ENDBRANCH   7   9
ENDBRANCH   6   7
ENDBRANCH   2   6
ENDBRANCH   1   2
BRANCH   1  28
ATOM     28  P   UNL     1       9.172   0.047  24.754  0.00  0.00    +0.483 P 
ATOM     29  O   UNL     1      10.119  -0.492  23.730  0.00  0.00    -0.227 OA
BRANCH  28  30
ATOM     30  O   UNL     1       7.669  -0.348  24.351  0.00  0.00    -0.302 OA
ATOM     31  H   UNL     1       7.222  -0.880  25.035  0.00  0.00    +0.222 HD
ENDBRANCH  28  30
BRANCH  28  32
ATOM     32  O   UNL     1       9.327  -0.721  26.181  0.00  0.00    -0.284 OA
BRANCH  32  33
ATOM     33  C   UNL     1       8.660  -1.979  26.421  0.00  0.00    +0.206 C 
BRANCH  33  34
ATOM     34  C   UNL     1       8.709  -3.201  25.409  0.00  0.00    +0.178 C 
ATOM     35  C   UNL     1       9.157  -4.594  25.879  0.00  0.00    +0.178 C 
ATOM     36  C   UNL     1       7.919  -5.479  25.800  0.00  0.00    +0.195 C 
ATOM     37  C   UNL     1       6.817  -4.542  25.309  0.00  0.00    +0.253 C 
ATOM     38  O   UNL     1       7.456  -3.402  24.712  0.00  0.00    -0.346 OA
BRANCH  37  39
ATOM     39  N   UNL     1       5.893  -5.179  24.379  0.00  0.00    -0.286 N 
ATOM     40  C   UNL     1       4.885  -6.020  24.780  0.00  0.00    +0.167 A 
ATOM     41  N   UNL     1       4.631  -6.441  26.033  0.00  0.00    -0.216 NA
ATOM     42  C   UNL     1       3.515  -7.198  26.060  0.00  0.00    +0.225 A 
ATOM     43  N   UNL     1       2.707  -7.539  25.035  0.00  0.00    -0.219 NA
ATOM     44  C   UNL     1       3.020  -7.115  23.790  0.00  0.00    +0.147 A 
ATOM     45  N   UNL     1       2.166  -7.458  22.751  0.00  0.00    -0.341 N 
ATOM     46  H   UNL     1       2.230  -6.837  21.953  0.00  0.00    +0.144 HD
ATOM     47  H   UNL     1       1.236  -7.681  23.090  0.00  0.00    +0.144 HD
ATOM     48  C   UNL     1       4.169  -6.315  23.630  0.00  0.00    +0.147 A 
ATOM     49  N   UNL     1       4.750  -5.706  22.537  0.00  0.00    -0.231 NA
ATOM     50  C   UNL     1       5.783  -5.039  23.020  0.00  0.00    +0.203 A 
ENDBRANCH  37  39
BRANCH  36  51
ATOM     51  O   UNL     1       7.605  -6.030  27.091  0.00  0.00    -0.385 OA
ATOM     52  H   UNL     1       7.314  -6.953  26.942  0.00  0.00    +0.210 HD
ENDBRANCH  36  51
BRANCH  35  53
ATOM     53  O   UNL     1      10.144  -5.112  24.952  0.00  0.00    -0.386 OA
ATOM     54  H   UNL     1      10.876  -5.526  25.446  0.00  0.00    +0.210 HD
ENDBRANCH  35  53
ENDBRANCH  33  34
ENDBRANCH  32  33
ENDBRANCH  28  32
ENDBRANCH   1  28
TORSDOF 22
ENDMDL
MODEL 3
REMARK VINA RESULT:      -6.7      3.116      9.557
REMARK  Name = 
REMARK  24 active torsions:
REMARK  status: ('A' for Active; 'I' for Inactive)
REMARK    1  A    between atoms: C_1  and  C_2
REMARK    2  A    between atoms: C_2  and  C_3
REMARK    3  A    between atoms: C_2  and  C_4
REMARK    4  A    between atoms: C_2  and  C_36
REMARK    5  A    between atoms: C_4  and  O_5
REMARK    6  A    between atoms: O_5  and  P_6
REMARK    7  A    between atoms: P_6  and  O_7
REMARK    8  A    between atoms: P_6  and  O_9
REMARK    9  A    between atoms: O_9  and  P_10
REMARK   10  A    between atoms: P_10  and  O_11
REMARK   11  A    between atoms: P_10  and  O_13
REMARK   12  A    between atoms: O_13  and  C_14
REMARK   13  A    between atoms: C_14  and  C_15
REMARK   14  A    between atoms: C_18  and  N_26
REMARK   15  A    between atoms: C_20  and  O_22
REMARK   16  A    between atoms: C_23  and  O_25
REMARK   17  A    between atoms: C_36  and  O_38
REMARK   18  A    between atoms: C_36  and  C_39
REMARK   19  A    between atoms: N_41  and  C_42
REMARK   20  A    between atoms: C_42  and  C_43
REMARK   21  A    between atoms: C_43  and  C_44
REMARK   22  A    between atoms: N_46  and  C_47
REMARK   23  A    between atoms: C_47  and  C_48
REMARK   24  A    between atoms: C_48  and  S_49
REMARK                            x       y       z     vdW  Elec       q    Type
REMARK                         _______ _______ _______ _____ _____    ______ ____
ROOT
ATOM      1  O   UNL     1       9.042   1.733  24.614  0.00  0.00    -0.186 OA
ENDROOT
BRANCH   1   2
ATOM      2  P   UNL     1       9.752   2.007  23.060  0.00  0.00    +0.483 P 
ATOM      3  O   UNL     1       8.410   1.803  22.357  0.00  0.00    -0.227 OA
BRANCH   2   4
ATOM      4  O   UNL     1      10.464   2.279  21.507  0.00  0.00    -0.302 OA
ATOM      5  H   UNL     1      11.402   2.031  21.654  0.00  0.00    +0.222 HD
ENDBRANCH   2   4
BRANCH   2   6
ATOM      6  O   UNL     1       9.947   3.589  23.410  0.00  0.00    -0.286 OA
BRANCH   6   7
ATOM      7  C   UNL     1       9.208   4.089  24.506  0.00  0.00    +0.181 C 
BRANCH   7   9
ATOM      8  C   UNL     1       8.160   6.065  25.574  0.00  0.00    +0.016 C 
ATOM      9  C   UNL     1       8.517   5.443  24.201  0.00  0.00    +0.024 C 
ATOM     10  C   UNL     1       9.494   6.417  23.517  0.00  0.00    +0.016 C 
BRANCH   9  11
ATOM     11  C   UNL     1       7.229   5.227  23.347  0.00  0.00    +0.208 C 
BRANCH  11  12
ATOM     12  C   UNL     1       6.095   4.405  24.011  0.00  0.00    +0.242 C 
ATOM     13  N   UNL     1       6.293   3.035  23.926  0.00  0.00    -0.313 N 
ATOM     14  H   UNL     1       7.262   2.751  24.025  0.00  0.00    +0.149 HD
ATOM     15  O   UNL     1       5.111   4.872  24.573  0.00  0.00    -0.273 OA
BRANCH  13  16
ATOM     16  C   UNL     1       5.264   2.146  24.438  0.00  0.00    +0.113 C 
BRANCH  16  17
ATOM     17  C   UNL     1       5.660   1.541  25.781  0.00  0.00    +0.114 C 
BRANCH  17  18
ATOM     18  C   UNL     1       5.236   0.090  25.858  0.00  0.00    +0.215 C 
ATOM     19  N   UNL     1       4.692  -0.268  27.066  0.00  0.00    -0.314 N 
ATOM     20  H   UNL     1       4.778   0.369  27.856  0.00  0.00    +0.149 HD
ATOM     21  O   UNL     1       5.325  -0.679  24.908  0.00  0.00    -0.276 OA
BRANCH  19  22
ATOM     22  C   UNL     1       4.252  -1.631  27.327  0.00  0.00    +0.114 C 
BRANCH  22  23
ATOM     23  C   UNL     1       2.771  -1.862  27.017  0.00  0.00    +0.084 C 
BRANCH  23  24
ATOM     24  S   UNL     1       2.532  -3.274  25.889  0.00  0.00    -0.177 S 
ATOM     25  H   UNL     1       1.837  -4.031  26.752  0.00  0.00    +0.102 HD
ENDBRANCH  23  24
ENDBRANCH  22  23
ENDBRANCH  19  22
ENDBRANCH  17  18
ENDBRANCH  16  17
ENDBRANCH  13  16
ENDBRANCH  11  12
BRANCH  11  26
ATOM     26  O   UNL     1       7.502   4.587  22.092  0.00  0.00    -0.382 OA
ATOM     27  H   UNL     1       6.834   4.869  21.450  0.00  0.00    +0.210 HD
ENDBRANCH  11  26
ENDBRANCH   9  11
ENDBRANCH   7   9
ENDBRANCH   6   7
ENDBRANCH   2   6
ENDBRANCH   1   2
BRANCH   1  28
ATOM     28  P   UNL     1       9.349   0.070  24.697  0.00  0.00    +0.483 P 
ATOM     29  O   UNL     1      10.524  -0.375  23.886  0.00  0.00    -0.227 OA
BRANCH  28  30
ATOM     30  O   UNL     1       8.004  -0.543  24.068  0.00  0.00    -0.302 OA
ATOM     31  H   UNL     1       7.584   0.055  23.421  0.00  0.00    +0.222 HD
ENDBRANCH  28  30
BRANCH  28  32
ATOM     32  O   UNL     1       9.344  -0.614  26.175  0.00  0.00    -0.284 OA
BRANCH  32  33
ATOM     33  C   UNL     1       8.641  -1.852  26.415  0.00  0.00    +0.206 C 
BRANCH  33  34
ATOM     34  C   UNL     1       8.736  -3.112  25.454  0.00  0.00    +0.178 C 
ATOM     35  C   UNL     1       9.263  -4.459  25.972  0.00  0.00    +0.178 C 
ATOM     36  C   UNL     1       8.071  -5.409  25.953  0.00  0.00    +0.195 C 
ATOM     37  C   UNL     1       6.915  -4.551  25.444  0.00  0.00    +0.253 C 
ATOM     38  O   UNL     1       7.485  -3.406  24.789  0.00  0.00    -0.346 OA
BRANCH  37  39
ATOM     39  N   UNL     1       6.010  -5.272  24.559  0.00  0.00    -0.286 N 
ATOM     40  C   UNL     1       4.985  -6.063  25.015  0.00  0.00    +0.167 A 
ATOM     41  N   UNL     1       4.694  -6.354  26.296  0.00  0.00    -0.216 NA
ATOM     42  C   UNL     1       3.571  -7.098  26.370  0.00  0.00    +0.225 A 
ATOM     43  N   UNL     1       2.787  -7.535  25.362  0.00  0.00    -0.219 NA
ATOM     44  C   UNL     1       3.136  -7.241  24.091  0.00  0.00    +0.147 A 
ATOM     45  N   UNL     1       2.307  -7.681  23.069  0.00  0.00    -0.341 N 
ATOM     46  H   UNL     1       2.397  -7.144  22.215  0.00  0.00    +0.144 HD
ATOM     47  H   UNL     1       1.366  -7.863  23.403  0.00  0.00    +0.144 HD
ATOM     48  C   UNL     1       4.295  -6.467  23.881  0.00  0.00    +0.147 A 
ATOM     49  N   UNL     1       4.910  -5.976  22.749  0.00  0.00    -0.231 NA
ATOM     50  C   UNL     1       5.936  -5.269  23.189  0.00  0.00    +0.203 A 
ENDBRANCH  37  39
BRANCH  36  51
ATOM     51  O   UNL     1       7.807  -5.920  27.271  0.00  0.00    -0.385 OA
ATOM     52  H   UNL     1       8.405  -6.684  27.404  0.00  0.00    +0.210 HD
ENDBRANCH  36  51
BRANCH  35  53
ATOM     53  O   UNL     1      10.260  -4.965  25.049  0.00  0.00    -0.386 OA
ATOM     54  H   UNL     1      11.035  -5.291  25.545  0.00  0.00    +0.210 HD
ENDBRANCH  35  53
ENDBRANCH  33  34
ENDBRANCH  32  33
ENDBRANCH  28  32
ENDBRANCH   1  28
TORSDOF 22
ENDMDL
MODEL 4
REMARK VINA RESULT:      -6.6      3.211      9.579
REMARK  Name = 
REMARK  24 active torsions:
REMARK  status: ('A' for Active; 'I' for Inactive)
REMARK    1  A    between atoms: C_1  and  C_2
REMARK    2  A    between atoms: C_2  and  C_3
REMARK    3  A    between atoms: C_2  and  C_4
REMARK    4  A    between atoms: C_2  and  C_36
REMARK    5  A    between atoms: C_4  and  O_5
REMARK    6  A    between atoms: O_5  and  P_6
REMARK    7  A    between atoms: P_6  and  O_7
REMARK    8  A    between atoms: P_6  and  O_9
REMARK    9  A    between atoms: O_9  and  P_10
REMARK   10  A    between atoms: P_10  and  O_11
REMARK   11  A    between atoms: P_10  and  O_13
REMARK   12  A    between atoms: O_13  and  C_14
REMARK   13  A    between atoms: C_14  and  C_15
REMARK   14  A    between atoms: C_18  and  N_26
REMARK   15  A    between atoms: C_20  and  O_22
REMARK   16  A    between atoms: C_23  and  O_25
REMARK   17  A    between atoms: C_36  and  O_38
REMARK   18  A    between atoms: C_36  and  C_39
REMARK   19  A    between atoms: N_41  and  C_42
REMARK   20  A    between atoms: C_42  and  C_43
REMARK   21  A    between atoms: C_43  and  C_44
REMARK   22  A    between atoms: N_46  and  C_47
REMARK   23  A    between atoms: C_47  and  C_48
REMARK   24  A    between atoms: C_48  and  S_49
REMARK                            x       y       z     vdW  Elec       q    Type
REMARK                         _______ _______ _______ _____ _____    ______ ____
ROOT
ATOM      1  O   UNL     1       8.100   0.640  23.770  0.00  0.00    -0.186 OA
ENDROOT
BRANCH   1   2
ATOM      2  P   UNL     1       9.175   1.416  22.660  0.00  0.00    +0.483 P 
ATOM      3  O   UNL     1       8.119   1.405  21.554  0.00  0.00    -0.227 OA
BRANCH   2   4
ATOM      4  O   UNL     1      10.252   2.192  21.550  0.00  0.00    -0.302 OA
ATOM      5  H   UNL     1      10.865   1.468  21.304  0.00  0.00    +0.222 HD
ENDBRANCH   2   4
BRANCH   2   6
ATOM      6  O   UNL     1       9.064   2.810  23.502  0.00  0.00    -0.286 OA
BRANCH   6   7
ATOM      7  C   UNL     1       8.109   3.747  23.048  0.00  0.00    +0.181 C 
BRANCH   7   9
ATOM      8  C   UNL     1       8.637   6.142  23.412  0.00  0.00    +0.016 C 
ATOM      9  C   UNL     1       7.904   4.926  24.033  0.00  0.00    +0.024 C 
ATOM     10  C   UNL     1       6.415   5.311  24.128  0.00  0.00    +0.016 C 
BRANCH   9  11
ATOM     11  C   UNL     1       8.500   4.587  25.434  0.00  0.00    +0.208 C 
BRANCH  11  12
ATOM     12  C   UNL     1       7.556   3.859  26.424  0.00  0.00    +0.242 C 
ATOM     13  N   UNL     1       7.555   2.481  26.265  0.00  0.00    -0.313 N 
ATOM     14  H   UNL     1       8.465   2.092  26.038  0.00  0.00    +0.149 HD
ATOM     15  O   UNL     1       6.868   4.400  27.282  0.00  0.00    -0.273 OA
BRANCH  13  16
ATOM     16  C   UNL     1       6.652   1.683  27.077  0.00  0.00    +0.113 C 
BRANCH  16  17
ATOM     17  C   UNL     1       5.408   1.272  26.296  0.00  0.00    +0.114 C 
BRANCH  17  18
ATOM     18  C   UNL     1       5.405  -0.221  26.043  0.00  0.00    +0.215 C 
ATOM     19  N   UNL     1       5.485  -0.979  27.184  0.00  0.00    -0.314 N 
ATOM     20  H   UNL     1       5.725  -0.526  28.064  0.00  0.00    +0.149 HD
ATOM     21  O   UNL     1       5.289  -0.704  24.923  0.00  0.00    -0.276 OA
BRANCH  19  22
ATOM     22  C   UNL     1       5.520  -2.433  27.129  0.00  0.00    +0.114 C 
BRANCH  22  23
ATOM     23  C   UNL     1       4.219  -3.091  27.594  0.00  0.00    +0.084 C 
BRANCH  23  24
ATOM     24  S   UNL     1       3.041  -3.304  26.219  0.00  0.00    -0.177 S 
ATOM     25  H   UNL     1       1.942  -2.989  26.921  0.00  0.00    +0.102 HD
ENDBRANCH  23  24
ENDBRANCH  22  23
ENDBRANCH  19  22
ENDBRANCH  17  18
ENDBRANCH  16  17
ENDBRANCH  13  16
ENDBRANCH  11  12
BRANCH  11  26
ATOM     26  O   UNL     1       8.980   5.750  26.124  0.00  0.00    -0.382 OA
ATOM     27  H   UNL     1       8.730   6.536  25.613  0.00  0.00    +0.210 HD
ENDBRANCH  11  26
ENDBRANCH   9  11
ENDBRANCH   7   9
ENDBRANCH   6   7
ENDBRANCH   2   6
ENDBRANCH   1   2
BRANCH   1  28
ATOM     28  P   UNL     1       9.245  -0.370  24.504  0.00  0.00    +0.483 P 
ATOM     29  O   UNL     1       9.436  -0.114  25.965  0.00  0.00    -0.227 OA
BRANCH  28  30
ATOM     30  O   UNL     1      10.585   0.028  23.713  0.00  0.00    -0.302 OA
ATOM     31  H   UNL     1      11.394  -0.145  24.230  0.00  0.00    +0.222 HD
ENDBRANCH  28  30
BRANCH  28  32
ATOM     32  O   UNL     1       9.150  -1.962  24.179  0.00  0.00    -0.284 OA
BRANCH  32  33
ATOM     33  C   UNL     1       8.526  -2.434  22.966  0.00  0.00    +0.206 C 
BRANCH  33  34
ATOM     34  C   UNL     1       7.047  -3.005  22.908  0.00  0.00    +0.178 C 
ATOM     35  C   UNL     1       6.602  -3.924  21.759  0.00  0.00    +0.178 C 
ATOM     36  C   UNL     1       6.360  -5.291  22.389  0.00  0.00    +0.195 C 
ATOM     37  C   UNL     1       6.699  -5.091  23.865  0.00  0.00    +0.253 C 
ATOM     38  O   UNL     1       6.657  -3.679  24.128  0.00  0.00    -0.346 OA
BRANCH  37  39
ATOM     39  N   UNL     1       5.815  -5.824  24.762  0.00  0.00    -0.286 N 
ATOM     40  C   UNL     1       6.086  -6.010  26.095  0.00  0.00    +0.167 A 
ATOM     41  N   UNL     1       7.194  -5.631  26.758  0.00  0.00    -0.216 NA
ATOM     42  C   UNL     1       7.079  -5.912  28.072  0.00  0.00    +0.225 A 
ATOM     43  N   UNL     1       6.045  -6.488  28.719  0.00  0.00    -0.219 NA
ATOM     44  C   UNL     1       4.965  -6.877  28.006  0.00  0.00    +0.147 A 
ATOM     45  N   UNL     1       3.903  -7.449  28.692  0.00  0.00    -0.341 N 
ATOM     46  H   UNL     1       3.019  -7.378  28.200  0.00  0.00    +0.144 HD
ATOM     47  H   UNL     1       3.908  -7.190  29.672  0.00  0.00    +0.144 HD
ATOM     48  C   UNL     1       4.966  -6.639  26.617  0.00  0.00    +0.147 A 
ATOM     49  N   UNL     1       4.045  -6.877  25.618  0.00  0.00    -0.231 NA
ATOM     50  C   UNL     1       4.586  -6.382  24.520  0.00  0.00    +0.203 A 
ENDBRANCH  37  39
BRANCH  36  51
ATOM     51  O   UNL     1       7.205  -6.286  21.785  0.00  0.00    -0.385 OA
ATOM     52  H   UNL     1       7.795  -6.622  22.490  0.00  0.00    +0.210 HD
ENDBRANCH  36  51
BRANCH  35  53
ATOM     53  O   UNL     1       5.343  -3.442  21.226  0.00  0.00    -0.386 OA
ATOM     54  H   UNL     1       5.488  -3.045  20.346  0.00  0.00    +0.210 HD
ENDBRANCH  35  53
ENDBRANCH  33  34
ENDBRANCH  32  33
ENDBRANCH  28  32
ENDBRANCH   1  28
TORSDOF 22
ENDMDL
MODEL 5
REMARK VINA RESULT:      -6.6      2.557      4.439
REMARK  Name = 
REMARK  24 active torsions:
REMARK  status: ('A' for Active; 'I' for Inactive)
REMARK    1  A    between atoms: C_1  and  C_2
REMARK    2  A    between atoms: C_2  and  C_3
REMARK    3  A    between atoms: C_2  and  C_4
REMARK    4  A    between atoms: C_2  and  C_36
REMARK    5  A    between atoms: C_4  and  O_5
REMARK    6  A    between atoms: O_5  and  P_6
REMARK    7  A    between atoms: P_6  and  O_7
REMARK    8  A    between atoms: P_6  and  O_9
REMARK    9  A    between atoms: O_9  and  P_10
REMARK   10  A    between atoms: P_10  and  O_11
REMARK   11  A    between atoms: P_10  and  O_13
REMARK   12  A    between atoms: O_13  and  C_14
REMARK   13  A    between atoms: C_14  and  C_15
REMARK   14  A    between atoms: C_18  and  N_26
REMARK   15  A    between atoms: C_20  and  O_22
REMARK   16  A    between atoms: C_23  and  O_25
REMARK   17  A    between atoms: C_36  and  O_38
REMARK   18  A    between atoms: C_36  and  C_39
REMARK   19  A    between atoms: N_41  and  C_42
REMARK   20  A    between atoms: C_42  and  C_43
REMARK   21  A    between atoms: C_43  and  C_44
REMARK   22  A    between atoms: N_46  and  C_47
REMARK   23  A    between atoms: C_47  and  C_48
REMARK   24  A    between atoms: C_48  and  S_49
REMARK                            x       y       z     vdW  Elec       q    Type
REMARK                         _______ _______ _______ _____ _____    ______ ____
ROOT
ATOM      1  O   UNL     1       6.472  -5.686  23.741  0.00  0.00    -0.186 OA
ENDROOT
BRANCH   1   2
ATOM      2  P   UNL     1       6.013  -4.484  22.584  0.00  0.00    +0.483 P 
ATOM      3  O   UNL     1       6.792  -5.188  21.472  0.00  0.00    -0.227 OA
BRANCH   2   4
ATOM      4  O   UNL     1       5.555  -3.281  21.428  0.00  0.00    -0.302 OA
ATOM      5  H   UNL     1       5.984  -2.472  21.779  0.00  0.00    +0.222 HD
ENDBRANCH   2   4
BRANCH   2   6
ATOM      6  O   UNL     1       4.476  -5.032  22.601  0.00  0.00    -0.286 OA
BRANCH   6   7
ATOM      7  C   UNL     1       3.699  -4.699  23.733  0.00  0.00    +0.181 C 
BRANCH   7   9
ATOM      8  C   UNL     1       1.583  -5.038  24.979  0.00  0.00    +0.016 C 
ATOM      9  C   UNL     1       2.590  -5.740  24.033  0.00  0.00    +0.024 C 
ATOM     10  C   UNL     1       1.814  -6.101  22.752  0.00  0.00    +0.016 C 
BRANCH   9  11
ATOM     11  C   UNL     1       3.191  -7.006  24.717  0.00  0.00    +0.208 C 
BRANCH  11  12
ATOM     12  C   UNL     1       3.539  -6.874  26.221  0.00  0.00    +0.242 C 
ATOM     13  N   UNL     1       4.797  -6.336  26.444  0.00  0.00    -0.313 N 
ATOM     14  H   UNL     1       5.055  -5.605  25.788  0.00  0.00    +0.149 HD
ATOM     15  O   UNL     1       2.809  -7.192  27.153  0.00  0.00    -0.273 OA
BRANCH  13  16
ATOM     16  C   UNL     1       5.282  -6.231  27.810  0.00  0.00    +0.113 C 
BRANCH  16  17
ATOM     17  C   UNL     1       4.597  -5.098  28.566  0.00  0.00    +0.114 C 
BRANCH  17  18
ATOM     18  C   UNL     1       4.575  -3.836  27.731  0.00  0.00    +0.215 C 
ATOM     19  N   UNL     1       3.320  -3.310  27.549  0.00  0.00    -0.314 N 
ATOM     20  H   UNL     1       2.507  -3.869  27.803  0.00  0.00    +0.149 HD
ATOM     21  O   UNL     1       5.593  -3.305  27.302  0.00  0.00    -0.276 OA
BRANCH  19  22
ATOM     22  C   UNL     1       3.106  -2.112  26.751  0.00  0.00    +0.114 C 
BRANCH  22  23
ATOM     23  C   UNL     1       2.944  -0.843  27.591  0.00  0.00    +0.084 C 
BRANCH  23  24
ATOM     24  S   UNL     1       4.396   0.250  27.449  0.00  0.00    -0.177 S 
ATOM     25  H   UNL     1       4.701  -0.080  26.184  0.00  0.00    +0.102 HD
ENDBRANCH  23  24
ENDBRANCH  22  23
ENDBRANCH  19  22
ENDBRANCH  17  18
ENDBRANCH  16  17
ENDBRANCH  13  16
ENDBRANCH  11  12
BRANCH  11  26
ATOM     26  O   UNL     1       4.387  -7.466  24.070  0.00  0.00    -0.382 OA
ATOM     27  H   UNL     1       4.706  -6.766  23.479  0.00  0.00    +0.210 HD
ENDBRANCH  11  26
ENDBRANCH   9  11
ENDBRANCH   7   9
ENDBRANCH   6   7
ENDBRANCH   2   6
ENDBRANCH   1   2
BRANCH   1  28
ATOM     28  P   UNL     1       7.581  -4.738  24.602  0.00  0.00    +0.483 P 
ATOM     29  O   UNL     1       7.871  -5.241  25.980  0.00  0.00    -0.227 OA
BRANCH  28  30
ATOM     30  O   UNL     1       6.808  -3.334  24.697  0.00  0.00    -0.302 OA
ATOM     31  H   UNL     1       7.049  -2.721  23.979  0.00  0.00    +0.222 HD
ENDBRANCH  28  30
BRANCH  28  32
ATOM     32  O   UNL     1       8.942  -4.295  23.824  0.00  0.00    -0.284 OA
BRANCH  32  33
ATOM     33  C   UNL     1       9.722  -3.170  24.280  0.00  0.00    +0.206 C 
BRANCH  33  34
ATOM     34  C   UNL     1       9.749  -1.767  23.537  0.00  0.00    +0.178 C 
ATOM     35  C   UNL     1       8.781  -1.470  22.381  0.00  0.00    +0.178 C 
ATOM     36  C   UNL     1       7.834  -0.392  22.896  0.00  0.00    +0.195 C 
ATOM     37  C   UNL     1       8.294  -0.142  24.331  0.00  0.00    +0.253 C 
ATOM     38  O   UNL     1       9.635  -0.648  24.448  0.00  0.00    -0.346 OA
BRANCH  37  39
ATOM     39  N   UNL     1       8.221   1.260  24.722  0.00  0.00    -0.286 N 
ATOM     40  C   UNL     1       9.139   2.199  24.322  0.00  0.00    +0.167 A 
ATOM     41  N   UNL     1      10.252   1.987  23.595  0.00  0.00    -0.216 NA
ATOM     42  C   UNL     1      10.872   3.154  23.327  0.00  0.00    +0.225 A 
ATOM     43  N   UNL     1      10.507   4.401  23.693  0.00  0.00    -0.219 NA
ATOM     44  C   UNL     1       9.397   4.560  24.447  0.00  0.00    +0.147 A 
ATOM     45  N   UNL     1       9.027   5.851  24.796  0.00  0.00    -0.341 N 
ATOM     46  H   UNL     1       8.043   5.943  25.021  0.00  0.00    +0.144 HD
ATOM     47  H   UNL     1       9.421   6.538  24.162  0.00  0.00    +0.144 HD
ATOM     48  C   UNL     1       8.660   3.411  24.795  0.00  0.00    +0.147 A 
ATOM     49  N   UNL     1       7.497   3.217  25.511  0.00  0.00    -0.231 NA
ATOM     50  C   UNL     1       7.265   1.918  25.452  0.00  0.00    +0.203 A 
ENDBRANCH  37  39
BRANCH  36  51
ATOM     51  O   UNL     1       6.471  -0.851  22.853  0.00  0.00    -0.385 OA
ATOM     52  H   UNL     1       6.502  -1.816  22.693  0.00  0.00    +0.210 HD
ENDBRANCH  36  51
BRANCH  35  53
ATOM     53  O   UNL     1       9.528  -0.920  21.267  0.00  0.00    -0.386 OA
ATOM     54  H   UNL     1      10.478  -1.117  21.377  0.00  0.00    +0.210 HD
ENDBRANCH  35  53
ENDBRANCH  33  34
ENDBRANCH  32  33
ENDBRANCH  28  32
ENDBRANCH   1  28
TORSDOF 22
ENDMDL
MODEL 6
REMARK VINA RESULT:      -6.5      3.261      8.793
REMARK  Name = 
REMARK  24 active torsions:
REMARK  status: ('A' for Active; 'I' for Inactive)
REMARK    1  A    between atoms: C_1  and  C_2
REMARK    2  A    between atoms: C_2  and  C_3
REMARK    3  A    between atoms: C_2  and  C_4
REMARK    4  A    between atoms: C_2  and  C_36
REMARK    5  A    between atoms: C_4  and  O_5
REMARK    6  A    between atoms: O_5  and  P_6
REMARK    7  A    between atoms: P_6  and  O_7
REMARK    8  A    between atoms: P_6  and  O_9
REMARK    9  A    between atoms: O_9  and  P_10
REMARK   10  A    between atoms: P_10  and  O_11
REMARK   11  A    between atoms: P_10  and  O_13
REMARK   12  A    between atoms: O_13  and  C_14
REMARK   13  A    between atoms: C_14  and  C_15
REMARK   14  A    between atoms: C_18  and  N_26
REMARK   15  A    between atoms: C_20  and  O_22
REMARK   16  A    between atoms: C_23  and  O_25
REMARK   17  A    between atoms: C_36  and  O_38
REMARK   18  A    between atoms: C_36  and  C_39
REMARK   19  A    between atoms: N_41  and  C_42
REMARK   20  A    between atoms: C_42  and  C_43
REMARK   21  A    between atoms: C_43  and  C_44
REMARK   22  A    between atoms: N_46  and  C_47
REMARK   23  A    between atoms: C_47  and  C_48
REMARK   24  A    between atoms: C_48  and  S_49
REMARK                            x       y       z     vdW  Elec       q    Type
REMARK                         _______ _______ _______ _____ _____    ______ ____
ROOT
ATOM      1  O   UNL     1       6.335   0.065  25.214  0.00  0.00    -0.186 OA
ENDROOT
BRANCH   1   2
ATOM      2  P   UNL     1       7.146   1.401  25.955  0.00  0.00    +0.483 P 
ATOM      3  O   UNL     1       8.125   0.471  26.673  0.00  0.00    -0.227 OA
BRANCH   2   4
ATOM      4  O   UNL     1       7.956   2.738  26.697  0.00  0.00    -0.302 OA
ATOM      5  H   UNL     1       8.238   3.274  25.925  0.00  0.00    +0.222 HD
ENDBRANCH   2   4
BRANCH   2   6
ATOM      6  O   UNL     1       7.773   1.841  24.514  0.00  0.00    -0.286 OA
BRANCH   6   7
ATOM      7  C   UNL     1       8.919   2.667  24.550  0.00  0.00    +0.181 C 
BRANCH   7   9
ATOM      8  C   UNL     1       9.286   2.008  22.189  0.00  0.00    +0.016 C 
ATOM      9  C   UNL     1      10.011   2.229  23.540  0.00  0.00    +0.024 C 
ATOM     10  C   UNL     1      11.033   3.359  23.311  0.00  0.00    +0.016 C 
BRANCH   9  11
ATOM     11  C   UNL     1      10.704   0.914  24.011  0.00  0.00    +0.208 C 
BRANCH  11  12
ATOM     12  C   UNL     1      10.143  -0.406  23.423  0.00  0.00    +0.242 C 
ATOM     13  N   UNL     1       9.180  -0.995  24.229  0.00  0.00    -0.313 N 
ATOM     14  H   UNL     1       8.565  -0.332  24.689  0.00  0.00    +0.149 HD
ATOM     15  O   UNL     1      10.477  -0.911  22.358  0.00  0.00    -0.273 OA
BRANCH  13  16
ATOM     16  C   UNL     1       8.629  -2.281  23.835  0.00  0.00    +0.113 C 
BRANCH  16  17
ATOM     17  C   UNL     1       9.358  -3.438  24.511  0.00  0.00    +0.114 C 
BRANCH  17  18
ATOM     18  C   UNL     1       8.622  -4.740  24.280  0.00  0.00    +0.215 C 
ATOM     19  N   UNL     1       7.733  -4.700  23.235  0.00  0.00    -0.314 N 
ATOM     20  H   UNL     1       7.490  -3.800  22.826  0.00  0.00    +0.149 HD
ATOM     21  O   UNL     1       8.842  -5.751  24.937  0.00  0.00    -0.276 OA
BRANCH  19  22
ATOM     22  C   UNL     1       6.920  -5.856  22.886  0.00  0.00    +0.114 C 
BRANCH  22  23
ATOM     23  C   UNL     1       5.537  -5.485  22.346  0.00  0.00    +0.084 C 
BRANCH  23  24
ATOM     24  S   UNL     1       5.177  -3.712  22.576  0.00  0.00    -0.177 S 
ATOM     25  H   UNL     1       5.374  -3.697  23.903  0.00  0.00    +0.102 HD
ENDBRANCH  23  24
ENDBRANCH  22  23
ENDBRANCH  19  22
ENDBRANCH  17  18
ENDBRANCH  16  17
ENDBRANCH  13  16
ENDBRANCH  11  12
BRANCH  11  26
ATOM     26  O   UNL     1      10.677   0.758  25.437  0.00  0.00    -0.382 OA
ATOM     27  H   UNL     1      10.343   1.579  25.831  0.00  0.00    +0.210 HD
ENDBRANCH  11  26
ENDBRANCH   9  11
ENDBRANCH   7   9
ENDBRANCH   6   7
ENDBRANCH   2   6
ENDBRANCH   1   2
BRANCH   1  28
ATOM     28  P   UNL     1       5.285  -0.284  26.496  0.00  0.00    +0.483 P 
ATOM     29  O   UNL     1       3.837  -0.238  26.128  0.00  0.00    -0.227 OA
BRANCH  28  30
ATOM     30  O   UNL     1       5.613   0.909  27.521  0.00  0.00    -0.302 OA
ATOM     31  H   UNL     1       5.428   0.672  28.448  0.00  0.00    +0.222 HD
ENDBRANCH  28  30
BRANCH  28  32
ATOM     32  O   UNL     1       5.634  -1.586  27.409  0.00  0.00    -0.284 OA
BRANCH  32  33
ATOM     33  C   UNL     1       6.578  -2.578  26.954  0.00  0.00    +0.206 C 
BRANCH  33  34
ATOM     34  C   UNL     1       6.357  -4.140  27.125  0.00  0.00    +0.178 C 
ATOM     35  C   UNL     1       5.629  -4.701  28.358  0.00  0.00    +0.178 C 
ATOM     36  C   UNL     1       4.316  -5.277  27.840  0.00  0.00    +0.195 C 
ATOM     37  C   UNL     1       4.348  -4.997  26.339  0.00  0.00    +0.253 C 
ATOM     38  O   UNL     1       5.716  -4.746  25.977  0.00  0.00    -0.346 OA
BRANCH  37  39
ATOM     39  N   UNL     1       3.779  -6.076  25.541  0.00  0.00    -0.286 N 
ATOM     40  C   UNL     1       2.772  -5.883  24.628  0.00  0.00    +0.167 A 
ATOM     41  N   UNL     1       2.116  -4.736  24.375  0.00  0.00    -0.216 NA
ATOM     42  C   UNL     1       1.243  -4.904  23.360  0.00  0.00    +0.225 A 
ATOM     43  N   UNL     1       0.994  -6.021  22.645  0.00  0.00    -0.219 NA
ATOM     44  C   UNL     1       1.657  -7.156  22.956  0.00  0.00    +0.147 A 
ATOM     45  N   UNL     1       1.402  -8.289  22.196  0.00  0.00    -0.341 N 
ATOM     46  H   UNL     1       2.154  -8.967  22.217  0.00  0.00    +0.144 HD
ATOM     47  H   UNL     1       1.020  -8.051  21.287  0.00  0.00    +0.144 HD
ATOM     48  C   UNL     1       2.599  -7.109  24.003  0.00  0.00    +0.147 A 
ATOM     49  N   UNL     1       3.448  -8.048  24.551  0.00  0.00    -0.231 NA
ATOM     50  C   UNL     1       4.137  -7.398  25.473  0.00  0.00    +0.203 A 
ENDBRANCH  37  39
BRANCH  36  51
ATOM     51  O   UNL     1       3.195  -4.634  28.472  0.00  0.00    -0.385 OA
ATOM     52  H   UNL     1       3.234  -4.866  29.422  0.00  0.00    +0.210 HD
ENDBRANCH  36  51
BRANCH  35  53
ATOM     53  O   UNL     1       6.411  -5.787  28.916  0.00  0.00    -0.386 OA
ATOM     54  H   UNL     1       6.298  -6.588  28.372  0.00  0.00    +0.210 HD
ENDBRANCH  35  53
ENDBRANCH  33  34
ENDBRANCH  32  33
ENDBRANCH  28  32
ENDBRANCH   1  28
TORSDOF 22
ENDMDL
MODEL 7
REMARK VINA RESULT:      -6.5      2.751      4.877
REMARK  Name = 
REMARK  24 active torsions:
REMARK  status: ('A' for Active; 'I' for Inactive)
REMARK    1  A    between atoms: C_1  and  C_2
REMARK    2  A    between atoms: C_2  and  C_3
REMARK    3  A    between atoms: C_2  and  C_4
REMARK    4  A    between atoms: C_2  and  C_36
REMARK    5  A    between atoms: C_4  and  O_5
REMARK    6  A    between atoms: O_5  and  P_6
REMARK    7  A    between atoms: P_6  and  O_7
REMARK    8  A    between atoms: P_6  and  O_9
REMARK    9  A    between atoms: O_9  and  P_10
REMARK   10  A    between atoms: P_10  and  O_11
REMARK   11  A    between atoms: P_10  and  O_13
REMARK   12  A    between atoms: O_13  and  C_14
REMARK   13  A    between atoms: C_14  and  C_15
REMARK   14  A    between atoms: C_18  and  N_26
REMARK   15  A    between atoms: C_20  and  O_22
REMARK   16  A    between atoms: C_23  and  O_25
REMARK   17  A    between atoms: C_36  and  O_38
REMARK   18  A    between atoms: C_36  and  C_39
REMARK   19  A    between atoms: N_41  and  C_42
REMARK   20  A    between atoms: C_42  and  C_43
REMARK   21  A    between atoms: C_43  and  C_44
REMARK   22  A    between atoms: N_46  and  C_47
REMARK   23  A    between atoms: C_47  and  C_48
REMARK   24  A    between atoms: C_48  and  S_49
REMARK                            x       y       z     vdW  Elec       q    Type
REMARK                         _______ _______ _______ _____ _____    ______ ____
ROOT
ATOM      1  O   UNL     1       8.281  -2.675  26.143  0.00  0.00    -0.186 OA
ENDROOT
BRANCH   1   2
ATOM      2  P   UNL     1       9.128  -4.021  25.463  0.00  0.00    +0.483 P 
ATOM      3  O   UNL     1       8.634  -4.954  26.571  0.00  0.00    -0.227 OA
BRANCH   2   4
ATOM      4  O   UNL     1       9.977  -5.367  24.783  0.00  0.00    -0.302 OA
ATOM      5  H   UNL     1      10.344  -4.992  23.954  0.00  0.00    +0.222 HD
ENDBRANCH   2   4
BRANCH   2   6
ATOM      6  O   UNL     1       8.084  -4.066  24.210  0.00  0.00    -0.286 OA
BRANCH   6   7
ATOM      7  C   UNL     1       7.708  -5.347  23.747  0.00  0.00    +0.181 C 
BRANCH   7   9
ATOM      8  C   UNL     1       6.460  -5.956  21.694  0.00  0.00    +0.016 C 
ATOM      9  C   UNL     1       6.291  -5.371  23.119  0.00  0.00    +0.024 C 
ATOM     10  C   UNL     1       5.366  -6.335  23.884  0.00  0.00    +0.016 C 
BRANCH   9  11
ATOM     11  C   UNL     1       5.692  -3.932  23.051  0.00  0.00    +0.208 C 
BRANCH  11  12
ATOM     12  C   UNL     1       4.730  -3.534  24.199  0.00  0.00    +0.242 C 
ATOM     13  N   UNL     1       5.379  -2.953  25.277  0.00  0.00    -0.313 N 
ATOM     14  H   UNL     1       6.151  -2.347  25.016  0.00  0.00    +0.149 HD
ATOM     15  O   UNL     1       3.514  -3.689  24.196  0.00  0.00    -0.273 OA
BRANCH  13  16
ATOM     16  C   UNL     1       4.605  -2.605  26.456  0.00  0.00    +0.113 C 
BRANCH  16  17
ATOM     17  C   UNL     1       5.214  -1.422  27.202  0.00  0.00    +0.114 C 
BRANCH  17  18
ATOM     18  C   UNL     1       4.880  -0.121  26.504  0.00  0.00    +0.215 C 
ATOM     19  N   UNL     1       4.589   0.911  27.360  0.00  0.00    -0.314 N 
ATOM     20  H   UNL     1       4.430   0.708  28.345  0.00  0.00    +0.149 HD
ATOM     21  O   UNL     1       4.920   0.008  25.285  0.00  0.00    -0.276 OA
BRANCH  19  22
ATOM     22  C   UNL     1       4.220   2.229  26.863  0.00  0.00    +0.114 C 
BRANCH  22  23
ATOM     23  C   UNL     1       5.016   3.366  27.507  0.00  0.00    +0.084 C 
BRANCH  23  24
ATOM     24  S   UNL     1       6.769   2.918  27.732  0.00  0.00    -0.177 S 
ATOM     25  H   UNL     1       7.070   3.932  28.559  0.00  0.00    +0.102 HD
ENDBRANCH  23  24
ENDBRANCH  22  23
ENDBRANCH  19  22
ENDBRANCH  17  18
ENDBRANCH  16  17
ENDBRANCH  13  16
ENDBRANCH  11  12
BRANCH  11  26
ATOM     26  O   UNL     1       4.976  -3.693  21.830  0.00  0.00    -0.382 OA
ATOM     27  H   UNL     1       4.739  -2.753  21.791  0.00  0.00    +0.210 HD
ENDBRANCH  11  26
ENDBRANCH   9  11
ENDBRANCH   7   9
ENDBRANCH   6   7
ENDBRANCH   2   6
ENDBRANCH   1   2
BRANCH   1  28
ATOM     28  P   UNL     1       8.806  -1.511  25.031  0.00  0.00    +0.483 P 
ATOM     29  O   UNL     1       7.768  -1.112  24.031  0.00  0.00    -0.227 OA
BRANCH  28  30
ATOM     30  O   UNL     1       9.997  -2.286  24.284  0.00  0.00    -0.302 OA
ATOM     31  H   UNL     1      10.079  -3.216  24.566  0.00  0.00    +0.222 HD
ENDBRANCH  28  30
BRANCH  28  32
ATOM     32  O   UNL     1       9.598  -0.218  25.625  0.00  0.00    -0.284 OA
BRANCH  32  33
ATOM     33  C   UNL     1      10.583   0.477  24.831  0.00  0.00    +0.206 C 
BRANCH  33  34
ATOM     34  C   UNL     1      10.247   1.737  23.927  0.00  0.00    +0.178 C 
ATOM     35  C   UNL     1       9.690   1.560  22.505  0.00  0.00    +0.178 C 
ATOM     36  C   UNL     1       8.260   2.084  22.549  0.00  0.00    +0.195 C 
ATOM     37  C   UNL     1       8.061   2.515  24.000  0.00  0.00    +0.253 C 
ATOM     38  O   UNL     1       9.365   2.679  24.583  0.00  0.00    -0.346 OA
BRANCH  37  39
ATOM     39  N   UNL     1       7.264   3.728  24.136  0.00  0.00    -0.286 N 
ATOM     40  C   UNL     1       5.919   3.776  23.866  0.00  0.00    +0.167 A 
ATOM     41  N   UNL     1       5.152   2.780  23.384  0.00  0.00    -0.216 NA
ATOM     42  C   UNL     1       3.862   3.166  23.318  0.00  0.00    +0.225 A 
ATOM     43  N   UNL     1       3.323   4.355  23.661  0.00  0.00    -0.219 NA
ATOM     44  C   UNL     1       4.138   5.333  24.113  0.00  0.00    +0.147 A 
ATOM     45  N   UNL     1       3.563   6.542  24.480  0.00  0.00    -0.341 N 
ATOM     46  H   UNL     1       4.126   7.076  25.131  0.00  0.00    +0.144 HD
ATOM     47  H   UNL     1       2.578   6.436  24.699  0.00  0.00    +0.144 HD
ATOM     48  C   UNL     1       5.514   5.052  24.227  0.00  0.00    +0.147 A 
ATOM     49  N   UNL     1       6.595   5.789  24.664  0.00  0.00    -0.231 NA
ATOM     50  C   UNL     1       7.627   4.969  24.592  0.00  0.00    +0.203 A 
ENDBRANCH  37  39
BRANCH  36  51
ATOM     51  O   UNL     1       7.329   1.053  22.174  0.00  0.00    -0.385 OA
ATOM     52  H   UNL     1       7.599   0.241  22.649  0.00  0.00    +0.210 HD
ENDBRANCH  36  51
BRANCH  35  53
ATOM     53  O   UNL     1      10.450   2.392  21.593  0.00  0.00    -0.386 OA
ATOM     54  H   UNL     1       9.841   2.940  21.061  0.00  0.00    +0.210 HD
ENDBRANCH  35  53
ENDBRANCH  33  34
ENDBRANCH  32  33
ENDBRANCH  28  32
ENDBRANCH   1  28
TORSDOF 22
ENDMDL
MODEL 8
REMARK VINA RESULT:      -6.5      3.864     10.084
REMARK  Name = 
REMARK  24 active torsions:
REMARK  status: ('A' for Active; 'I' for Inactive)
REMARK    1  A    between atoms: C_1  and  C_2
REMARK    2  A    between atoms: C_2  and  C_3
REMARK    3  A    between atoms: C_2  and  C_4
REMARK    4  A    between atoms: C_2  and  C_36
REMARK    5  A    between atoms: C_4  and  O_5
REMARK    6  A    between atoms: O_5  and  P_6
REMARK    7  A    between atoms: P_6  and  O_7
REMARK    8  A    between atoms: P_6  and  O_9
REMARK    9  A    between atoms: O_9  and  P_10
REMARK   10  A    between atoms: P_10  and  O_11
REMARK   11  A    between atoms: P_10  and  O_13
REMARK   12  A    between atoms: O_13  and  C_14
REMARK   13  A    between atoms: C_14  and  C_15
REMARK   14  A    between atoms: C_18  and  N_26
REMARK   15  A    between atoms: C_20  and  O_22
REMARK   16  A    between atoms: C_23  and  O_25
REMARK   17  A    between atoms: C_36  and  O_38
REMARK   18  A    between atoms: C_36  and  C_39
REMARK   19  A    between atoms: N_41  and  C_42
REMARK   20  A    between atoms: C_42  and  C_43
REMARK   21  A    between atoms: C_43  and  C_44
REMARK   22  A    between atoms: N_46  and  C_47
REMARK   23  A    between atoms: C_47  and  C_48
REMARK   24  A    between atoms: C_48  and  S_49
REMARK                            x       y       z     vdW  Elec       q    Type
REMARK                         _______ _______ _______ _____ _____    ______ ____
ROOT
ATOM      1  O   UNL     1       8.532   1.860  24.647  0.00  0.00    -0.186 OA
ENDROOT
BRANCH   1   2
ATOM      2  P   UNL     1       8.815   1.937  22.943  0.00  0.00    +0.483 P 
ATOM      3  O   UNL     1       7.329   1.744  22.637  0.00  0.00    -0.227 OA
BRANCH   2   4
ATOM      4  O   UNL     1       9.101   2.014  21.238  0.00  0.00    -0.302 OA
ATOM      5  H   UNL     1       8.869   1.109  20.940  0.00  0.00    +0.222 HD
ENDBRANCH   2   4
BRANCH   2   6
ATOM      6  O   UNL     1       9.144   3.532  23.054  0.00  0.00    -0.286 OA
BRANCH   6   7
ATOM      7  C   UNL     1       8.714   4.185  24.231  0.00  0.00    +0.181 C 
BRANCH   7   9
ATOM      8  C   UNL     1       8.045   6.266  25.399  0.00  0.00    +0.016 C 
ATOM      9  C   UNL     1       8.372   5.680  24.003  0.00  0.00    +0.024 C 
ATOM     10  C   UNL     1       9.598   6.450  23.478  0.00  0.00    +0.016 C 
BRANCH   9  11
ATOM     11  C   UNL     1       7.148   5.828  23.048  0.00  0.00    +0.208 C 
BRANCH  11  12
ATOM     12  C   UNL     1       5.912   4.951  23.374  0.00  0.00    +0.242 C 
ATOM     13  N   UNL     1       5.471   4.206  22.292  0.00  0.00    -0.313 N 
ATOM     14  H   UNL     1       6.218   3.847  21.706  0.00  0.00    +0.149 HD
ATOM     15  O   UNL     1       5.353   4.884  24.464  0.00  0.00    -0.273 OA
BRANCH  13  16
ATOM     16  C   UNL     1       4.270   3.401  22.439  0.00  0.00    +0.113 C 
BRANCH  16  17
ATOM     17  C   UNL     1       3.015   4.193  22.089  0.00  0.00    +0.114 C 
BRANCH  17  18
ATOM     18  C   UNL     1       2.349   3.621  20.855  0.00  0.00    +0.215 C 
ATOM     19  N   UNL     1       2.384   4.456  19.766  0.00  0.00    -0.314 N 
ATOM     20  H   UNL     1       2.663   5.427  19.895  0.00  0.00    +0.149 HD
ATOM     21  O   UNL     1       1.869   2.494  20.822  0.00  0.00    -0.276 OA
BRANCH  19  22
ATOM     22  C   UNL     1       1.770   4.080  18.501  0.00  0.00    +0.114 C 
BRANCH  22  23
ATOM     23  C   UNL     1       0.872   5.171  17.914  0.00  0.00    +0.084 C 
BRANCH  23  24
ATOM     24  S   UNL     1       1.837   6.423  17.007  0.00  0.00    -0.177 S 
ATOM     25  H   UNL     1       2.964   5.700  16.920  0.00  0.00    +0.102 HD
ENDBRANCH  23  24
ENDBRANCH  22  23
ENDBRANCH  19  22
ENDBRANCH  17  18
ENDBRANCH  16  17
ENDBRANCH  13  16
ENDBRANCH  11  12
BRANCH  11  26
ATOM     26  O   UNL     1       7.481   5.551  21.680  0.00  0.00    -0.382 OA
ATOM     27  H   UNL     1       7.480   4.591  21.550  0.00  0.00    +0.210 HD
ENDBRANCH  11  26
ENDBRANCH   9  11
ENDBRANCH   7   9
ENDBRANCH   6   7
ENDBRANCH   2   6
ENDBRANCH   1   2
BRANCH   1  28
ATOM     28  P   UNL     1       9.110   0.286  24.887  0.00  0.00    +0.483 P 
ATOM     29  O   UNL     1      10.562   0.218  25.240  0.00  0.00    -0.227 OA
BRANCH  28  30
ATOM     30  O   UNL     1       8.882  -0.370  23.440  0.00  0.00    -0.302 OA
ATOM     31  H   UNL     1       9.370  -1.207  23.323  0.00  0.00    +0.222 HD
ENDBRANCH  28  30
BRANCH  28  32
ATOM     32  O   UNL     1       8.216  -0.700  25.824  0.00  0.00    -0.284 OA
BRANCH  32  33
ATOM     33  C   UNL     1       8.765  -1.933  26.336  0.00  0.00    +0.206 C 
BRANCH  33  34
ATOM     34  C   UNL     1       8.838  -3.275  25.491  0.00  0.00    +0.178 C 
ATOM     35  C   UNL     1       9.301  -4.589  26.140  0.00  0.00    +0.178 C 
ATOM     36  C   UNL     1       8.076  -5.495  26.168  0.00  0.00    +0.195 C 
ATOM     37  C   UNL     1       6.966  -4.645  25.553  0.00  0.00    +0.253 C 
ATOM     38  O   UNL     1       7.595  -3.583  24.817  0.00  0.00    -0.346 OA
BRANCH  37  39
ATOM     39  N   UNL     1       6.059  -5.410  24.707  0.00  0.00    -0.286 N 
ATOM     40  C   UNL     1       5.010  -6.145  25.202  0.00  0.00    +0.167 A 
ATOM     41  N   UNL     1       4.695  -6.338  26.496  0.00  0.00    -0.216 NA
ATOM     42  C   UNL     1       3.556  -7.052  26.605  0.00  0.00    +0.225 A 
ATOM     43  N   UNL     1       2.778  -7.544  25.619  0.00  0.00    -0.219 NA
ATOM     44  C   UNL     1       3.151  -7.349  24.335  0.00  0.00    +0.147 A 
ATOM     45  N   UNL     1       2.327  -7.845  23.335  0.00  0.00    -0.341 N 
ATOM     46  H   UNL     1       2.441  -7.372  22.446  0.00  0.00    +0.144 HD
ATOM     47  H   UNL     1       1.378  -7.984  23.666  0.00  0.00    +0.144 HD
ATOM     48  C   UNL     1       4.329  -6.616  24.090  0.00  0.00    +0.147 A 
ATOM     49  N   UNL     1       4.970  -6.219  22.935  0.00  0.00    -0.231 NA
ATOM     50  C   UNL     1       6.005  -5.504  23.340  0.00  0.00    +0.203 A 
ENDBRANCH  37  39
BRANCH  36  51
ATOM     51  O   UNL     1       7.758  -5.879  27.517  0.00  0.00    -0.385 OA
ATOM     52  H   UNL     1       8.603  -5.908  28.010  0.00  0.00    +0.210 HD
ENDBRANCH  36  51
BRANCH  35  53
ATOM     53  O   UNL     1      10.303  -5.208  25.294  0.00  0.00    -0.386 OA
ATOM     54  H   UNL     1      10.563  -4.590  24.585  0.00  0.00    +0.210 HD
ENDBRANCH  35  53
ENDBRANCH  33  34
ENDBRANCH  32  33
ENDBRANCH  28  32
ENDBRANCH   1  28
TORSDOF 22
ENDMDL
MODEL 9
REMARK VINA RESULT:      -6.4      3.331     10.013
REMARK  Name = 
REMARK  24 active torsions:
REMARK  status: ('A' for Active; 'I' for Inactive)
REMARK    1  A    between atoms: C_1  and  C_2
REMARK    2  A    between atoms: C_2  and  C_3
REMARK    3  A    between atoms: C_2  and  C_4
REMARK    4  A    between atoms: C_2  and  C_36
REMARK    5  A    between atoms: C_4  and  O_5
REMARK    6  A    between atoms: O_5  and  P_6
REMARK    7  A    between atoms: P_6  and  O_7
REMARK    8  A    between atoms: P_6  and  O_9
REMARK    9  A    between atoms: O_9  and  P_10
REMARK   10  A    between atoms: P_10  and  O_11
REMARK   11  A    between atoms: P_10  and  O_13
REMARK   12  A    between atoms: O_13  and  C_14
REMARK   13  A    between atoms: C_14  and  C_15
REMARK   14  A    between atoms: C_18  and  N_26
REMARK   15  A    between atoms: C_20  and  O_22
REMARK   16  A    between atoms: C_23  and  O_25
REMARK   17  A    between atoms: C_36  and  O_38
REMARK   18  A    between atoms: C_36  and  C_39
REMARK   19  A    between atoms: N_41  and  C_42
REMARK   20  A    between atoms: C_42  and  C_43
REMARK   21  A    between atoms: C_43  and  C_44
REMARK   22  A    between atoms: N_46  and  C_47
REMARK   23  A    between atoms: C_47  and  C_48
REMARK   24  A    between atoms: C_48  and  S_49
REMARK                            x       y       z     vdW  Elec       q    Type
REMARK                         _______ _______ _______ _____ _____    ______ ____
ROOT
ATOM      1  O   UNL     1       7.783   2.212  24.118  0.00  0.00    -0.186 OA
ENDROOT
BRANCH   1   2
ATOM      2  P   UNL     1       8.953   2.235  22.845  0.00  0.00    +0.483 P 
ATOM      3  O   UNL     1       7.943   2.824  21.860  0.00  0.00    -0.227 OA
BRANCH   2   4
ATOM      4  O   UNL     1      10.125   2.256  21.572  0.00  0.00    -0.302 OA
ATOM      5  H   UNL     1      10.268   1.302  21.396  0.00  0.00    +0.222 HD
ENDBRANCH   2   4
BRANCH   2   6
ATOM      6  O   UNL     1       9.759   3.445  23.586  0.00  0.00    -0.286 OA
BRANCH   6   7
ATOM      7  C   UNL     1       9.031   4.202  24.532  0.00  0.00    +0.181 C 
BRANCH   7   9
ATOM      8  C   UNL     1       8.959   6.407  25.662  0.00  0.00    +0.016 C 
ATOM      9  C   UNL     1       9.112   5.729  24.277  0.00  0.00    +0.024 C 
ATOM     10  C   UNL     1      10.502   6.124  23.744  0.00  0.00    +0.016 C 
BRANCH   9  11
ATOM     11  C   UNL     1       7.975   6.190  23.314  0.00  0.00    +0.208 C 
BRANCH  11  12
ATOM     12  C   UNL     1       6.549   5.682  23.643  0.00  0.00    +0.242 C 
ATOM     13  N   UNL     1       5.971   4.968  22.604  0.00  0.00    -0.313 N 
ATOM     14  H   UNL     1       6.624   4.380  22.095  0.00  0.00    +0.149 HD
ATOM     15  O   UNL     1       5.954   5.861  24.700  0.00  0.00    -0.273 OA
BRANCH  13  16
ATOM     16  C   UNL     1       4.602   4.503  22.750  0.00  0.00    +0.113 C 
BRANCH  16  17
ATOM     17  C   UNL     1       4.545   3.013  23.071  0.00  0.00    +0.114 C 
BRANCH  17  18
ATOM     18  C   UNL     1       4.178   2.792  24.523  0.00  0.00    +0.215 C 
ATOM     19  N   UNL     1       5.241   2.886  25.386  0.00  0.00    -0.314 N 
ATOM     20  H   UNL     1       6.186   2.901  25.008  0.00  0.00    +0.149 HD
ATOM     21  O   UNL     1       3.026   2.601  24.894  0.00  0.00    -0.276 OA
BRANCH  19  22
ATOM     22  C   UNL     1       5.077   2.677  26.817  0.00  0.00    +0.114 C 
BRANCH  22  23
ATOM     23  C   UNL     1       6.375   2.853  27.610  0.00  0.00    +0.084 C 
BRANCH  23  24
ATOM     24  S   UNL     1       6.633   4.589  28.104  0.00  0.00    -0.177 S 
ATOM     25  H   UNL     1       7.520   4.330  29.077  0.00  0.00    +0.102 HD
ENDBRANCH  23  24
ENDBRANCH  22  23
ENDBRANCH  19  22
ENDBRANCH  17  18
ENDBRANCH  16  17
ENDBRANCH  13  16
ENDBRANCH  11  12
BRANCH  11  26
ATOM     26  O   UNL     1       8.226   5.818  21.950  0.00  0.00    -0.382 OA
ATOM     27  H   UNL     1       9.183   5.829  21.799  0.00  0.00    +0.210 HD
ENDBRANCH  11  26
ENDBRANCH   9  11
ENDBRANCH   7   9
ENDBRANCH   6   7
ENDBRANCH   2   6
ENDBRANCH   1   2
BRANCH   1  28
ATOM     28  P   UNL     1       7.584   0.532  24.193  0.00  0.00    +0.483 P 
ATOM     29  O   UNL     1       6.910   0.053  25.440  0.00  0.00    -0.227 OA
BRANCH  28  30
ATOM     30  O   UNL     1       9.106   0.021  24.179  0.00  0.00    -0.302 OA
ATOM     31  H   UNL     1       9.508   0.007  25.068  0.00  0.00    +0.222 HD
ENDBRANCH  28  30
BRANCH  28  32
ATOM     32  O   UNL     1       6.993  -0.207  22.868  0.00  0.00    -0.284 OA
BRANCH  32  33
ATOM     33  C   UNL     1       7.279  -1.597  22.606  0.00  0.00    +0.206 C 
BRANCH  33  34
ATOM     34  C   UNL     1       6.338  -2.787  23.072  0.00  0.00    +0.178 C 
ATOM     35  C   UNL     1       6.412  -4.162  22.391  0.00  0.00    +0.178 C 
ATOM     36  C   UNL     1       6.969  -5.118  23.440  0.00  0.00    +0.195 C 
ATOM     37  C   UNL     1       7.206  -4.236  24.663  0.00  0.00    +0.253 C 
ATOM     38  O   UNL     1       6.421  -3.044  24.494  0.00  0.00    -0.346 OA
BRANCH  37  39
ATOM     39  N   UNL     1       6.893  -4.902  25.921  0.00  0.00    -0.286 N 
ATOM     40  C   UNL     1       5.642  -5.381  26.225  0.00  0.00    +0.167 A 
ATOM     41  N   UNL     1       4.526  -5.262  25.484  0.00  0.00    -0.216 NA
ATOM     42  C   UNL     1       3.501  -5.922  26.061  0.00  0.00    +0.225 A 
ATOM     43  N   UNL     1       3.499  -6.626  27.212  0.00  0.00    -0.219 NA
ATOM     44  C   UNL     1       4.638  -6.693  27.936  0.00  0.00    +0.147 A 
ATOM     45  N   UNL     1       4.622  -7.438  29.107  0.00  0.00    -0.341 N 
ATOM     46  H   UNL     1       5.540  -7.755  29.397  0.00  0.00    +0.144 HD
ATOM     47  H   UNL     1       3.876  -8.126  29.102  0.00  0.00    +0.144 HD
ATOM     48  C   UNL     1       5.783  -6.040  27.438  0.00  0.00    +0.147 A 
ATOM     49  N   UNL     1       7.079  -5.929  27.893  0.00  0.00    -0.231 NA
ATOM     50  C   UNL     1       7.716  -5.237  26.965  0.00  0.00    +0.203 A 
ENDBRANCH  37  39
BRANCH  36  51
ATOM     51  O   UNL     1       8.191  -5.721  22.980  0.00  0.00    -0.385 OA
ATOM     52  H   UNL     1       7.965  -6.252  22.189  0.00  0.00    +0.210 HD
ENDBRANCH  36  51
BRANCH  35  53
ATOM     53  O   UNL     1       5.071  -4.595  22.050  0.00  0.00    -0.386 OA
ATOM     54  H   UNL     1       4.833  -4.265  21.163  0.00  0.00    +0.210 HD
ENDBRANCH  35  53
ENDBRANCH  33  34
ENDBRANCH  32  33
ENDBRANCH  28  32
ENDBRANCH   1  28
TORSDOF 22
ENDMDL
