MODEL 1
REMARK VINA RESULT:      -5.5      0.000      0.000
REMARK  Name = 
REMARK  5 active torsions:
REMARK  status: ('A' for Active; 'I' for Inactive)
REMARK    1  A    between atoms: C_1  and  N_2
REMARK    2  A    between atoms: N_2  and  C_3
REMARK    3  A    between atoms: N_2  and  C_4
REMARK    4  A    between atoms: C_4  and  C_5
REMARK    5  A    between atoms: C_5  and  C_6
REMARK                            x       y       z     vdW  Elec       q    Type
REMARK                         _______ _______ _______ _____ _____    ______ ____
ROOT
ATOM      1  C   UNL     1       9.717  -1.687  23.097  0.00  0.00    -0.021 A 
ATOM      2  C   UNL     1      10.011  -0.299  23.287  0.00  0.00    +0.003 A 
ATOM      3  C   UNL     1       9.779   0.348  22.074  0.00  0.00    +0.047 A 
ATOM      4  C   UNL     1       9.976   1.723  21.896  0.00  0.00    +0.026 A 
ATOM      5  C   UNL     1      10.423   2.460  22.997  0.00  0.00    +0.002 A 
ATOM      6  C   UNL     1      10.658   1.844  24.224  0.00  0.00    +0.001 A 
ATOM      7  N   UNL     1       9.352  -0.607  21.181  0.00  0.00    -0.360 N 
ATOM      8  H   UNL     1       9.109  -0.423  20.218  0.00  0.00    +0.165 HD
ATOM      9  C   UNL     1      10.457   0.468  24.382  0.00  0.00    +0.010 A 
ATOM     10  C   UNL     1       9.311  -1.834  21.784  0.00  0.00    +0.087 A 
ENDROOT
BRANCH   1  11
ATOM     11  C   UNL     1       9.832  -2.780  24.117  0.00  0.00    +0.052 C 
BRANCH  11  12
ATOM     12  C   UNL     1       8.476  -3.118  24.760  0.00  0.00    +0.088 C 
BRANCH  12  14
ATOM     13  C   UNL     1       7.738  -5.018  23.483  0.00  0.00    +0.104 C 
ATOM     14  N   UNL     1       8.161  -4.563  24.811  0.00  0.00    -0.308 NA
ATOM     15  C   UNL     1       9.301  -5.363  25.262  0.00  0.00    +0.104 C 
ENDBRANCH  12  14
ENDBRANCH  11  12
ENDBRANCH   1  11
TORSDOF 3
ENDMDL
MODEL 2
REMARK VINA RESULT:      -5.2      1.693      2.385
REMARK  Name = 
REMARK  5 active torsions:
REMARK  status: ('A' for Active; 'I' for Inactive)
REMARK    1  A    between atoms: C_1  and  N_2
REMARK    2  A    between atoms: N_2  and  C_3
REMARK    3  A    between atoms: N_2  and  C_4
REMARK    4  A    between atoms: C_4  and  C_5
REMARK    5  A    between atoms: C_5  and  C_6
REMARK                            x       y       z     vdW  Elec       q    Type
REMARK                         _______ _______ _______ _____ _____    ______ ____
ROOT
ATOM      1  C   UNL     1       9.572  -1.130  24.450  0.00  0.00    -0.021 A 
ATOM      2  C   UNL     1       9.688   0.127  23.774  0.00  0.00    +0.003 A 
ATOM      3  C   UNL     1       9.323   1.125  24.676  0.00  0.00    +0.047 A 
ATOM      4  C   UNL     1       9.311   2.484  24.342  0.00  0.00    +0.026 A 
ATOM      5  C   UNL     1       9.689   2.834  23.042  0.00  0.00    +0.002 A 
ATOM      6  C   UNL     1      10.066   1.861  22.118  0.00  0.00    +0.001 A 
ATOM      7  N   UNL     1       9.005   0.503  25.860  0.00  0.00    -0.360 N 
ATOM      8  H   UNL     1       8.703   0.982  26.697  0.00  0.00    +0.165 HD
ATOM      9  C   UNL     1      10.069   0.507  22.471  0.00  0.00    +0.010 A 
ATOM     10  C   UNL     1       9.150  -0.852  25.737  0.00  0.00    +0.087 A 
ENDROOT
BRANCH   1  11
ATOM     11  C   UNL     1       9.845  -2.489  23.881  0.00  0.00    +0.052 C 
BRANCH  11  12
ATOM     12  C   UNL     1       8.551  -3.281  23.624  0.00  0.00    +0.088 C 
BRANCH  12  14
ATOM     13  C   UNL     1       9.510  -4.792  25.231  0.00  0.00    +0.104 C 
ATOM     14  N   UNL     1       8.581  -4.681  24.102  0.00  0.00    -0.308 NA
ATOM     15  C   UNL     1       7.258  -5.157  24.507  0.00  0.00    +0.104 C 
ENDBRANCH  12  14
ENDBRANCH  11  12
ENDBRANCH   1  11
TORSDOF 3
ENDMDL
MODEL 3
REMARK VINA RESULT:      -5.0      1.371      1.606
REMARK  Name = 
REMARK  5 active torsions:
REMARK  status: ('A' for Active; 'I' for Inactive)
REMARK    1  A    between atoms: C_1  and  N_2
REMARK    2  A    between atoms: N_2  and  C_3
REMARK    3  A    between atoms: N_2  and  C_4
REMARK    4  A    between atoms: C_4  and  C_5
REMARK    5  A    between atoms: C_5  and  C_6
REMARK                            x       y       z     vdW  Elec       q    Type
REMARK                         _______ _______ _______ _____ _____    ______ ____
ROOT
ATOM      1  C   UNL     1       8.805  -1.511  24.374  0.00  0.00    -0.021 A 
ATOM      2  C   UNL     1       9.296  -0.262  23.876  0.00  0.00    +0.003 A 
ATOM      3  C   UNL     1       9.217  -0.305  22.485  0.00  0.00    +0.047 A 
ATOM      4  C   UNL     1       9.627   0.755  21.667  0.00  0.00    +0.026 A 
ATOM      5  C   UNL     1      10.133   1.898  22.295  0.00  0.00    +0.002 A 
ATOM      6  C   UNL     1      10.219   1.975  23.684  0.00  0.00    +0.001 A 
ATOM      7  N   UNL     1       8.689  -1.528  22.147  0.00  0.00    -0.360 N 
ATOM      8  H   UNL     1       8.519  -1.837  21.200  0.00  0.00    +0.165 HD
ATOM      9  C   UNL     1       9.805   0.904  24.484  0.00  0.00    +0.010 A 
ATOM     10  C   UNL     1       8.438  -2.263  23.273  0.00  0.00    +0.087 A 
ENDROOT
BRANCH   1  11
ATOM     11  C   UNL     1       8.709  -1.935  25.808  0.00  0.00    +0.052 C 
BRANCH  11  12
ATOM     12  C   UNL     1       7.875  -3.217  25.980  0.00  0.00    +0.088 C 
BRANCH  12  14
ATOM     13  C   UNL     1       7.656  -5.348  27.072  0.00  0.00    +0.104 C 
ATOM     14  N   UNL     1       8.612  -4.355  26.571  0.00  0.00    -0.308 NA
ATOM     15  C   UNL     1       9.517  -4.989  25.611  0.00  0.00    +0.104 C 
ENDBRANCH  12  14
ENDBRANCH  11  12
ENDBRANCH   1  11
TORSDOF 3
ENDMDL
MODEL 4
REMARK VINA RESULT:      -4.9      2.486      3.987
REMARK  Name = 
REMARK  5 active torsions:
REMARK  status: ('A' for Active; 'I' for Inactive)
REMARK    1  A    between atoms: C_1  and  N_2
REMARK    2  A    between atoms: N_2  and  C_3
REMARK    3  A    between atoms: N_2  and  C_4
REMARK    4  A    between atoms: C_4  and  C_5
REMARK    5  A    between atoms: C_5  and  C_6
REMARK                            x       y       z     vdW  Elec       q    Type
REMARK                         _______ _______ _______ _____ _____    ______ ____
ROOT
ATOM      1  C   UNL     1       9.856   1.909  24.023  0.00  0.00    -0.021 A 
ATOM      2  C   UNL     1      10.287   3.263  23.851  0.00  0.00    +0.003 A 
ATOM      3  C   UNL     1       9.221   4.090  24.200  0.00  0.00    +0.047 A 
ATOM      4  C   UNL     1       9.291   5.487  24.140  0.00  0.00    +0.026 A 
ATOM      5  C   UNL     1      10.494   6.056  23.710  0.00  0.00    +0.002 A 
ATOM      6  C   UNL     1      11.580   5.257  23.360  0.00  0.00    +0.001 A 
ATOM      7  N   UNL     1       8.182   3.273  24.580  0.00  0.00    -0.360 N 
ATOM      8  H   UNL     1       7.277   3.601  24.886  0.00  0.00    +0.165 HD
ATOM      9  C   UNL     1      11.490   3.862  23.425  0.00  0.00    +0.010 A 
ATOM     10  C   UNL     1       8.551   1.960  24.477  0.00  0.00    +0.087 A 
ENDROOT
BRANCH   1  11
ATOM     11  C   UNL     1      10.654   0.668  23.758  0.00  0.00    +0.052 C 
BRANCH  11  12
ATOM     12  C   UNL     1       9.949  -0.597  24.279  0.00  0.00    +0.088 C 
BRANCH  12  14
ATOM     13  C   UNL     1       9.544  -2.959  24.083  0.00  0.00    +0.104 C 
ATOM     14  N   UNL     1      10.068  -1.776  23.394  0.00  0.00    -0.308 NA
ATOM     15  C   UNL     1       9.360  -1.593  22.126  0.00  0.00    +0.104 C 
ENDBRANCH  12  14
ENDBRANCH  11  12
ENDBRANCH   1  11
TORSDOF 3
ENDMDL
MODEL 5
REMARK VINA RESULT:      -4.8      1.890      2.761
REMARK  Name = 
REMARK  5 active torsions:
REMARK  status: ('A' for Active; 'I' for Inactive)
REMARK    1  A    between atoms: C_1  and  N_2
REMARK    2  A    between atoms: N_2  and  C_3
REMARK    3  A    between atoms: N_2  and  C_4
REMARK    4  A    between atoms: C_4  and  C_5
REMARK    5  A    between atoms: C_5  and  C_6
REMARK                            x       y       z     vdW  Elec       q    Type
REMARK                         _______ _______ _______ _____ _____    ______ ____
ROOT
ATOM      1  C   UNL     1      10.097  -0.086  23.358  0.00  0.00    -0.021 A 
ATOM      2  C   UNL     1       9.256   0.963  22.865  0.00  0.00    +0.003 A 
ATOM      3  C   UNL     1       9.383   2.045  23.735  0.00  0.00    +0.047 A 
ATOM      4  C   UNL     1       8.686   3.247  23.559  0.00  0.00    +0.026 A 
ATOM      5  C   UNL     1       7.834   3.345  22.454  0.00  0.00    +0.002 A 
ATOM      6  C   UNL     1       7.691   2.284  21.563  0.00  0.00    +0.001 A 
ATOM      7  N   UNL     1      10.273   1.674  24.715  0.00  0.00    -0.360 N 
ATOM      8  H   UNL     1      10.556   2.264  25.484  0.00  0.00    +0.165 HD
ATOM      9  C   UNL     1       8.395   1.089  21.756  0.00  0.00    +0.010 A 
ATOM     10  C   UNL     1      10.708   0.395  24.500  0.00  0.00    +0.087 A 
ENDROOT
BRANCH   1  11
ATOM     11  C   UNL     1      10.280  -1.450  22.762  0.00  0.00    +0.052 C 
BRANCH  11  12
ATOM     12  C   UNL     1       9.907  -2.569  23.750  0.00  0.00    +0.088 C 
BRANCH  12  14
ATOM     13  C   UNL     1       7.958  -2.751  22.352  0.00  0.00    +0.104 C 
ATOM     14  N   UNL     1       8.489  -2.988  23.698  0.00  0.00    -0.308 NA
ATOM     15  C   UNL     1       8.314  -4.397  24.053  0.00  0.00    +0.104 C 
ENDBRANCH  12  14
ENDBRANCH  11  12
ENDBRANCH   1  11
TORSDOF 3
ENDMDL
MODEL 6
REMARK VINA RESULT:      -4.8      1.739      5.716
REMARK  Name = 
REMARK  5 active torsions:
REMARK  status: ('A' for Active; 'I' for Inactive)
REMARK    1  A    between atoms: C_1  and  N_2
REMARK    2  A    between atoms: N_2  and  C_3
REMARK    3  A    between atoms: N_2  and  C_4
REMARK    4  A    between atoms: C_4  and  C_5
REMARK    5  A    between atoms: C_5  and  C_6
REMARK                            x       y       z     vdW  Elec       q    Type
REMARK                         _______ _______ _______ _____ _____    ______ ____
ROOT
ATOM      1  C   UNL     1       8.737  -3.058  23.686  0.00  0.00    -0.021 A 
ATOM      2  C   UNL     1       8.220  -3.887  24.733  0.00  0.00    +0.003 A 
ATOM      3  C   UNL     1       6.980  -4.367  24.314  0.00  0.00    +0.047 A 
ATOM      4  C   UNL     1       6.185  -5.207  25.103  0.00  0.00    +0.026 A 
ATOM      5  C   UNL     1       6.676  -5.569  26.361  0.00  0.00    +0.002 A 
ATOM      6  C   UNL     1       7.914  -5.110  26.807  0.00  0.00    +0.001 A 
ATOM      7  N   UNL     1       6.753  -3.860  23.056  0.00  0.00    -0.360 N 
ATOM      8  H   UNL     1       5.927  -4.043  22.505  0.00  0.00    +0.165 HD
ATOM      9  C   UNL     1       8.694  -4.270  26.004  0.00  0.00    +0.010 A 
ATOM     10  C   UNL     1       7.802  -3.071  22.668  0.00  0.00    +0.087 A 
ENDROOT
BRANCH   1  11
ATOM     11  C   UNL     1      10.036  -2.311  23.686  0.00  0.00    +0.052 C 
BRANCH  11  12
ATOM     12  C   UNL     1       9.882  -0.879  24.227  0.00  0.00    +0.088 C 
BRANCH  12  14
ATOM     13  C   UNL     1       9.882   0.357  22.164  0.00  0.00    +0.104 C 
ATOM     14  N   UNL     1      10.582   0.157  23.437  0.00  0.00    -0.308 NA
ATOM     15  C   UNL     1      10.675   1.431  24.150  0.00  0.00    +0.104 C 
ENDBRANCH  12  14
ENDBRANCH  11  12
ENDBRANCH   1  11
TORSDOF 3
ENDMDL
MODEL 7
REMARK VINA RESULT:      -4.7      2.083      2.607
REMARK  Name = 
REMARK  5 active torsions:
REMARK  status: ('A' for Active; 'I' for Inactive)
REMARK    1  A    between atoms: C_1  and  N_2
REMARK    2  A    between atoms: N_2  and  C_3
REMARK    3  A    between atoms: N_2  and  C_4
REMARK    4  A    between atoms: C_4  and  C_5
REMARK    5  A    between atoms: C_5  and  C_6
REMARK                            x       y       z     vdW  Elec       q    Type
REMARK                         _______ _______ _______ _____ _____    ______ ____
ROOT
ATOM      1  C   UNL     1       7.792  -1.678  22.613  0.00  0.00    -0.021 A 
ATOM      2  C   UNL     1       7.961  -0.259  22.520  0.00  0.00    +0.003 A 
ATOM      3  C   UNL     1       9.239  -0.021  22.018  0.00  0.00    +0.047 A 
ATOM      4  C   UNL     1       9.745   1.268  21.808  0.00  0.00    +0.026 A 
ATOM      5  C   UNL     1       8.914   2.348  22.119  0.00  0.00    +0.002 A 
ATOM      6  C   UNL     1       7.628   2.143  22.616  0.00  0.00    +0.001 A 
ATOM      7  N   UNL     1       9.825  -1.246  21.804  0.00  0.00    -0.360 N 
ATOM      8  H   UNL     1      10.758  -1.380  21.442  0.00  0.00    +0.165 HD
ATOM      9  C   UNL     1       7.140   0.848  22.821  0.00  0.00    +0.010 A 
ATOM     10  C   UNL     1       8.965  -2.250  22.158  0.00  0.00    +0.087 A 
ENDROOT
BRANCH   1  11
ATOM     11  C   UNL     1       6.583  -2.411  23.111  0.00  0.00    +0.052 C 
BRANCH  11  12
ATOM     12  C   UNL     1       5.924  -3.259  22.009  0.00  0.00    +0.088 C 
BRANCH  12  14
ATOM     13  C   UNL     1       6.247  -5.490  21.172  0.00  0.00    +0.104 C 
ATOM     14  N   UNL     1       5.810  -4.699  22.326  0.00  0.00    -0.308 NA
ATOM     15  C   UNL     1       6.597  -5.072  23.503  0.00  0.00    +0.104 C 
ENDBRANCH  12  14
ENDBRANCH  11  12
ENDBRANCH   1  11
TORSDOF 3
ENDMDL
MODEL 8
REMARK VINA RESULT:      -4.7      1.632      5.680
REMARK  Name = 
REMARK  5 active torsions:
REMARK  status: ('A' for Active; 'I' for Inactive)
REMARK    1  A    between atoms: C_1  and  N_2
REMARK    2  A    between atoms: N_2  and  C_3
REMARK    3  A    between atoms: N_2  and  C_4
REMARK    4  A    between atoms: C_4  and  C_5
REMARK    5  A    between atoms: C_5  and  C_6
REMARK                            x       y       z     vdW  Elec       q    Type
REMARK                         _______ _______ _______ _____ _____    ______ ____
ROOT
ATOM      1  C   UNL     1       9.175  -1.823  22.542  0.00  0.00    -0.021 A 
ATOM      2  C   UNL     1       8.091  -2.736  22.745  0.00  0.00    +0.003 A 
ATOM      3  C   UNL     1       8.438  -3.569  23.807  0.00  0.00    +0.047 A 
ATOM      4  C   UNL     1       7.605  -4.594  24.272  0.00  0.00    +0.026 A 
ATOM      5  C   UNL     1       6.375  -4.770  23.630  0.00  0.00    +0.002 A 
ATOM      6  C   UNL     1       5.997  -3.950  22.569  0.00  0.00    +0.001 A 
ATOM      7  N   UNL     1       9.681  -3.174  24.242  0.00  0.00    -0.360 N 
ATOM      8  H   UNL     1      10.184  -3.604  25.005  0.00  0.00    +0.165 HD
ATOM      9  C   UNL     1       6.843  -2.931  22.117  0.00  0.00    +0.010 A 
ATOM     10  C   UNL     1      10.135  -2.126  23.489  0.00  0.00    +0.087 A 
ENDROOT
BRANCH   1  11
ATOM     11  C   UNL     1       9.265  -0.747  21.502  0.00  0.00    +0.052 C 
BRANCH  11  12
ATOM     12  C   UNL     1       9.869   0.552  22.062  0.00  0.00    +0.088 C 
BRANCH  12  14
ATOM     13  C   UNL     1       9.732   1.723  24.158  0.00  0.00    +0.104 C 
ATOM     14  N   UNL     1       8.977   1.302  22.973  0.00  0.00    -0.308 NA
ATOM     15  C   UNL     1       8.384   2.475  22.328  0.00  0.00    +0.104 C 
ENDBRANCH  12  14
ENDBRANCH  11  12
ENDBRANCH   1  11
TORSDOF 3
ENDMDL
MODEL 9
REMARK VINA RESULT:      -4.6      1.918      5.651
REMARK  Name = 
REMARK  5 active torsions:
REMARK  status: ('A' for Active; 'I' for Inactive)
REMARK    1  A    between atoms: C_1  and  N_2
REMARK    2  A    between atoms: N_2  and  C_3
REMARK    3  A    between atoms: N_2  and  C_4
REMARK    4  A    between atoms: C_4  and  C_5
REMARK    5  A    between atoms: C_5  and  C_6
REMARK                            x       y       z     vdW  Elec       q    Type
REMARK                         _______ _______ _______ _____ _____    ______ ____
ROOT
ATOM      1  C   UNL     1       9.094  -3.087  24.087  0.00  0.00    -0.021 A 
ATOM      2  C   UNL     1       7.952  -3.470  23.313  0.00  0.00    +0.003 A 
ATOM      3  C   UNL     1       7.663  -4.799  23.622  0.00  0.00    +0.047 A 
ATOM      4  C   UNL     1       6.604  -5.502  23.035  0.00  0.00    +0.026 A 
ATOM      5  C   UNL     1       5.814  -4.822  22.102  0.00  0.00    +0.002 A 
ATOM      6  C   UNL     1       6.074  -3.492  21.777  0.00  0.00    +0.001 A 
ATOM      7  N   UNL     1       8.586  -5.208  24.555  0.00  0.00    -0.360 N 
ATOM      8  H   UNL     1       8.618  -6.131  24.963  0.00  0.00    +0.165 HD
ATOM      9  C   UNL     1       7.138  -2.806  22.373  0.00  0.00    +0.010 A 
ATOM     10  C   UNL     1       9.453  -4.189  24.842  0.00  0.00    +0.087 A 
ENDROOT
BRANCH   1  11
ATOM     11  C   UNL     1       9.782  -1.755  24.081  0.00  0.00    +0.052 C 
BRANCH  11  12
ATOM     12  C   UNL     1       9.178  -0.787  25.114  0.00  0.00    +0.088 C 
BRANCH  12  14
ATOM     13  C   UNL     1      10.973   0.685  24.484  0.00  0.00    +0.104 C 
ATOM     14  N   UNL     1       9.581   0.626  24.942  0.00  0.00    -0.308 NA
ATOM     15  C   UNL     1       8.723   1.335  23.992  0.00  0.00    +0.104 C 
ENDBRANCH  12  14
ENDBRANCH  11  12
ENDBRANCH   1  11
TORSDOF 3
ENDMDL
