MODEL 1
REMARK VINA RESULT:      -5.7      0.000      0.000
REMARK  Name = 
REMARK  6 active torsions:
REMARK  status: ('A' for Active; 'I' for Inactive)
REMARK    1  A    between atoms: O_1  and  C_2
REMARK    2  A    between atoms: C_2  and  C_4
REMARK    3  A    between atoms: C_4  and  O_5
REMARK    4  A    between atoms: O_5  and  C_6
REMARK    5  A    between atoms: C_7  and  C_15
REMARK    6  A    between atoms: C_15  and  O_16
REMARK                            x       y       z     vdW  Elec       q    Type
REMARK                         _______ _______ _______ _____ _____    ______ ____
ROOT
ATOM      1  C   UNL     1       6.817  -4.789  24.066  0.00  0.00    +0.152 A 
ATOM      2  C   UNL     1       7.870  -3.835  23.816  0.00  0.00    +0.050 A 
ATOM      3  C   UNL     1       7.630  -3.165  22.620  0.00  0.00    +0.113 A 
ATOM      4  N   UNL     1       8.404  -2.222  22.046  0.00  0.00    -0.248 NA
ATOM      5  C   UNL     1       9.515  -1.918  22.741  0.00  0.00    +0.112 A 
ATOM      6  C   UNL     1       9.875  -2.484  23.949  0.00  0.00    +0.020 A 
ATOM      7  S   UNL     1       6.180  -3.630  21.870  0.00  0.00    -0.059 S 
ATOM      8  C   UNL     1       9.044  -3.450  24.507  0.00  0.00    +0.016 A 
ATOM      9  C   UNL     1       5.818  -4.754  23.106  0.00  0.00    +0.140 A 
ENDROOT
BRANCH   9  10
ATOM     10  C   UNL     1       4.607  -5.555  23.070  0.00  0.00    +0.347 C 
ATOM     11  O   UNL     1       3.495  -5.137  22.779  0.00  0.00    -0.244 OA
BRANCH  10  12
ATOM     12  O   UNL     1       4.808  -6.860  23.403  0.00  0.00    -0.477 OA
ATOM     13  H   UNL     1       4.644  -7.034  24.351  0.00  0.00    +0.295 HD
ENDBRANCH  10  12
ENDBRANCH   9  10
BRANCH   1  14
ATOM     14  O   UNL     1       6.672  -5.638  25.121  0.00  0.00    -0.479 OA
BRANCH  14  15
ATOM     15  C   UNL     1       6.163  -5.051  26.314  0.00  0.00    +0.349 C 
BRANCH  15  16
ATOM     16  C   UNL     1       7.009  -5.458  27.508  0.00  0.00    +0.343 C 
ATOM     17  O   UNL     1       6.569  -5.530  28.646  0.00  0.00    -0.247 OA
BRANCH  16  18
ATOM     18  O   UNL     1       8.300  -5.735  27.205  0.00  0.00    -0.478 OA
ATOM     19  H   UNL     1       8.385  -6.218  26.347  0.00  0.00    +0.295 HD
ENDBRANCH  16  18
ENDBRANCH  15  16
ENDBRANCH  14  15
ENDBRANCH   1  14
TORSDOF 6
ENDMDL
MODEL 2
REMARK VINA RESULT:      -5.6      2.196      4.184
REMARK  Name = 
REMARK  6 active torsions:
REMARK  status: ('A' for Active; 'I' for Inactive)
REMARK    1  A    between atoms: O_1  and  C_2
REMARK    2  A    between atoms: C_2  and  C_4
REMARK    3  A    between atoms: C_4  and  O_5
REMARK    4  A    between atoms: O_5  and  C_6
REMARK    5  A    between atoms: C_7  and  C_15
REMARK    6  A    between atoms: C_15  and  O_16
REMARK                            x       y       z     vdW  Elec       q    Type
REMARK                         _______ _______ _______ _____ _____    ______ ____
ROOT
ATOM      1  C   UNL     1       8.168  -3.798  23.842  0.00  0.00    +0.152 A 
ATOM      2  C   UNL     1       8.880  -2.556  23.659  0.00  0.00    +0.050 A 
ATOM      3  C   UNL     1       8.992  -1.889  24.875  0.00  0.00    +0.113 A 
ATOM      4  N   UNL     1       9.569  -0.690  25.095  0.00  0.00    -0.248 NA
ATOM      5  C   UNL     1      10.089  -0.115  23.996  0.00  0.00    +0.112 A 
ATOM      6  C   UNL     1      10.072  -0.665  22.728  0.00  0.00    +0.020 A 
ATOM      7  S   UNL     1       8.317  -2.746  26.175  0.00  0.00    -0.059 S 
ATOM      8  C   UNL     1       9.470  -1.906  22.548  0.00  0.00    +0.016 A 
ATOM      9  C   UNL     1       7.838  -4.040  25.166  0.00  0.00    +0.140 A 
ENDROOT
BRANCH   9  10
ATOM     10  C   UNL     1       7.151  -5.202  25.700  0.00  0.00    +0.347 C 
ATOM     11  O   UNL     1       7.530  -5.867  26.655  0.00  0.00    -0.244 OA
BRANCH  10  12
ATOM     12  O   UNL     1       6.008  -5.514  25.030  0.00  0.00    -0.477 OA
ATOM     13  H   UNL     1       5.815  -6.474  25.045  0.00  0.00    +0.295 HD
ENDBRANCH  10  12
ENDBRANCH   9  10
BRANCH   1  14
ATOM     14  O   UNL     1       7.853  -4.742  22.912  0.00  0.00    -0.479 OA
BRANCH  14  15
ATOM     15  C   UNL     1       6.853  -4.365  21.972  0.00  0.00    +0.349 C 
BRANCH  15  16
ATOM     16  C   UNL     1       6.256  -5.597  21.312  0.00  0.00    +0.343 C 
ATOM     17  O   UNL     1       5.967  -5.645  20.126  0.00  0.00    -0.247 OA
BRANCH  16  18
ATOM     18  O   UNL     1       6.069  -6.641  22.154  0.00  0.00    -0.478 OA
ATOM     19  H   UNL     1       6.112  -6.368  23.102  0.00  0.00    +0.295 HD
ENDBRANCH  16  18
ENDBRANCH  15  16
ENDBRANCH  14  15
ENDBRANCH   1  14
TORSDOF 6
ENDMDL
MODEL 3
REMARK VINA RESULT:      -5.6      2.653      4.326
REMARK  Name = 
REMARK  6 active torsions:
REMARK  status: ('A' for Active; 'I' for Inactive)
REMARK    1  A    between atoms: O_1  and  C_2
REMARK    2  A    between atoms: C_2  and  C_4
REMARK    3  A    between atoms: C_4  and  O_5
REMARK    4  A    between atoms: O_5  and  C_6
REMARK    5  A    between atoms: C_7  and  C_15
REMARK    6  A    between atoms: C_15  and  O_16
REMARK                            x       y       z     vdW  Elec       q    Type
REMARK                         _______ _______ _______ _____ _____    ______ ____
ROOT
ATOM      1  C   UNL     1       6.792  -5.608  25.497  0.00  0.00    +0.152 A 
ATOM      2  C   UNL     1       5.475  -5.651  24.907  0.00  0.00    +0.050 A 
ATOM      3  C   UNL     1       5.508  -5.088  23.634  0.00  0.00    +0.113 A 
ATOM      4  N   UNL     1       4.470  -4.929  22.788  0.00  0.00    -0.248 NA
ATOM      5  C   UNL     1       3.295  -5.385  23.260  0.00  0.00    +0.112 A 
ATOM      6  C   UNL     1       3.113  -5.983  24.492  0.00  0.00    +0.020 A 
ATOM      7  S   UNL     1       7.059  -4.585  23.162  0.00  0.00    -0.059 S 
ATOM      8  C   UNL     1       4.213  -6.131  25.331  0.00  0.00    +0.016 A 
ATOM      9  C   UNL     1       7.749  -5.087  24.643  0.00  0.00    +0.140 A 
ENDROOT
BRANCH   9  10
ATOM     10  C   UNL     1       9.169  -4.931  24.907  0.00  0.00    +0.347 C 
ATOM     11  O   UNL     1       9.848  -3.974  24.562  0.00  0.00    -0.244 OA
BRANCH  10  12
ATOM     12  O   UNL     1       9.712  -5.975  25.592  0.00  0.00    -0.477 OA
ATOM     13  H   UNL     1       9.036  -6.608  25.907  0.00  0.00    +0.295 HD
ENDBRANCH  10  12
ENDBRANCH   9  10
BRANCH   1  14
ATOM     14  O   UNL     1       7.188  -6.056  26.721  0.00  0.00    -0.479 OA
BRANCH  14  15
ATOM     15  C   UNL     1       6.619  -5.378  27.835  0.00  0.00    +0.349 C 
BRANCH  15  16
ATOM     16  C   UNL     1       6.174  -6.375  28.891  0.00  0.00    +0.343 C 
ATOM     17  O   UNL     1       6.351  -6.204  30.089  0.00  0.00    -0.247 OA
BRANCH  16  18
ATOM     18  O   UNL     1       5.562  -7.475  28.393  0.00  0.00    -0.478 OA
ATOM     19  H   UNL     1       6.201  -8.205  28.206  0.00  0.00    +0.295 HD
ENDBRANCH  16  18
ENDBRANCH  15  16
ENDBRANCH  14  15
ENDBRANCH   1  14
TORSDOF 6
ENDMDL
MODEL 4
REMARK VINA RESULT:      -5.5      3.065      5.631
REMARK  Name = 
REMARK  6 active torsions:
REMARK  status: ('A' for Active; 'I' for Inactive)
REMARK    1  A    between atoms: O_1  and  C_2
REMARK    2  A    between atoms: C_2  and  C_4
REMARK    3  A    between atoms: C_4  and  O_5
REMARK    4  A    between atoms: O_5  and  C_6
REMARK    5  A    between atoms: C_7  and  C_15
REMARK    6  A    between atoms: C_15  and  O_16
REMARK                            x       y       z     vdW  Elec       q    Type
REMARK                         _______ _______ _______ _____ _____    ______ ____
ROOT
ATOM      1  C   UNL     1       7.117  -4.552  24.452  0.00  0.00    +0.152 A 
ATOM      2  C   UNL     1       6.471  -5.299  25.505  0.00  0.00    +0.050 A 
ATOM      3  C   UNL     1       7.225  -5.222  26.672  0.00  0.00    +0.113 A 
ATOM      4  N   UNL     1       6.955  -5.809  27.856  0.00  0.00    -0.248 NA
ATOM      5  C   UNL     1       5.820  -6.532  27.869  0.00  0.00    +0.112 A 
ATOM      6  C   UNL     1       4.962  -6.683  26.798  0.00  0.00    +0.020 A 
ATOM      7  S   UNL     1       8.611  -4.254  26.513  0.00  0.00    -0.059 S 
ATOM      8  C   UNL     1       5.278  -6.055  25.596  0.00  0.00    +0.016 A 
ATOM      9  C   UNL     1       8.267  -3.907  24.875  0.00  0.00    +0.140 A 
ENDROOT
BRANCH   9  10
ATOM     10  C   UNL     1       9.136  -3.053  24.085  0.00  0.00    +0.347 C 
ATOM     11  O   UNL     1      10.337  -3.223  23.927  0.00  0.00    -0.244 OA
BRANCH  10  12
ATOM     12  O   UNL     1       8.488  -2.002  23.510  0.00  0.00    -0.477 OA
ATOM     13  H   UNL     1       7.538  -2.183  23.364  0.00  0.00    +0.295 HD
ENDBRANCH  10  12
ENDBRANCH   9  10
BRANCH   1  14
ATOM     14  O   UNL     1       6.708  -4.373  23.165  0.00  0.00    -0.479 OA
BRANCH  14  15
ATOM     15  C   UNL     1       7.098  -5.391  22.250  0.00  0.00    +0.349 C 
BRANCH  15  16
ATOM     16  C   UNL     1       5.939  -5.758  21.340  0.00  0.00    +0.343 C 
ATOM     17  O   UNL     1       5.995  -5.680  20.122  0.00  0.00    -0.247 OA
BRANCH  16  18
ATOM     18  O   UNL     1       4.832  -6.182  21.996  0.00  0.00    -0.478 OA
ATOM     19  H   UNL     1       4.923  -7.112  22.317  0.00  0.00    +0.295 HD
ENDBRANCH  16  18
ENDBRANCH  15  16
ENDBRANCH  14  15
ENDBRANCH   1  14
TORSDOF 6
ENDMDL
MODEL 5
REMARK VINA RESULT:      -5.3      3.035      5.006
REMARK  Name = 
REMARK  6 active torsions:
REMARK  status: ('A' for Active; 'I' for Inactive)
REMARK    1  A    between atoms: O_1  and  C_2
REMARK    2  A    between atoms: C_2  and  C_4
REMARK    3  A    between atoms: C_4  and  O_5
REMARK    4  A    between atoms: O_5  and  C_6
REMARK    5  A    between atoms: C_7  and  C_15
REMARK    6  A    between atoms: C_15  and  O_16
REMARK                            x       y       z     vdW  Elec       q    Type
REMARK                         _______ _______ _______ _____ _____    ______ ____
ROOT
ATOM      1  C   UNL     1       8.890  -1.709  23.213  0.00  0.00    +0.152 A 
ATOM      2  C   UNL     1       9.281  -0.356  22.897  0.00  0.00    +0.050 A 
ATOM      3  C   UNL     1       9.663   0.311  24.057  0.00  0.00    +0.113 A 
ATOM      4  N   UNL     1      10.066   1.594  24.163  0.00  0.00    -0.248 NA
ATOM      5  C   UNL     1      10.097   2.263  22.997  0.00  0.00    +0.112 A 
ATOM      6  C   UNL     1       9.767   1.730  21.766  0.00  0.00    +0.020 A 
ATOM      7  S   UNL     1       9.601  -0.666  25.443  0.00  0.00    -0.059 S 
ATOM      8  C   UNL     1       9.360   0.400  21.702  0.00  0.00    +0.016 A 
ATOM      9  C   UNL     1       9.051  -2.017  24.553  0.00  0.00    +0.140 A 
ENDROOT
BRANCH   9  10
ATOM     10  C   UNL     1       8.783  -3.290  25.199  0.00  0.00    +0.347 C 
ATOM     11  O   UNL     1       8.110  -3.440  26.209  0.00  0.00    -0.244 OA
BRANCH  10  12
ATOM     12  O   UNL     1       9.364  -4.350  24.573  0.00  0.00    -0.477 OA
ATOM     13  H   UNL     1       9.833  -4.090  23.754  0.00  0.00    +0.295 HD
ENDBRANCH  10  12
ENDBRANCH   9  10
BRANCH   1  14
ATOM     14  O   UNL     1       8.458  -2.686  22.369  0.00  0.00    -0.479 OA
BRANCH  14  15
ATOM     15  C   UNL     1       7.057  -2.707  22.121  0.00  0.00    +0.349 C 
BRANCH  15  16
ATOM     16  C   UNL     1       6.546  -4.137  22.086  0.00  0.00    +0.343 C 
ATOM     17  O   UNL     1       5.399  -4.430  21.778  0.00  0.00    -0.247 OA
BRANCH  16  18
ATOM     18  O   UNL     1       7.472  -5.066  22.424  0.00  0.00    -0.478 OA
ATOM     19  H   UNL     1       7.112  -5.985  22.380  0.00  0.00    +0.295 HD
ENDBRANCH  16  18
ENDBRANCH  15  16
ENDBRANCH  14  15
ENDBRANCH   1  14
TORSDOF 6
ENDMDL
MODEL 6
REMARK VINA RESULT:      -5.3      2.907      3.851
REMARK  Name = 
REMARK  6 active torsions:
REMARK  status: ('A' for Active; 'I' for Inactive)
REMARK    1  A    between atoms: O_1  and  C_2
REMARK    2  A    between atoms: C_2  and  C_4
REMARK    3  A    between atoms: C_4  and  O_5
REMARK    4  A    between atoms: O_5  and  C_6
REMARK    5  A    between atoms: C_7  and  C_15
REMARK    6  A    between atoms: C_15  and  O_16
REMARK                            x       y       z     vdW  Elec       q    Type
REMARK                         _______ _______ _______ _____ _____    ______ ____
ROOT
ATOM      1  C   UNL     1       8.818  -1.760  23.429  0.00  0.00    +0.152 A 
ATOM      2  C   UNL     1       9.377  -0.460  23.709  0.00  0.00    +0.050 A 
ATOM      3  C   UNL     1       8.413   0.524  23.512  0.00  0.00    +0.113 A 
ATOM      4  N   UNL     1       8.570   1.856  23.650  0.00  0.00    -0.248 NA
ATOM      5  C   UNL     1       9.804   2.233  24.030  0.00  0.00    +0.112 A 
ATOM      6  C   UNL     1      10.855   1.371  24.282  0.00  0.00    +0.020 A 
ATOM      7  S   UNL     1       6.900  -0.100  23.064  0.00  0.00    -0.059 S 
ATOM      8  C   UNL     1      10.647   0.003  24.131  0.00  0.00    +0.016 A 
ATOM      9  C   UNL     1       7.472  -1.710  23.104  0.00  0.00    +0.140 A 
ENDROOT
BRANCH   9  10
ATOM     10  C   UNL     1       6.601  -2.830  22.798  0.00  0.00    +0.347 C 
ATOM     11  O   UNL     1       5.433  -2.930  23.146  0.00  0.00    -0.244 OA
BRANCH  10  12
ATOM     12  O   UNL     1       7.207  -3.806  22.067  0.00  0.00    -0.477 OA
ATOM     13  H   UNL     1       8.183  -3.772  22.133  0.00  0.00    +0.295 HD
ENDBRANCH  10  12
ENDBRANCH   9  10
BRANCH   1  14
ATOM     14  O   UNL     1       9.422  -2.979  23.504  0.00  0.00    -0.479 OA
BRANCH  14  15
ATOM     15  C   UNL     1       9.514  -3.538  24.810  0.00  0.00    +0.349 C 
BRANCH  15  16
ATOM     16  C   UNL     1       9.311  -5.042  24.758  0.00  0.00    +0.343 C 
ATOM     17  O   UNL     1       8.598  -5.592  23.930  0.00  0.00    -0.247 OA
BRANCH  16  18
ATOM     18  O   UNL     1       9.990  -5.727  25.708  0.00  0.00    -0.478 OA
ATOM     19  H   UNL     1       9.516  -5.731  26.575  0.00  0.00    +0.295 HD
ENDBRANCH  16  18
ENDBRANCH  15  16
ENDBRANCH  14  15
ENDBRANCH   1  14
TORSDOF 6
ENDMDL
MODEL 7
REMARK VINA RESULT:      -5.3      4.863      6.758
REMARK  Name = 
REMARK  6 active torsions:
REMARK  status: ('A' for Active; 'I' for Inactive)
REMARK    1  A    between atoms: O_1  and  C_2
REMARK    2  A    between atoms: C_2  and  C_4
REMARK    3  A    between atoms: C_4  and  O_5
REMARK    4  A    between atoms: O_5  and  C_6
REMARK    5  A    between atoms: C_7  and  C_15
REMARK    6  A    between atoms: C_15  and  O_16
REMARK                            x       y       z     vdW  Elec       q    Type
REMARK                         _______ _______ _______ _____ _____    ______ ____
ROOT
ATOM      1  C   UNL     1       8.006  -0.672  23.495  0.00  0.00    +0.152 A 
ATOM      2  C   UNL     1       7.395  -1.920  23.106  0.00  0.00    +0.050 A 
ATOM      3  C   UNL     1       8.305  -2.962  23.264  0.00  0.00    +0.113 A 
ATOM      4  N   UNL     1       8.106  -4.266  22.981  0.00  0.00    -0.248 NA
ATOM      5  C   UNL     1       6.879  -4.549  22.505  0.00  0.00    +0.112 A 
ATOM      6  C   UNL     1       5.869  -3.626  22.314  0.00  0.00    +0.020 A 
ATOM      7  S   UNL     1       9.796  -2.460  23.899  0.00  0.00    -0.059 S 
ATOM      8  C   UNL     1       6.117  -2.292  22.623  0.00  0.00    +0.016 A 
ATOM      9  C   UNL     1       9.294  -0.828  23.979  0.00  0.00    +0.140 A 
ENDROOT
BRANCH   9  10
ATOM     10  C   UNL     1      10.176   0.211  24.480  0.00  0.00    +0.347 C 
ATOM     11  O   UNL     1      10.898   0.916  23.789  0.00  0.00    -0.244 OA
BRANCH  10  12
ATOM     12  O   UNL     1      10.141   0.345  25.834  0.00  0.00    -0.477 OA
ATOM     13  H   UNL     1       9.748  -0.433  26.278  0.00  0.00    +0.295 HD
ENDBRANCH  10  12
ENDBRANCH   9  10
BRANCH   1  14
ATOM     14  O   UNL     1       7.460   0.576  23.494  0.00  0.00    -0.479 OA
BRANCH  14  15
ATOM     15  C   UNL     1       7.284   1.168  22.212  0.00  0.00    +0.349 C 
BRANCH  15  16
ATOM     16  C   UNL     1       8.212   2.360  22.047  0.00  0.00    +0.343 C 
ATOM     17  O   UNL     1       7.917   3.491  22.406  0.00  0.00    -0.247 OA
BRANCH  16  18
ATOM     18  O   UNL     1       9.398   2.063  21.466  0.00  0.00    -0.478 OA
ATOM     19  H   UNL     1      10.165   2.323  22.032  0.00  0.00    +0.295 HD
ENDBRANCH  16  18
ENDBRANCH  15  16
ENDBRANCH  14  15
ENDBRANCH   1  14
TORSDOF 6
ENDMDL
MODEL 8
REMARK VINA RESULT:      -5.2      2.223      2.809
REMARK  Name = 
REMARK  6 active torsions:
REMARK  status: ('A' for Active; 'I' for Inactive)
REMARK    1  A    between atoms: O_1  and  C_2
REMARK    2  A    between atoms: C_2  and  C_4
REMARK    3  A    between atoms: C_4  and  O_5
REMARK    4  A    between atoms: O_5  and  C_6
REMARK    5  A    between atoms: C_7  and  C_15
REMARK    6  A    between atoms: C_15  and  O_16
REMARK                            x       y       z     vdW  Elec       q    Type
REMARK                         _______ _______ _______ _____ _____    ______ ____
ROOT
ATOM      1  C   UNL     1       8.048  -2.432  24.484  0.00  0.00    +0.152 A 
ATOM      2  C   UNL     1       8.948  -1.304  24.525  0.00  0.00    +0.050 A 
ATOM      3  C   UNL     1       9.401  -1.011  23.242  0.00  0.00    +0.113 A 
ATOM      4  N   UNL     1      10.270  -0.043  22.888  0.00  0.00    -0.248 NA
ATOM      5  C   UNL     1      10.717   0.704  23.914  0.00  0.00    +0.112 A 
ATOM      6  C   UNL     1      10.343   0.545  25.234  0.00  0.00    +0.020 A 
ATOM      7  S   UNL     1       8.730  -2.014  22.049  0.00  0.00    -0.059 S 
ATOM      8  C   UNL     1       9.439  -0.465  25.554  0.00  0.00    +0.016 A 
ATOM      9  C   UNL     1       7.816  -2.890  23.198  0.00  0.00    +0.140 A 
ENDROOT
BRANCH   9  10
ATOM     10  C   UNL     1       6.945  -3.981  22.799  0.00  0.00    +0.347 C 
ATOM     11  O   UNL     1       7.215  -4.825  21.956  0.00  0.00    -0.244 OA
BRANCH  10  12
ATOM     12  O   UNL     1       5.753  -3.994  23.457  0.00  0.00    -0.477 OA
ATOM     13  H   UNL     1       5.002  -3.762  22.874  0.00  0.00    +0.295 HD
ENDBRANCH  10  12
ENDBRANCH   9  10
BRANCH   1  14
ATOM     14  O   UNL     1       7.388  -3.029  25.515  0.00  0.00    -0.479 OA
BRANCH  14  15
ATOM     15  C   UNL     1       8.170  -3.906  26.318  0.00  0.00    +0.349 C 
BRANCH  15  16
ATOM     16  C   UNL     1       7.442  -5.222  26.529  0.00  0.00    +0.343 C 
ATOM     17  O   UNL     1       6.541  -5.612  25.800  0.00  0.00    -0.247 OA
BRANCH  16  18
ATOM     18  O   UNL     1       7.877  -5.931  27.598  0.00  0.00    -0.478 OA
ATOM     19  H   UNL     1       7.130  -6.276  28.145  0.00  0.00    +0.295 HD
ENDBRANCH  16  18
ENDBRANCH  15  16
ENDBRANCH  14  15
ENDBRANCH   1  14
TORSDOF 6
ENDMDL
MODEL 9
REMARK VINA RESULT:      -5.2      3.161      4.402
REMARK  Name = 
REMARK  6 active torsions:
REMARK  status: ('A' for Active; 'I' for Inactive)
REMARK    1  A    between atoms: O_1  and  C_2
REMARK    2  A    between atoms: C_2  and  C_4
REMARK    3  A    between atoms: C_4  and  O_5
REMARK    4  A    between atoms: O_5  and  C_6
REMARK    5  A    between atoms: C_7  and  C_15
REMARK    6  A    between atoms: C_15  and  O_16
REMARK                            x       y       z     vdW  Elec       q    Type
REMARK                         _______ _______ _______ _____ _____    ______ ____
ROOT
ATOM      1  C   UNL     1       7.551  -4.194  23.133  0.00  0.00    +0.152 A 
ATOM      2  C   UNL     1       7.825  -4.465  24.524  0.00  0.00    +0.050 A 
ATOM      3  C   UNL     1       6.838  -5.294  25.049  0.00  0.00    +0.113 A 
ATOM      4  N   UNL     1       6.742  -5.741  26.318  0.00  0.00    -0.248 NA
ATOM      5  C   UNL     1       7.732  -5.325  27.129  0.00  0.00    +0.112 A 
ATOM      6  C   UNL     1       8.786  -4.519  26.746  0.00  0.00    +0.020 A 
ATOM      7  S   UNL     1       5.675  -5.760  23.905  0.00  0.00    -0.059 S 
ATOM      8  C   UNL     1       8.848  -4.084  25.425  0.00  0.00    +0.016 A 
ATOM      9  C   UNL     1       6.435  -4.865  22.663  0.00  0.00    +0.140 A 
ENDROOT
BRANCH   9  10
ATOM     10  C   UNL     1       5.900  -4.841  21.313  0.00  0.00    +0.347 C 
ATOM     11  O   UNL     1       5.657  -3.829  20.670  0.00  0.00    -0.244 OA
BRANCH  10  12
ATOM     12  O   UNL     1       5.675  -6.080  20.795  0.00  0.00    -0.477 OA
ATOM     13  H   UNL     1       6.341  -6.734  21.088  0.00  0.00    +0.295 HD
ENDBRANCH  10  12
ENDBRANCH   9  10
BRANCH   1  14
ATOM     14  O   UNL     1       8.269  -3.436  22.258  0.00  0.00    -0.479 OA
BRANCH  14  15
ATOM     15  C   UNL     1       8.262  -2.036  22.512  0.00  0.00    +0.349 C 
BRANCH  15  16
ATOM     16  C   UNL     1       9.681  -1.519  22.675  0.00  0.00    +0.343 C 
ATOM     17  O   UNL     1      10.134  -1.134  23.743  0.00  0.00    -0.247 OA
BRANCH  16  18
ATOM     18  O   UNL     1      10.407  -1.521  21.531  0.00  0.00    -0.478 OA
ATOM     19  H   UNL     1      11.306  -1.132  21.660  0.00  0.00    +0.295 HD
ENDBRANCH  16  18
ENDBRANCH  15  16
ENDBRANCH  14  15
ENDBRANCH   1  14
TORSDOF 6
ENDMDL
