MODEL 1
REMARK VINA RESULT:      -8.1      0.000      0.000
REMARK  Name = 
REMARK  9 active torsions:
REMARK  status: ('A' for Active; 'I' for Inactive)
REMARK    1  A    between atoms: O_1  and  O_2
REMARK    2  A    between atoms: O_2  and  C_3
REMARK    3  A    between atoms: C_3  and  C_4
REMARK    4  A    between atoms: C_4  and  C_5
REMARK    5  A    between atoms: C_8  and  O_9
REMARK    6  A    between atoms: C_14  and  C_16
REMARK    7  A    between atoms: C_16  and  C_17
REMARK    8  A    between atoms: C_23  and  C_28
REMARK    9  A    between atoms: C_31  and  O_32
REMARK                            x       y       z     vdW  Elec       q    Type
REMARK                         _______ _______ _______ _____ _____    ______ ____
ROOT
ATOM      1  C   UNL     1       5.610  -4.975  22.534  0.00  0.00    +0.381 C 
ATOM      2  C   UNL     1       6.149  -3.765  21.749  0.00  0.00    +0.391 C 
ATOM      3  O   UNL     1       5.647  -3.233  20.770  0.00  0.00    -0.239 OA
ATOM      4  N   UNL     1       7.256  -3.363  22.438  0.00  0.00    -0.123 N 
ATOM      5  C   UNL     1       7.491  -4.235  23.453  0.00  0.00    +0.319 C 
ATOM      6  C   UNL     1       8.778  -4.012  24.280  0.00  0.00    +0.188 C 
ATOM      7  N   UNL     1       9.043  -2.554  24.340  0.00  0.00    -0.328 N 
ATOM      8  H   UNL     1       9.871  -2.270  24.859  0.00  0.00    +0.147 HD
ATOM      9  C   UNL     1       8.795  -1.778  23.211  0.00  0.00    +0.073 C 
ATOM     10  C   UNL     1       7.938  -2.185  22.258  0.00  0.00    +0.223 C 
ATOM     11  N   UNL     1       6.649  -5.211  23.589  0.00  0.00    -0.034 NA
ENDROOT
BRANCH   9  12
ATOM     12  C   UNL     1       9.381  -0.434  23.130  0.00  0.00    -0.001 A 
ATOM     13  C   UNL     1       9.280   0.333  21.965  0.00  0.00    +0.013 A 
ATOM     14  C   UNL     1       9.826   1.621  21.923  0.00  0.00    +0.046 A 
ATOM     15  C   UNL     1      10.456   2.140  23.046  0.00  0.00    +0.117 A 
ATOM     16  C   UNL     1      10.555   1.397  24.217  0.00  0.00    +0.046 A 
ATOM     17  C   UNL     1      10.020   0.104  24.255  0.00  0.00    +0.013 A 
BRANCH  15  18
ATOM     18  O   UNL     1      10.965   3.402  22.968  0.00  0.00    -0.507 OA
ATOM     19  H   UNL     1      10.380   4.006  23.454  0.00  0.00    +0.292 HD
ENDBRANCH  15  18
ENDBRANCH   9  12
BRANCH   1  20
ATOM     20  O   UNL     1       5.308  -6.054  21.645  0.00  0.00    -0.169 OA
BRANCH  20  21
ATOM     21  O   UNL     1       6.136  -5.878  20.453  0.00  0.00    -0.245 OA
ATOM     22  H   UNL     1       6.139  -6.816  20.191  0.00  0.00    +0.253 HD
ENDBRANCH  20  21
ENDBRANCH   1  20
BRANCH   6  23
ATOM     23  C   UNL     1       8.770  -4.623  25.695  0.00  0.00    +0.038 C 
BRANCH  23  24
ATOM     24  C   UNL     1       7.372  -4.748  26.311  0.00  0.00    -0.009 C 
ATOM     25  C   UNL     1       6.751  -3.456  26.852  0.00  0.00    +0.003 C 
ATOM     26  C   UNL     1       5.604  -3.938  27.758  0.00  0.00    +0.000 C 
ATOM     27  C   UNL     1       5.799  -5.447  27.914  0.00  0.00    +0.000 C 
ATOM     28  C   UNL     1       7.252  -5.672  27.521  0.00  0.00    +0.003 C 
ENDBRANCH  23  24
ENDBRANCH   6  23
BRANCH   1  29
ATOM     29  C   UNL     1       4.300  -4.491  23.203  0.00  0.00    +0.138 C 
BRANCH  29  30
ATOM     30  C   UNL     1       3.790  -5.309  24.371  0.00  0.00    -0.040 A 
ATOM     31  C   UNL     1       4.113  -6.671  24.472  0.00  0.00    +0.007 A 
ATOM     32  C   UNL     1       3.582  -7.450  25.500  0.00  0.00    +0.045 A 
ATOM     33  C   UNL     1       2.741  -6.869  26.442  0.00  0.00    +0.117 A 
ATOM     34  C   UNL     1       2.419  -5.519  26.370  0.00  0.00    +0.045 A 
ATOM     35  C   UNL     1       2.946  -4.739  25.335  0.00  0.00    +0.007 A 
BRANCH  33  36
ATOM     36  O   UNL     1       2.252  -7.669  27.432  0.00  0.00    -0.507 OA
ATOM     37  H   UNL     1       1.747  -7.117  28.051  0.00  0.00    +0.292 HD
ENDBRANCH  33  36
ENDBRANCH  29  30
ENDBRANCH   1  29
TORSDOF 9
ENDMDL
MODEL 2
REMARK VINA RESULT:      -7.3      3.158      4.182
REMARK  Name = 
REMARK  9 active torsions:
REMARK  status: ('A' for Active; 'I' for Inactive)
REMARK    1  A    between atoms: O_1  and  O_2
REMARK    2  A    between atoms: O_2  and  C_3
REMARK    3  A    between atoms: C_3  and  C_4
REMARK    4  A    between atoms: C_4  and  C_5
REMARK    5  A    between atoms: C_8  and  O_9
REMARK    6  A    between atoms: C_14  and  C_16
REMARK    7  A    between atoms: C_16  and  C_17
REMARK    8  A    between atoms: C_23  and  C_28
REMARK    9  A    between atoms: C_31  and  O_32
REMARK                            x       y       z     vdW  Elec       q    Type
REMARK                         _______ _______ _______ _____ _____    ______ ____
ROOT
ATOM      1  C   UNL     1       8.931  -3.643  24.521  0.00  0.00    +0.381 C 
ATOM      2  C   UNL     1       9.827  -2.538  23.932  0.00  0.00    +0.391 C 
ATOM      3  O   UNL     1      10.587  -2.629  22.979  0.00  0.00    -0.239 OA
ATOM      4  N   UNL     1       9.522  -1.418  24.648  0.00  0.00    -0.123 N 
ATOM      5  C   UNL     1       8.649  -1.744  25.637  0.00  0.00    +0.319 C 
ATOM      6  C   UNL     1       8.273  -0.624  26.634  0.00  0.00    +0.188 C 
ATOM      7  N   UNL     1       8.278   0.666  25.902  0.00  0.00    -0.328 N 
ATOM      8  H   UNL     1       8.046   1.492  26.450  0.00  0.00    +0.147 HD
ATOM      9  C   UNL     1       9.255   0.889  24.937  0.00  0.00    +0.073 C 
ATOM     10  C   UNL     1       9.892  -0.133  24.338  0.00  0.00    +0.223 C 
ATOM     11  N   UNL     1       8.267  -2.982  25.691  0.00  0.00    -0.034 NA
ENDROOT
BRANCH   9  12
ATOM     12  C   UNL     1       9.499   2.262  24.476  0.00  0.00    -0.001 A 
ATOM     13  C   UNL     1       8.627   3.305  24.809  0.00  0.00    +0.013 A 
ATOM     14  C   UNL     1       8.897   4.610  24.377  0.00  0.00    +0.046 A 
ATOM     15  C   UNL     1      10.038   4.867  23.631  0.00  0.00    +0.117 A 
ATOM     16  C   UNL     1      10.923   3.845  23.302  0.00  0.00    +0.046 A 
ATOM     17  C   UNL     1      10.647   2.539  23.723  0.00  0.00    +0.013 A 
BRANCH  15  18
ATOM     18  O   UNL     1      10.270   6.152  23.240  0.00  0.00    -0.507 OA
ATOM     19  H   UNL     1      10.842   6.142  22.454  0.00  0.00    +0.292 HD
ENDBRANCH  15  18
ENDBRANCH   9  12
BRANCH   1  20
ATOM     20  O   UNL     1       9.694  -4.827  24.771  0.00  0.00    -0.169 OA
BRANCH  20  21
ATOM     21  O   UNL     1       9.410  -5.243  26.142  0.00  0.00    -0.245 OA
ATOM     22  H   UNL     1       9.452  -6.201  25.969  0.00  0.00    +0.253 HD
ENDBRANCH  20  21
ENDBRANCH   1  20
BRANCH   6  23
ATOM     23  C   UNL     1       6.939  -0.822  27.380  0.00  0.00    +0.038 C 
BRANCH  23  24
ATOM     24  C   UNL     1       5.952   0.339  27.210  0.00  0.00    -0.009 C 
ATOM     25  C   UNL     1       5.624   1.141  28.473  0.00  0.00    +0.003 C 
ATOM     26  C   UNL     1       4.343   1.914  28.108  0.00  0.00    +0.000 C 
ATOM     27  C   UNL     1       3.854   1.313  26.789  0.00  0.00    +0.000 C 
ATOM     28  C   UNL     1       4.557  -0.034  26.715  0.00  0.00    +0.003 C 
ENDBRANCH  23  24
ENDBRANCH   6  23
BRANCH   1  29
ATOM     29  C   UNL     1       7.871  -3.946  23.433  0.00  0.00    +0.138 C 
BRANCH  29  30
ATOM     30  C   UNL     1       6.474  -4.271  23.917  0.00  0.00    -0.040 A 
ATOM     31  C   UNL     1       6.169  -5.562  24.375  0.00  0.00    +0.007 A 
ATOM     32  C   UNL     1       4.865  -5.892  24.747  0.00  0.00    +0.045 A 
ATOM     33  C   UNL     1       3.864  -4.931  24.680  0.00  0.00    +0.117 A 
ATOM     34  C   UNL     1       4.146  -3.641  24.241  0.00  0.00    +0.045 A 
ATOM     35  C   UNL     1       5.451  -3.312  23.863  0.00  0.00    +0.007 A 
BRANCH  33  36
ATOM     36  O   UNL     1       2.607  -5.298  25.059  0.00  0.00    -0.507 OA
ATOM     37  H   UNL     1       2.022  -5.233  24.287  0.00  0.00    +0.292 HD
ENDBRANCH  33  36
ENDBRANCH  29  30
ENDBRANCH   1  29
TORSDOF 9
ENDMDL
MODEL 3
REMARK VINA RESULT:      -7.2      2.628      3.718
REMARK  Name = 
REMARK  9 active torsions:
REMARK  status: ('A' for Active; 'I' for Inactive)
REMARK    1  A    between atoms: O_1  and  O_2
REMARK    2  A    between atoms: O_2  and  C_3
REMARK    3  A    between atoms: C_3  and  C_4
REMARK    4  A    between atoms: C_4  and  C_5
REMARK    5  A    between atoms: C_8  and  O_9
REMARK    6  A    between atoms: C_14  and  C_16
REMARK    7  A    between atoms: C_16  and  C_17
REMARK    8  A    between atoms: C_23  and  C_28
REMARK    9  A    between atoms: C_31  and  O_32
REMARK                            x       y       z     vdW  Elec       q    Type
REMARK                         _______ _______ _______ _____ _____    ______ ____
ROOT
ATOM      1  C   UNL     1       8.937  -3.683  24.541  0.00  0.00    +0.381 C 
ATOM      2  C   UNL     1       9.819  -2.569  23.947  0.00  0.00    +0.391 C 
ATOM      3  O   UNL     1      10.574  -2.653  22.990  0.00  0.00    -0.239 OA
ATOM      4  N   UNL     1       9.504  -1.451  24.663  0.00  0.00    -0.123 N 
ATOM      5  C   UNL     1       8.640  -1.785  25.656  0.00  0.00    +0.319 C 
ATOM      6  C   UNL     1       8.257  -0.668  26.653  0.00  0.00    +0.188 C 
ATOM      7  N   UNL     1       8.245   0.622  25.920  0.00  0.00    -0.328 N 
ATOM      8  H   UNL     1       8.007   1.446  26.468  0.00  0.00    +0.147 HD
ATOM      9  C   UNL     1       9.215   0.854  24.950  0.00  0.00    +0.073 C 
ATOM     10  C   UNL     1       9.860  -0.163  24.349  0.00  0.00    +0.223 C 
ATOM     11  N   UNL     1       8.272  -3.027  25.714  0.00  0.00    -0.034 NA
ENDROOT
BRANCH   9  12
ATOM     12  C   UNL     1       9.442   2.228  24.486  0.00  0.00    -0.001 A 
ATOM     13  C   UNL     1       8.555   3.260  24.812  0.00  0.00    +0.013 A 
ATOM     14  C   UNL     1       8.808   4.567  24.378  0.00  0.00    +0.046 A 
ATOM     15  C   UNL     1       9.950   4.838  23.635  0.00  0.00    +0.117 A 
ATOM     16  C   UNL     1      10.849   3.827  23.313  0.00  0.00    +0.046 A 
ATOM     17  C   UNL     1      10.589   2.518  23.736  0.00  0.00    +0.013 A 
BRANCH  15  18
ATOM     18  O   UNL     1      10.166   6.124  23.241  0.00  0.00    -0.507 OA
ATOM     19  H   UNL     1      10.740   6.120  22.458  0.00  0.00    +0.292 HD
ENDBRANCH  15  18
ENDBRANCH   9  12
BRANCH   1  20
ATOM     20  O   UNL     1       9.713  -4.858  24.789  0.00  0.00    -0.169 OA
BRANCH  20  21
ATOM     21  O   UNL     1       9.836  -4.998  26.238  0.00  0.00    -0.245 OA
ATOM     22  H   UNL     1      10.630  -4.440  26.329  0.00  0.00    +0.253 HD
ENDBRANCH  20  21
ENDBRANCH   1  20
BRANCH   6  23
ATOM     23  C   UNL     1       6.929  -0.879  27.407  0.00  0.00    +0.038 C 
BRANCH  23  24
ATOM     24  C   UNL     1       6.013  -1.930  26.770  0.00  0.00    -0.009 C 
ATOM     25  C   UNL     1       5.258  -1.498  25.509  0.00  0.00    +0.003 C 
ATOM     26  C   UNL     1       4.142  -2.548  25.357  0.00  0.00    +0.000 C 
ATOM     27  C   UNL     1       4.137  -3.343  26.664  0.00  0.00    +0.000 C 
ATOM     28  C   UNL     1       4.872  -2.444  27.646  0.00  0.00    +0.003 C 
ENDBRANCH  23  24
ENDBRANCH   6  23
BRANCH   1  29
ATOM     29  C   UNL     1       7.874  -3.998  23.459  0.00  0.00    +0.138 C 
BRANCH  29  30
ATOM     30  C   UNL     1       6.744  -4.920  23.864  0.00  0.00    -0.040 A 
ATOM     31  C   UNL     1       5.719  -5.221  22.954  0.00  0.00    +0.007 A 
ATOM     32  C   UNL     1       4.633  -6.005  23.344  0.00  0.00    +0.045 A 
ATOM     33  C   UNL     1       4.573  -6.506  24.639  0.00  0.00    +0.117 A 
ATOM     34  C   UNL     1       5.584  -6.231  25.554  0.00  0.00    +0.045 A 
ATOM     35  C   UNL     1       6.669  -5.441  25.165  0.00  0.00    +0.007 A 
BRANCH  33  36
ATOM     36  O   UNL     1       3.495  -7.271  24.972  0.00  0.00    -0.507 OA
ATOM     37  H   UNL     1       2.820  -7.167  24.283  0.00  0.00    +0.292 HD
ENDBRANCH  33  36
ENDBRANCH  29  30
ENDBRANCH   1  29
TORSDOF 9
ENDMDL
MODEL 4
REMARK VINA RESULT:      -7.1      2.443      3.428
REMARK  Name = 
REMARK  9 active torsions:
REMARK  status: ('A' for Active; 'I' for Inactive)
REMARK    1  A    between atoms: O_1  and  O_2
REMARK    2  A    between atoms: O_2  and  C_3
REMARK    3  A    between atoms: C_3  and  C_4
REMARK    4  A    between atoms: C_4  and  C_5
REMARK    5  A    between atoms: C_8  and  O_9
REMARK    6  A    between atoms: C_14  and  C_16
REMARK    7  A    between atoms: C_16  and  C_17
REMARK    8  A    between atoms: C_23  and  C_28
REMARK    9  A    between atoms: C_31  and  O_32
REMARK                            x       y       z     vdW  Elec       q    Type
REMARK                         _______ _______ _______ _____ _____    ______ ____
ROOT
ATOM      1  C   UNL     1       8.104  -4.250  25.081  0.00  0.00    +0.381 C 
ATOM      2  C   UNL     1       9.197  -3.229  24.713  0.00  0.00    +0.391 C 
ATOM      3  O   UNL     1      10.215  -3.433  24.068  0.00  0.00    -0.239 OA
ATOM      4  N   UNL     1       8.737  -2.035  25.185  0.00  0.00    -0.123 N 
ATOM      5  C   UNL     1       7.579  -2.239  25.865  0.00  0.00    +0.319 C 
ATOM      6  C   UNL     1       6.963  -1.014  26.579  0.00  0.00    +0.188 C 
ATOM      7  N   UNL     1       7.267   0.192  25.772  0.00  0.00    -0.328 N 
ATOM      8  H   UNL     1       6.915   1.075  26.136  0.00  0.00    +0.147 HD
ATOM      9  C   UNL     1       8.511   0.295  25.157  0.00  0.00    +0.073 C 
ATOM     10  C   UNL     1       9.253  -0.796  24.893  0.00  0.00    +0.223 C 
ATOM     11  N   UNL     1       7.137  -3.458  25.908  0.00  0.00    -0.034 NA
ENDROOT
BRANCH   9  12
ATOM     12  C   UNL     1       8.959   1.607  24.674  0.00  0.00    -0.001 A 
ATOM     13  C   UNL     1       8.306   2.784  25.057  0.00  0.00    +0.013 A 
ATOM     14  C   UNL     1       8.769   4.024  24.601  0.00  0.00    +0.046 A 
ATOM     15  C   UNL     1       9.888   4.083  23.781  0.00  0.00    +0.117 A 
ATOM     16  C   UNL     1      10.558   2.925  23.401  0.00  0.00    +0.046 A 
ATOM     17  C   UNL     1      10.087   1.685  23.846  0.00  0.00    +0.013 A 
BRANCH  15  18
ATOM     18  O   UNL     1      10.314   5.310  23.369  0.00  0.00    -0.507 OA
ATOM     19  H   UNL     1       9.811   5.567  22.578  0.00  0.00    +0.292 HD
ENDBRANCH  15  18
ENDBRANCH   9  12
BRANCH   1  20
ATOM     20  O   UNL     1       8.686  -5.415  25.672  0.00  0.00    -0.169 OA
BRANCH  20  21
ATOM     21  O   UNL     1       9.603  -5.987  24.690  0.00  0.00    -0.245 OA
ATOM     22  H   UNL     1       9.078  -5.744  23.905  0.00  0.00    +0.253 HD
ENDBRANCH  20  21
ENDBRANCH   1  20
BRANCH   6  23
ATOM     23  C   UNL     1       5.452  -1.108  26.871  0.00  0.00    +0.038 C 
BRANCH  23  24
ATOM     24  C   UNL     1       4.921  -2.544  26.948  0.00  0.00    -0.009 C 
ATOM     25  C   UNL     1       3.590  -2.814  26.241  0.00  0.00    +0.003 C 
ATOM     26  C   UNL     1       3.113  -4.154  26.831  0.00  0.00    +0.000 C 
ATOM     27  C   UNL     1       4.028  -4.435  28.024  0.00  0.00    +0.000 C 
ATOM     28  C   UNL     1       4.634  -3.078  28.350  0.00  0.00    +0.003 C 
ENDBRANCH  23  24
ENDBRANCH   6  23
BRANCH   1  29
ATOM     29  C   UNL     1       7.432  -4.645  23.743  0.00  0.00    +0.138 C 
BRANCH  29  30
ATOM     30  C   UNL     1       5.990  -5.100  23.814  0.00  0.00    -0.040 A 
ATOM     31  C   UNL     1       5.657  -6.284  24.490  0.00  0.00    +0.007 A 
ATOM     32  C   UNL     1       4.343  -6.752  24.492  0.00  0.00    +0.045 A 
ATOM     33  C   UNL     1       3.353  -6.033  23.835  0.00  0.00    +0.117 A 
ATOM     34  C   UNL     1       3.657  -4.850  23.169  0.00  0.00    +0.045 A 
ATOM     35  C   UNL     1       4.975  -4.384  23.162  0.00  0.00    +0.007 A 
BRANCH  33  36
ATOM     36  O   UNL     1       2.082  -6.527  23.870  0.00  0.00    -0.507 OA
ATOM     37  H   UNL     1       1.537  -5.933  24.409  0.00  0.00    +0.292 HD
ENDBRANCH  33  36
ENDBRANCH  29  30
ENDBRANCH   1  29
TORSDOF 9
ENDMDL
MODEL 5
REMARK VINA RESULT:      -7.0      3.178      5.278
REMARK  Name = 
REMARK  9 active torsions:
REMARK  status: ('A' for Active; 'I' for Inactive)
REMARK    1  A    between atoms: O_1  and  O_2
REMARK    2  A    between atoms: O_2  and  C_3
REMARK    3  A    between atoms: C_3  and  C_4
REMARK    4  A    between atoms: C_4  and  C_5
REMARK    5  A    between atoms: C_8  and  O_9
REMARK    6  A    between atoms: C_14  and  C_16
REMARK    7  A    between atoms: C_16  and  C_17
REMARK    8  A    between atoms: C_23  and  C_28
REMARK    9  A    between atoms: C_31  and  O_32
REMARK                            x       y       z     vdW  Elec       q    Type
REMARK                         _______ _______ _______ _____ _____    ______ ____
ROOT
ATOM      1  C   UNL     1       8.997  -2.484  23.261  0.00  0.00    +0.381 C 
ATOM      2  C   UNL     1       8.509  -1.189  23.937  0.00  0.00    +0.391 C 
ATOM      3  O   UNL     1       8.549  -0.056  23.482  0.00  0.00    -0.239 OA
ATOM      4  N   UNL     1       7.943  -1.595  25.109  0.00  0.00    -0.123 N 
ATOM      5  C   UNL     1       8.127  -2.933  25.255  0.00  0.00    +0.319 C 
ATOM      6  C   UNL     1       7.657  -3.562  26.586  0.00  0.00    +0.188 C 
ATOM      7  N   UNL     1       6.461  -2.818  27.051  0.00  0.00    -0.328 N 
ATOM      8  H   UNL     1       6.049  -3.134  27.927  0.00  0.00    +0.147 HD
ATOM      9  C   UNL     1       6.416  -1.438  26.876  0.00  0.00    +0.073 C 
ATOM     10  C   UNL     1       7.166  -0.827  25.941  0.00  0.00    +0.223 C 
ATOM     11  N   UNL     1       8.744  -3.544  24.291  0.00  0.00    -0.034 NA
ENDROOT
BRANCH   9  12
ATOM     12  C   UNL     1       5.434  -0.656  27.639  0.00  0.00    -0.001 A 
ATOM     13  C   UNL     1       5.513   0.739  27.709  0.00  0.00    +0.013 A 
ATOM     14  C   UNL     1       4.550   1.461  28.423  0.00  0.00    +0.046 A 
ATOM     15  C   UNL     1       3.508   0.790  29.048  0.00  0.00    +0.117 A 
ATOM     16  C   UNL     1       3.406  -0.595  28.978  0.00  0.00    +0.046 A 
ATOM     17  C   UNL     1       4.376  -1.319  28.275  0.00  0.00    +0.013 A 
BRANCH  15  18
ATOM     18  O   UNL     1       2.584   1.530  29.723  0.00  0.00    -0.507 OA
ATOM     19  H   UNL     1       2.001   1.966  29.081  0.00  0.00    +0.292 HD
ENDBRANCH  15  18
ENDBRANCH   9  12
BRANCH   1  20
ATOM     20  O   UNL     1      10.337  -2.327  22.786  0.00  0.00    -0.169 OA
BRANCH  20  21
ATOM     21  O   UNL     1      10.268  -1.557  21.546  0.00  0.00    -0.245 OA
ATOM     22  H   UNL     1       9.574  -2.097  21.127  0.00  0.00    +0.253 HD
ENDBRANCH  20  21
ENDBRANCH   1  20
BRANCH   6  23
ATOM     23  C   UNL     1       7.372  -5.076  26.540  0.00  0.00    +0.038 C 
BRANCH  23  24
ATOM     24  C   UNL     1       5.997  -5.468  27.092  0.00  0.00    -0.009 C 
ATOM     25  C   UNL     1       5.985  -6.137  28.470  0.00  0.00    +0.003 C 
ATOM     26  C   UNL     1       4.591  -6.784  28.564  0.00  0.00    +0.000 C 
ATOM     27  C   UNL     1       3.995  -6.700  27.158  0.00  0.00    +0.000 C 
ATOM     28  C   UNL     1       5.201  -6.472  26.260  0.00  0.00    +0.003 C 
ENDBRANCH  23  24
ENDBRANCH   6  23
BRANCH   1  29
ATOM     29  C   UNL     1       8.055  -2.707  22.053  0.00  0.00    +0.138 C 
BRANCH  29  30
ATOM     30  C   UNL     1       6.957  -3.735  22.227  0.00  0.00    -0.040 A 
ATOM     31  C   UNL     1       5.702  -3.348  22.721  0.00  0.00    +0.007 A 
ATOM     32  C   UNL     1       4.711  -4.301  22.960  0.00  0.00    +0.045 A 
ATOM     33  C   UNL     1       4.962  -5.641  22.691  0.00  0.00    +0.117 A 
ATOM     34  C   UNL     1       6.194  -6.045  22.189  0.00  0.00    +0.045 A 
ATOM     35  C   UNL     1       7.190  -5.091  21.955  0.00  0.00    +0.007 A 
BRANCH  33  36
ATOM     36  O   UNL     1       3.962  -6.535  22.936  0.00  0.00    -0.507 OA
ATOM     37  H   UNL     1       4.313  -7.241  23.501  0.00  0.00    +0.292 HD
ENDBRANCH  33  36
ENDBRANCH  29  30
ENDBRANCH   1  29
TORSDOF 9
ENDMDL
MODEL 6
REMARK VINA RESULT:      -7.0      2.929      4.816
REMARK  Name = 
REMARK  9 active torsions:
REMARK  status: ('A' for Active; 'I' for Inactive)
REMARK    1  A    between atoms: O_1  and  O_2
REMARK    2  A    between atoms: O_2  and  C_3
REMARK    3  A    between atoms: C_3  and  C_4
REMARK    4  A    between atoms: C_4  and  C_5
REMARK    5  A    between atoms: C_8  and  O_9
REMARK    6  A    between atoms: C_14  and  C_16
REMARK    7  A    between atoms: C_16  and  C_17
REMARK    8  A    between atoms: C_23  and  C_28
REMARK    9  A    between atoms: C_31  and  O_32
REMARK                            x       y       z     vdW  Elec       q    Type
REMARK                         _______ _______ _______ _____ _____    ______ ____
ROOT
ATOM      1  C   UNL     1       4.968  -1.557  25.849  0.00  0.00    +0.381 C 
ATOM      2  C   UNL     1       5.265  -0.049  25.951  0.00  0.00    +0.391 C 
ATOM      3  O   UNL     1       4.865   0.729  26.804  0.00  0.00    -0.239 OA
ATOM      4  N   UNL     1       6.142   0.207  24.938  0.00  0.00    -0.123 N 
ATOM      5  C   UNL     1       6.314  -0.921  24.200  0.00  0.00    +0.319 C 
ATOM      6  C   UNL     1       7.185  -0.798  22.929  0.00  0.00    +0.188 C 
ATOM      7  N   UNL     1       8.241   0.211  23.189  0.00  0.00    -0.328 N 
ATOM      8  H   UNL     1       8.888   0.390  22.424  0.00  0.00    +0.147 HD
ATOM      9  C   UNL     1       7.920   1.346  23.929  0.00  0.00    +0.073 C 
ATOM     10  C   UNL     1       6.870   1.359  24.769  0.00  0.00    +0.223 C 
ATOM     11  N   UNL     1       5.674  -1.977  24.595  0.00  0.00    -0.034 NA
ENDROOT
BRANCH   9  12
ATOM     12  C   UNL     1       8.825   2.502  23.885  0.00  0.00    -0.001 A 
ATOM     13  C   UNL     1      10.147   2.373  23.445  0.00  0.00    +0.013 A 
ATOM     14  C   UNL     1      10.980   3.497  23.389  0.00  0.00    +0.046 A 
ATOM     15  C   UNL     1      10.487   4.741  23.757  0.00  0.00    +0.117 A 
ATOM     16  C   UNL     1       9.171   4.890  24.184  0.00  0.00    +0.046 A 
ATOM     17  C   UNL     1       8.342   3.765  24.252  0.00  0.00    +0.013 A 
BRANCH  15  18
ATOM     18  O   UNL     1      11.326   5.811  23.678  0.00  0.00    -0.507 OA
ATOM     19  H   UNL     1      11.999   5.632  23.000  0.00  0.00    +0.292 HD
ENDBRANCH  15  18
ENDBRANCH   9  12
BRANCH   1  20
ATOM     20  O   UNL     1       3.561  -1.797  25.933  0.00  0.00    -0.169 OA
BRANCH  20  21
ATOM     21  O   UNL     1       3.264  -2.937  25.069  0.00  0.00    -0.245 OA
ATOM     22  H   UNL     1       4.176  -3.279  25.032  0.00  0.00    +0.253 HD
ENDBRANCH  20  21
ENDBRANCH   1  20
BRANCH   6  23
ATOM     23  C   UNL     1       7.804  -2.115  22.421  0.00  0.00    +0.038 C 
BRANCH  23  24
ATOM     24  C   UNL     1       6.947  -3.354  22.703  0.00  0.00    -0.009 C 
ATOM     25  C   UNL     1       7.694  -4.689  22.788  0.00  0.00    +0.003 C 
ATOM     26  C   UNL     1       6.588  -5.751  22.645  0.00  0.00    +0.000 C 
ATOM     27  C   UNL     1       5.333  -4.992  22.210  0.00  0.00    +0.000 C 
ATOM     28  C   UNL     1       5.869  -3.674  21.670  0.00  0.00    +0.003 C 
ENDBRANCH  23  24
ENDBRANCH   6  23
BRANCH   1  29
ATOM     29  C   UNL     1       5.665  -2.204  27.071  0.00  0.00    +0.138 C 
BRANCH  29  30
ATOM     30  C   UNL     1       6.727  -3.243  26.778  0.00  0.00    -0.040 A 
ATOM     31  C   UNL     1       8.051  -2.847  26.530  0.00  0.00    +0.007 A 
ATOM     32  C   UNL     1       9.017  -3.789  26.179  0.00  0.00    +0.045 A 
ATOM     33  C   UNL     1       8.673  -5.132  26.092  0.00  0.00    +0.117 A 
ATOM     34  C   UNL     1       7.370  -5.549  26.346  0.00  0.00    +0.045 A 
ATOM     35  C   UNL     1       6.400  -4.604  26.691  0.00  0.00    +0.007 A 
BRANCH  33  36
ATOM     36  O   UNL     1       9.653  -6.017  25.752  0.00  0.00    -0.507 OA
ATOM     37  H   UNL     1       9.736  -6.671  26.464  0.00  0.00    +0.292 HD
ENDBRANCH  33  36
ENDBRANCH  29  30
ENDBRANCH   1  29
TORSDOF 9
ENDMDL
MODEL 7
REMARK VINA RESULT:      -6.9      2.947      3.873
REMARK  Name = 
REMARK  9 active torsions:
REMARK  status: ('A' for Active; 'I' for Inactive)
REMARK    1  A    between atoms: O_1  and  O_2
REMARK    2  A    between atoms: O_2  and  C_3
REMARK    3  A    between atoms: C_3  and  C_4
REMARK    4  A    between atoms: C_4  and  C_5
REMARK    5  A    between atoms: C_8  and  O_9
REMARK    6  A    between atoms: C_14  and  C_16
REMARK    7  A    between atoms: C_16  and  C_17
REMARK    8  A    between atoms: C_23  and  C_28
REMARK    9  A    between atoms: C_31  and  O_32
REMARK                            x       y       z     vdW  Elec       q    Type
REMARK                         _______ _______ _______ _____ _____    ______ ____
ROOT
ATOM      1  C   UNL     1       8.723  -3.863  25.595  0.00  0.00    +0.381 C 
ATOM      2  C   UNL     1       9.306  -2.773  24.677  0.00  0.00    +0.391 C 
ATOM      3  O   UNL     1      10.076  -2.927  23.741  0.00  0.00    -0.239 OA
ATOM      4  N   UNL     1       8.707  -1.616  25.080  0.00  0.00    -0.123 N 
ATOM      5  C   UNL     1       7.936  -1.867  26.171  0.00  0.00    +0.319 C 
ATOM      6  C   UNL     1       7.266  -0.650  26.848  0.00  0.00    +0.188 C 
ATOM      7  N   UNL     1       6.943   0.344  25.796  0.00  0.00    -0.328 N 
ATOM      8  H   UNL     1       6.494   1.201  26.112  0.00  0.00    +0.147 HD
ATOM      9  C   UNL     1       7.841   0.533  24.750  0.00  0.00    +0.073 C 
ATOM     10  C   UNL     1       8.732  -0.416  24.412  0.00  0.00    +0.223 C 
ATOM     11  N   UNL     1       7.892  -3.097  26.580  0.00  0.00    -0.034 NA
ENDROOT
BRANCH   9  12
ATOM     12  C   UNL     1       7.722   1.740  23.921  0.00  0.00    -0.001 A 
ATOM     13  C   UNL     1       6.797   1.813  22.873  0.00  0.00    +0.013 A 
ATOM     14  C   UNL     1       6.687   2.985  22.115  0.00  0.00    +0.046 A 
ATOM     15  C   UNL     1       7.488   4.079  22.415  0.00  0.00    +0.117 A 
ATOM     16  C   UNL     1       8.403   4.028  23.461  0.00  0.00    +0.046 A 
ATOM     17  C   UNL     1       8.522   2.853  24.211  0.00  0.00    +0.013 A 
BRANCH  15  18
ATOM     18  O   UNL     1       7.342   5.204  21.661  0.00  0.00    -0.507 OA
ATOM     19  H   UNL     1       6.671   5.773  22.073  0.00  0.00    +0.292 HD
ENDBRANCH  15  18
ENDBRANCH   9  12
BRANCH   1  20
ATOM     20  O   UNL     1       9.765  -4.695  26.110  0.00  0.00    -0.169 OA
BRANCH  20  21
ATOM     21  O   UNL     1      10.195  -5.573  25.024  0.00  0.00    -0.245 OA
ATOM     22  H   UNL     1      11.046  -5.826  25.427  0.00  0.00    +0.253 HD
ENDBRANCH  20  21
ENDBRANCH   1  20
BRANCH   6  23
ATOM     23  C   UNL     1       6.020  -0.968  27.698  0.00  0.00    +0.038 C 
BRANCH  23  24
ATOM     24  C   UNL     1       4.801  -1.403  26.877  0.00  0.00    -0.009 C 
ATOM     25  C   UNL     1       3.483  -0.688  27.190  0.00  0.00    +0.003 C 
ATOM     26  C   UNL     1       2.405  -1.589  26.561  0.00  0.00    +0.000 C 
ATOM     27  C   UNL     1       3.117  -2.888  26.177  0.00  0.00    +0.000 C 
ATOM     28  C   UNL     1       4.391  -2.868  27.009  0.00  0.00    +0.003 C 
ENDBRANCH  23  24
ENDBRANCH   6  23
BRANCH   1  29
ATOM     29  C   UNL     1       7.794  -4.716  24.695  0.00  0.00    +0.138 C 
BRANCH  29  30
ATOM     30  C   UNL     1       6.591  -5.346  25.363  0.00  0.00    -0.040 A 
ATOM     31  C   UNL     1       6.651  -5.723  26.714  0.00  0.00    +0.007 A 
ATOM     32  C   UNL     1       5.575  -6.377  27.315  0.00  0.00    +0.045 A 
ATOM     33  C   UNL     1       4.429  -6.642  26.576  0.00  0.00    +0.117 A 
ATOM     34  C   UNL     1       4.342  -6.266  25.240  0.00  0.00    +0.045 A 
ATOM     35  C   UNL     1       5.422  -5.616  24.636  0.00  0.00    +0.007 A 
BRANCH  33  36
ATOM     36  O   UNL     1       3.401  -7.278  27.209  0.00  0.00    -0.507 OA
ATOM     37  H   UNL     1       3.214  -6.809  28.038  0.00  0.00    +0.292 HD
ENDBRANCH  33  36
ENDBRANCH  29  30
ENDBRANCH   1  29
TORSDOF 9
ENDMDL
MODEL 8
REMARK VINA RESULT:      -6.9      3.284      8.832
REMARK  Name = 
REMARK  9 active torsions:
REMARK  status: ('A' for Active; 'I' for Inactive)
REMARK    1  A    between atoms: O_1  and  O_2
REMARK    2  A    between atoms: O_2  and  C_3
REMARK    3  A    between atoms: C_3  and  C_4
REMARK    4  A    between atoms: C_4  and  C_5
REMARK    5  A    between atoms: C_8  and  O_9
REMARK    6  A    between atoms: C_14  and  C_16
REMARK    7  A    between atoms: C_16  and  C_17
REMARK    8  A    between atoms: C_23  and  C_28
REMARK    9  A    between atoms: C_31  and  O_32
REMARK                            x       y       z     vdW  Elec       q    Type
REMARK                         _______ _______ _______ _____ _____    ______ ____
ROOT
ATOM      1  C   UNL     1       6.997   1.218  26.427  0.00  0.00    +0.381 C 
ATOM      2  C   UNL     1       6.056   0.058  26.801  0.00  0.00    +0.391 C 
ATOM      3  O   UNL     1       4.982   0.132  27.380  0.00  0.00    -0.239 OA
ATOM      4  N   UNL     1       6.637  -1.054  26.268  0.00  0.00    -0.123 N 
ATOM      5  C   UNL     1       7.836  -0.715  25.726  0.00  0.00    +0.319 C 
ATOM      6  C   UNL     1       8.704  -1.869  25.174  0.00  0.00    +0.188 C 
ATOM      7  N   UNL     1       7.798  -2.912  24.635  0.00  0.00    -0.328 N 
ATOM      8  H   UNL     1       8.247  -3.734  24.238  0.00  0.00    +0.147 HD
ATOM      9  C   UNL     1       6.614  -3.190  25.312  0.00  0.00    +0.073 C 
ATOM     10  C   UNL     1       6.054  -2.290  26.140  0.00  0.00    +0.223 C 
ATOM     11  N   UNL     1       8.168   0.537  25.786  0.00  0.00    -0.034 NA
ENDROOT
BRANCH   9  12
ATOM     12  C   UNL     1       5.901  -4.439  25.012  0.00  0.00    -0.001 A 
ATOM     13  C   UNL     1       5.654  -5.391  26.007  0.00  0.00    +0.013 A 
ATOM     14  C   UNL     1       4.949  -6.561  25.699  0.00  0.00    +0.046 A 
ATOM     15  C   UNL     1       4.484  -6.766  24.407  0.00  0.00    +0.117 A 
ATOM     16  C   UNL     1       4.708  -5.824  23.408  0.00  0.00    +0.046 A 
ATOM     17  C   UNL     1       5.424  -4.660  23.713  0.00  0.00    +0.013 A 
BRANCH  15  18
ATOM     18  O   UNL     1       3.793  -7.912  24.151  0.00  0.00    -0.507 OA
ATOM     19  H   UNL     1       3.572  -7.940  23.205  0.00  0.00    +0.292 HD
ENDBRANCH  15  18
ENDBRANCH   9  12
BRANCH   1  20
ATOM     20  O   UNL     1       7.250   2.045  27.566  0.00  0.00    -0.169 OA
BRANCH  20  21
ATOM     21  O   UNL     1       7.586   1.159  28.678  0.00  0.00    -0.245 OA
ATOM     22  H   UNL     1       6.943   0.462  28.452  0.00  0.00    +0.253 HD
ENDBRANCH  20  21
ENDBRANCH   1  20
BRANCH   6  23
ATOM     23  C   UNL     1       9.754  -1.463  24.121  0.00  0.00    +0.038 C 
BRANCH  23  24
ATOM     24  C   UNL     1       9.737   0.029  23.768  0.00  0.00    -0.009 C 
ATOM     25  C   UNL     1       9.671   0.373  22.277  0.00  0.00    +0.003 C 
ATOM     26  C   UNL     1      10.093   1.853  22.211  0.00  0.00    +0.000 C 
ATOM     27  C   UNL     1      10.641   2.193  23.598  0.00  0.00    +0.000 C 
ATOM     28  C   UNL     1      10.953   0.838  24.213  0.00  0.00    +0.003 C 
ENDBRANCH  23  24
ENDBRANCH   6  23
BRANCH   1  29
ATOM     29  C   UNL     1       6.238   2.046  25.360  0.00  0.00    +0.138 C 
BRANCH  29  30
ATOM     30  C   UNL     1       7.030   3.116  24.640  0.00  0.00    -0.040 A 
ATOM     31  C   UNL     1       7.882   3.968  25.360  0.00  0.00    +0.007 A 
ATOM     32  C   UNL     1       8.553   5.008  24.716  0.00  0.00    +0.045 A 
ATOM     33  C   UNL     1       8.391   5.191  23.349  0.00  0.00    +0.117 A 
ATOM     34  C   UNL     1       7.562   4.352  22.613  0.00  0.00    +0.045 A 
ATOM     35  C   UNL     1       6.885   3.313  23.259  0.00  0.00    +0.007 A 
BRANCH  33  36
ATOM     36  O   UNL     1       9.072   6.217  22.763  0.00  0.00    -0.507 OA
ATOM     37  H   UNL     1       9.002   6.998  23.335  0.00  0.00    +0.292 HD
ENDBRANCH  33  36
ENDBRANCH  29  30
ENDBRANCH   1  29
TORSDOF 9
ENDMDL
MODEL 9
REMARK VINA RESULT:      -6.8      2.809      8.362
REMARK  Name = 
REMARK  9 active torsions:
REMARK  status: ('A' for Active; 'I' for Inactive)
REMARK    1  A    between atoms: O_1  and  O_2
REMARK    2  A    between atoms: O_2  and  C_3
REMARK    3  A    between atoms: C_3  and  C_4
REMARK    4  A    between atoms: C_4  and  C_5
REMARK    5  A    between atoms: C_8  and  O_9
REMARK    6  A    between atoms: C_14  and  C_16
REMARK    7  A    between atoms: C_16  and  C_17
REMARK    8  A    between atoms: C_23  and  C_28
REMARK    9  A    between atoms: C_31  and  O_32
REMARK                            x       y       z     vdW  Elec       q    Type
REMARK                         _______ _______ _______ _____ _____    ______ ____
ROOT
ATOM      1  C   UNL     1       7.051   0.114  26.691  0.00  0.00    +0.381 C 
ATOM      2  C   UNL     1       5.877  -0.804  27.079  0.00  0.00    +0.391 C 
ATOM      3  O   UNL     1       4.782  -0.468  27.505  0.00  0.00    -0.239 OA
ATOM      4  N   UNL     1       6.293  -2.063  26.758  0.00  0.00    -0.123 N 
ATOM      5  C   UNL     1       7.583  -2.013  26.335  0.00  0.00    +0.319 C 
ATOM      6  C   UNL     1       8.273  -3.364  26.037  0.00  0.00    +0.188 C 
ATOM      7  N   UNL     1       7.248  -4.301  25.516  0.00  0.00    -0.328 N 
ATOM      8  H   UNL     1       7.575  -5.235  25.279  0.00  0.00    +0.147 HD
ATOM      9  C   UNL     1       5.971  -4.276  26.066  0.00  0.00    +0.073 C 
ATOM     10  C   UNL     1       5.506  -3.187  26.705  0.00  0.00    +0.223 C 
ATOM     11  N   UNL     1       8.135  -0.840  26.288  0.00  0.00    -0.034 NA
ENDROOT
BRANCH   9  12
ATOM     12  C   UNL     1       5.072  -5.413  25.829  0.00  0.00    -0.001 A 
ATOM     13  C   UNL     1       4.968  -6.005  24.565  0.00  0.00    +0.013 A 
ATOM     14  C   UNL     1       4.122  -7.104  24.373  0.00  0.00    +0.046 A 
ATOM     15  C   UNL     1       3.399  -7.614  25.442  0.00  0.00    +0.117 A 
ATOM     16  C   UNL     1       3.500  -7.046  26.708  0.00  0.00    +0.046 A 
ATOM     17  C   UNL     1       4.336  -5.940  26.898  0.00  0.00    +0.013 A 
BRANCH  15  18
ATOM     18  O   UNL     1       2.597  -8.691  25.216  0.00  0.00    -0.507 OA
ATOM     19  H   UNL     1       1.716  -8.376  24.954  0.00  0.00    +0.292 HD
ENDBRANCH  15  18
ENDBRANCH   9  12
BRANCH   1  20
ATOM     20  O   UNL     1       7.336   1.035  27.747  0.00  0.00    -0.169 OA
BRANCH  20  21
ATOM     21  O   UNL     1       8.341   0.413  28.605  0.00  0.00    -0.245 OA
ATOM     22  H   UNL     1       7.727   0.165  29.320  0.00  0.00    +0.253 HD
ENDBRANCH  20  21
ENDBRANCH   1  20
BRANCH   6  23
ATOM     23  C   UNL     1       9.483  -3.294  25.084  0.00  0.00    +0.038 C 
BRANCH  23  24
ATOM     24  C   UNL     1       9.302  -2.311  23.921  0.00  0.00    -0.009 C 
ATOM     25  C   UNL     1       8.293  -2.715  22.842  0.00  0.00    +0.003 C 
ATOM     26  C   UNL     1       8.631  -1.805  21.648  0.00  0.00    +0.000 C 
ATOM     27  C   UNL     1       9.965  -1.142  21.992  0.00  0.00    +0.000 C 
ATOM     28  C   UNL     1      10.547  -2.029  23.082  0.00  0.00    +0.003 C 
ENDBRANCH  23  24
ENDBRANCH   6  23
BRANCH   1  29
ATOM     29  C   UNL     1       6.572   0.903  25.447  0.00  0.00    +0.138 C 
BRANCH  29  30
ATOM     30  C   UNL     1       7.632   1.285  24.436  0.00  0.00    -0.040 A 
ATOM     31  C   UNL     1       8.947   1.538  24.854  0.00  0.00    +0.007 A 
ATOM     32  C   UNL     1       9.910   1.969  23.941  0.00  0.00    +0.045 A 
ATOM     33  C   UNL     1       9.569   2.131  22.604  0.00  0.00    +0.117 A 
ATOM     34  C   UNL     1       8.275   1.874  22.164  0.00  0.00    +0.045 A 
ATOM     35  C   UNL     1       7.308   1.448  23.080  0.00  0.00    +0.007 A 
BRANCH  33  36
ATOM     36  O   UNL     1      10.546   2.548  21.747  0.00  0.00    -0.507 OA
ATOM     37  H   UNL     1      10.155   2.653  20.865  0.00  0.00    +0.292 HD
ENDBRANCH  33  36
ENDBRANCH  29  30
ENDBRANCH   1  29
TORSDOF 9
ENDMDL
