MODEL 1
REMARK VINA RESULT:      -6.6      0.000      0.000
REMARK  Name = 
REMARK  13 active torsions:
REMARK  status: ('A' for Active; 'I' for Inactive)
REMARK    1  A    between atoms: C_1  and  O_2
REMARK    2  A    between atoms: O_2  and  C_3
REMARK    3  A    between atoms: C_5  and  C_13
REMARK    4  A    between atoms: C_7  and  O_8
REMARK    5  A    between atoms: O_8  and  C_9
REMARK    6  A    between atoms: C_10  and  O_11
REMARK    7  A    between atoms: O_11  and  C_12
REMARK    8  A    between atoms: C_13  and  O_15
REMARK    9  A    between atoms: C_13  and  C_16
REMARK   10  A    between atoms: C_16  and  C_17
REMARK   11  A    between atoms: C_19  and  O_20
REMARK   12  A    between atoms: C_21  and  O_22
REMARK   13  A    between atoms: O_22  and  C_23
REMARK                            x       y       z     vdW  Elec       q    Type
REMARK                         _______ _______ _______ _____ _____    ______ ____
ROOT
ATOM      1  C   UNL     1       9.310  -3.107  24.327  0.00  0.00    +0.149 C 
ENDROOT
BRANCH   1   6
ATOM      2  C   UNL     1       6.231  -4.232  22.359  0.00  0.00    +0.166 A 
ATOM      3  C   UNL     1       5.193  -4.132  23.312  0.00  0.00    +0.204 A 
ATOM      4  C   UNL     1       5.514  -3.699  24.616  0.00  0.00    +0.166 A 
ATOM      5  C   UNL     1       6.851  -3.400  24.945  0.00  0.00    +0.055 A 
ATOM      6  C   UNL     1       7.888  -3.534  24.016  0.00  0.00    -0.012 A 
ATOM      7  C   UNL     1       7.562  -3.986  22.734  0.00  0.00    +0.055 A 
BRANCH   2   9
ATOM      8  C   UNL     1       6.161  -5.904  20.677  0.00  0.00    +0.277 C 
ATOM      9  O   UNL     1       5.914  -4.553  21.060  0.00  0.00    -0.491 OA
ENDBRANCH   2   9
BRANCH   3  10
ATOM     10  O   UNL     1       3.867  -4.337  23.030  0.00  0.00    -0.488 OA
ATOM     11  C   UNL     1       3.316  -5.631  23.241  0.00  0.00    +0.277 C 
ENDBRANCH   3  10
BRANCH   4  12
ATOM     12  O   UNL     1       4.676  -3.490  25.683  0.00  0.00    -0.491 OA
ATOM     13  C   UNL     1       4.604  -4.456  26.720  0.00  0.00    +0.277 C 
ENDBRANCH   4  12
ENDBRANCH   1   6
BRANCH   1  14
ATOM     14  O   UNL     1      10.048  -4.294  24.634  0.00  0.00    -0.387 OA
ATOM     15  H   UNL     1       9.614  -5.023  24.158  0.00  0.00    +0.210 HD
ENDBRANCH   1  14
BRANCH   1  16
ATOM     16  C   UNL     1       9.994  -2.330  23.191  0.00  0.00    +0.071 C 
BRANCH  16  17
ATOM     17  C   UNL     1       9.938  -0.828  23.404  0.00  0.00    -0.041 A 
ATOM     18  C   UNL     1       9.883  -0.280  24.692  0.00  0.00    +0.007 A 
ATOM     19  C   UNL     1       9.857   1.111  24.880  0.00  0.00    +0.049 A 
ATOM     20  C   UNL     1       9.895   1.975  23.783  0.00  0.00    +0.161 A 
ATOM     21  C   UNL     1       9.953   1.424  22.498  0.00  0.00    +0.159 A 
ATOM     22  C   UNL     1       9.977   0.038  22.306  0.00  0.00    +0.053 A 
BRANCH  20  23
ATOM     23  O   UNL     1       9.884   3.342  23.853  0.00  0.00    -0.491 OA
ATOM     24  C   UNL     1       8.850   3.956  24.608  0.00  0.00    +0.277 C 
ENDBRANCH  20  23
BRANCH  21  25
ATOM     25  O   UNL     1       9.984   2.257  21.411  0.00  0.00    -0.503 OA
ATOM     26  H   UNL     1      10.583   2.995  21.600  0.00  0.00    +0.292 HD
ENDBRANCH  21  25
ENDBRANCH  16  17
ENDBRANCH   1  16
TORSDOF 9
ENDMDL
MODEL 2
REMARK VINA RESULT:      -6.6      0.147      2.520
REMARK  Name = 
REMARK  13 active torsions:
REMARK  status: ('A' for Active; 'I' for Inactive)
REMARK    1  A    between atoms: C_1  and  O_2
REMARK    2  A    between atoms: O_2  and  C_3
REMARK    3  A    between atoms: C_5  and  C_13
REMARK    4  A    between atoms: C_7  and  O_8
REMARK    5  A    between atoms: O_8  and  C_9
REMARK    6  A    between atoms: C_10  and  O_11
REMARK    7  A    between atoms: O_11  and  C_12
REMARK    8  A    between atoms: C_13  and  O_15
REMARK    9  A    between atoms: C_13  and  C_16
REMARK   10  A    between atoms: C_16  and  C_17
REMARK   11  A    between atoms: C_19  and  O_20
REMARK   12  A    between atoms: C_21  and  O_22
REMARK   13  A    between atoms: O_22  and  C_23
REMARK                            x       y       z     vdW  Elec       q    Type
REMARK                         _______ _______ _______ _____ _____    ______ ____
ROOT
ATOM      1  C   UNL     1       9.245  -3.076  24.318  0.00  0.00    +0.149 C 
ENDROOT
BRANCH   1   6
ATOM      2  C   UNL     1       5.464  -3.527  24.658  0.00  0.00    +0.166 A 
ATOM      3  C   UNL     1       5.079  -3.952  23.367  0.00  0.00    +0.204 A 
ATOM      4  C   UNL     1       6.074  -4.082  22.375  0.00  0.00    +0.166 A 
ATOM      5  C   UNL     1       7.413  -3.767  22.681  0.00  0.00    +0.055 A 
ATOM      6  C   UNL     1       7.793  -3.309  23.947  0.00  0.00    -0.012 A 
ATOM      7  C   UNL     1       6.796  -3.162  24.915  0.00  0.00    +0.055 A 
BRANCH   2   9
ATOM      8  C   UNL     1       4.672  -4.473  26.685  0.00  0.00    +0.277 C 
ATOM      9  O   UNL     1       4.520  -3.496  25.657  0.00  0.00    -0.491 OA
ENDBRANCH   2   9
BRANCH   3  10
ATOM     10  O   UNL     1       3.808  -4.343  23.032  0.00  0.00    -0.488 OA
ATOM     11  C   UNL     1       3.442  -5.704  23.217  0.00  0.00    +0.277 C 
ENDBRANCH   3  10
BRANCH   4  12
ATOM     12  O   UNL     1       5.944  -4.512  21.078  0.00  0.00    -0.491 OA
ATOM     13  C   UNL     1       6.239  -5.861  20.751  0.00  0.00    +0.277 C 
ENDBRANCH   4  12
ENDBRANCH   1   6
BRANCH   1  14
ATOM     14  O   UNL     1       9.827  -4.358  24.570  0.00  0.00    -0.387 OA
ATOM     15  H   UNL     1      10.289  -4.292  25.424  0.00  0.00    +0.210 HD
ENDBRANCH   1  14
BRANCH   1  16
ATOM     16  C   UNL     1      10.053  -2.323  23.248  0.00  0.00    +0.071 C 
BRANCH  16  17
ATOM     17  C   UNL     1       9.994  -0.818  23.433  0.00  0.00    -0.041 A 
ATOM     18  C   UNL     1       9.991  -0.245  24.711  0.00  0.00    +0.007 A 
ATOM     19  C   UNL     1       9.963   1.150  24.872  0.00  0.00    +0.049 A 
ATOM     20  C   UNL     1       9.946   1.992  23.758  0.00  0.00    +0.161 A 
ATOM     21  C   UNL     1       9.952   1.416  22.483  0.00  0.00    +0.159 A 
ATOM     22  C   UNL     1       9.979   0.026  22.317  0.00  0.00    +0.053 A 
BRANCH  20  23
ATOM     23  O   UNL     1       9.928   3.360  23.802  0.00  0.00    -0.491 OA
ATOM     24  C   UNL     1       8.877   3.983  24.526  0.00  0.00    +0.277 C 
ENDBRANCH  20  23
BRANCH  21  25
ATOM     25  O   UNL     1       9.930   2.227  21.379  0.00  0.00    -0.503 OA
ATOM     26  H   UNL     1       9.862   3.149  21.671  0.00  0.00    +0.292 HD
ENDBRANCH  21  25
ENDBRANCH  16  17
ENDBRANCH   1  16
TORSDOF 9
ENDMDL
MODEL 3
REMARK VINA RESULT:      -6.5      1.299      2.772
REMARK  Name = 
REMARK  13 active torsions:
REMARK  status: ('A' for Active; 'I' for Inactive)
REMARK    1  A    between atoms: C_1  and  O_2
REMARK    2  A    between atoms: O_2  and  C_3
REMARK    3  A    between atoms: C_5  and  C_13
REMARK    4  A    between atoms: C_7  and  O_8
REMARK    5  A    between atoms: O_8  and  C_9
REMARK    6  A    between atoms: C_10  and  O_11
REMARK    7  A    between atoms: O_11  and  C_12
REMARK    8  A    between atoms: C_13  and  O_15
REMARK    9  A    between atoms: C_13  and  C_16
REMARK   10  A    between atoms: C_16  and  C_17
REMARK   11  A    between atoms: C_19  and  O_20
REMARK   12  A    between atoms: C_21  and  O_22
REMARK   13  A    between atoms: O_22  and  C_23
REMARK                            x       y       z     vdW  Elec       q    Type
REMARK                         _______ _______ _______ _____ _____    ______ ____
ROOT
ATOM      1  C   UNL     1       9.161  -3.165  24.298  0.00  0.00    +0.149 C 
ENDROOT
BRANCH   1   6
ATOM      2  C   UNL     1       6.421  -5.537  25.516  0.00  0.00    +0.166 A 
ATOM      3  C   UNL     1       5.636  -5.734  24.358  0.00  0.00    +0.204 A 
ATOM      4  C   UNL     1       6.008  -5.070  23.169  0.00  0.00    +0.166 A 
ATOM      5  C   UNL     1       7.130  -4.217  23.167  0.00  0.00    +0.055 A 
ATOM      6  C   UNL     1       7.889  -3.990  24.319  0.00  0.00    -0.012 A 
ATOM      7  C   UNL     1       7.497  -4.634  25.497  0.00  0.00    +0.055 A 
BRANCH   2   9
ATOM      8  C   UNL     1       6.118  -5.520  27.869  0.00  0.00    +0.277 C 
ATOM      9  O   UNL     1       6.128  -6.258  26.649  0.00  0.00    -0.491 OA
ENDBRANCH   2   9
BRANCH   3  10
ATOM     10  O   UNL     1       4.581  -6.606  24.282  0.00  0.00    -0.488 OA
ATOM     11  C   UNL     1       3.271  -6.119  24.543  0.00  0.00    +0.277 C 
ENDBRANCH   3  10
BRANCH   4  12
ATOM     12  O   UNL     1       5.427  -5.139  21.928  0.00  0.00    -0.491 OA
ATOM     13  C   UNL     1       6.148  -5.706  20.845  0.00  0.00    +0.277 C 
ENDBRANCH   4  12
ENDBRANCH   1   6
BRANCH   1  14
ATOM     14  O   UNL     1      10.252  -4.067  24.503  0.00  0.00    -0.387 OA
ATOM     15  H   UNL     1      10.859  -3.945  23.752  0.00  0.00    +0.210 HD
ENDBRANCH   1  14
BRANCH   1  16
ATOM     16  C   UNL     1       9.366  -2.362  23.003  0.00  0.00    +0.071 C 
BRANCH  16  17
ATOM     17  C   UNL     1       9.565  -0.881  23.268  0.00  0.00    -0.041 A 
ATOM     18  C   UNL     1       9.622  -0.379  24.575  0.00  0.00    +0.007 A 
ATOM     19  C   UNL     1       9.832   0.989  24.810  0.00  0.00    +0.049 A 
ATOM     20  C   UNL     1       9.998   1.875  23.743  0.00  0.00    +0.161 A 
ATOM     21  C   UNL     1       9.943   1.370  22.439  0.00  0.00    +0.159 A 
ATOM     22  C   UNL     1       9.733   0.006  22.199  0.00  0.00    +0.053 A 
BRANCH  20  23
ATOM     23  O   UNL     1      10.217   3.220  23.859  0.00  0.00    -0.491 OA
ATOM     24  C   UNL     1       9.153   4.023  24.351  0.00  0.00    +0.277 C 
ENDBRANCH  20  23
BRANCH  21  25
ATOM     25  O   UNL     1      10.097   2.225  21.380  0.00  0.00    -0.503 OA
ATOM     26  H   UNL     1       9.275   2.239  20.868  0.00  0.00    +0.292 HD
ENDBRANCH  21  25
ENDBRANCH  16  17
ENDBRANCH   1  16
TORSDOF 9
ENDMDL
MODEL 4
REMARK VINA RESULT:      -6.3      2.364      4.080
REMARK  Name = 
REMARK  13 active torsions:
REMARK  status: ('A' for Active; 'I' for Inactive)
REMARK    1  A    between atoms: C_1  and  O_2
REMARK    2  A    between atoms: O_2  and  C_3
REMARK    3  A    between atoms: C_5  and  C_13
REMARK    4  A    between atoms: C_7  and  O_8
REMARK    5  A    between atoms: O_8  and  C_9
REMARK    6  A    between atoms: C_10  and  O_11
REMARK    7  A    between atoms: O_11  and  C_12
REMARK    8  A    between atoms: C_13  and  O_15
REMARK    9  A    between atoms: C_13  and  C_16
REMARK   10  A    between atoms: C_16  and  C_17
REMARK   11  A    between atoms: C_19  and  O_20
REMARK   12  A    between atoms: C_21  and  O_22
REMARK   13  A    between atoms: O_22  and  C_23
REMARK                            x       y       z     vdW  Elec       q    Type
REMARK                         _______ _______ _______ _____ _____    ______ ____
ROOT
ATOM      1  C   UNL     1       6.245  -4.489  22.270  0.00  0.00    +0.149 C 
ENDROOT
BRANCH   1   6
ATOM      2  C   UNL     1       6.446  -5.373  25.985  0.00  0.00    +0.166 A 
ATOM      3  C   UNL     1       5.477  -6.391  26.120  0.00  0.00    +0.204 A 
ATOM      4  C   UNL     1       4.745  -6.782  24.978  0.00  0.00    +0.166 A 
ATOM      5  C   UNL     1       4.977  -6.141  23.745  0.00  0.00    +0.055 A 
ATOM      6  C   UNL     1       5.908  -5.106  23.614  0.00  0.00    -0.012 A 
ATOM      7  C   UNL     1       6.611  -4.711  24.757  0.00  0.00    +0.055 A 
BRANCH   2   9
ATOM      8  C   UNL     1       8.583  -4.698  26.767  0.00  0.00    +0.277 C 
ATOM      9  O   UNL     1       7.235  -5.057  27.066  0.00  0.00    -0.491 OA
ENDBRANCH   2   9
BRANCH   3  10
ATOM     10  O   UNL     1       5.261  -7.100  27.273  0.00  0.00    -0.488 OA
ATOM     11  C   UNL     1       4.261  -6.646  28.177  0.00  0.00    +0.277 C 
ENDBRANCH   3  10
BRANCH   4  12
ATOM     12  O   UNL     1       3.793  -7.764  24.862  0.00  0.00    -0.491 OA
ATOM     13  C   UNL     1       2.592  -7.498  24.155  0.00  0.00    +0.277 C 
ENDBRANCH   4  12
ENDBRANCH   1   6
BRANCH   1  14
ATOM     14  O   UNL     1       5.588  -5.273  21.270  0.00  0.00    -0.387 OA
ATOM     15  H   UNL     1       5.146  -6.005  21.735  0.00  0.00    +0.210 HD
ENDBRANCH   1  14
BRANCH   1  16
ATOM     16  C   UNL     1       5.842  -3.011  22.141  0.00  0.00    +0.071 C 
BRANCH  16  17
ATOM     17  C   UNL     1       6.981  -2.070  22.492  0.00  0.00    -0.041 A 
ATOM     18  C   UNL     1       6.776  -0.963  23.326  0.00  0.00    +0.007 A 
ATOM     19  C   UNL     1       7.841  -0.114  23.666  0.00  0.00    +0.049 A 
ATOM     20  C   UNL     1       9.128  -0.363  23.185  0.00  0.00    +0.161 A 
ATOM     21  C   UNL     1       9.330  -1.471  22.355  0.00  0.00    +0.159 A 
ATOM     22  C   UNL     1       8.271  -2.321  22.012  0.00  0.00    +0.053 A 
BRANCH  20  23
ATOM     23  O   UNL     1      10.235   0.393  23.461  0.00  0.00    -0.491 OA
ATOM     24  C   UNL     1      10.652   0.483  24.816  0.00  0.00    +0.277 C 
ENDBRANCH  20  23
BRANCH  21  25
ATOM     25  O   UNL     1      10.584  -1.727  21.869  0.00  0.00    -0.503 OA
ATOM     26  H   UNL     1      11.141  -2.046  22.595  0.00  0.00    +0.292 HD
ENDBRANCH  21  25
ENDBRANCH  16  17
ENDBRANCH   1  16
TORSDOF 9
ENDMDL
MODEL 5
REMARK VINA RESULT:      -6.2      2.021      6.837
REMARK  Name = 
REMARK  13 active torsions:
REMARK  status: ('A' for Active; 'I' for Inactive)
REMARK    1  A    between atoms: C_1  and  O_2
REMARK    2  A    between atoms: O_2  and  C_3
REMARK    3  A    between atoms: C_5  and  C_13
REMARK    4  A    between atoms: C_7  and  O_8
REMARK    5  A    between atoms: O_8  and  C_9
REMARK    6  A    between atoms: C_10  and  O_11
REMARK    7  A    between atoms: O_11  and  C_12
REMARK    8  A    between atoms: C_13  and  O_15
REMARK    9  A    between atoms: C_13  and  C_16
REMARK   10  A    between atoms: C_16  and  C_17
REMARK   11  A    between atoms: C_19  and  O_20
REMARK   12  A    between atoms: C_21  and  O_22
REMARK   13  A    between atoms: O_22  and  C_23
REMARK                            x       y       z     vdW  Elec       q    Type
REMARK                         _______ _______ _______ _____ _____    ______ ____
ROOT
ATOM      1  C   UNL     1       8.961  -4.713  24.815  0.00  0.00    +0.149 C 
ENDROOT
BRANCH   1   6
ATOM      2  C   UNL     1       9.853  -1.141  23.785  0.00  0.00    +0.166 A 
ATOM      3  C   UNL     1       9.452  -0.379  24.905  0.00  0.00    +0.204 A 
ATOM      4  C   UNL     1       8.873  -1.049  26.004  0.00  0.00    +0.166 A 
ATOM      5  C   UNL     1       8.690  -2.446  25.954  0.00  0.00    +0.055 A 
ATOM      6  C   UNL     1       9.051  -3.199  24.833  0.00  0.00    -0.012 A 
ATOM      7  C   UNL     1       9.601  -2.522  23.740  0.00  0.00    +0.055 A 
BRANCH   2   9
ATOM      8  C   UNL     1       9.705  -0.149  21.634  0.00  0.00    +0.277 C 
ATOM      9  O   UNL     1      10.510  -0.512  22.754  0.00  0.00    -0.491 OA
ENDBRANCH   2   9
BRANCH   3  10
ATOM     10  O   UNL     1       9.673   0.967  25.040  0.00  0.00    -0.488 OA
ATOM     11  C   UNL     1       8.660   1.871  24.618  0.00  0.00    +0.277 C 
ENDBRANCH   3  10
BRANCH   4  12
ATOM     12  O   UNL     1       8.449  -0.530  27.202  0.00  0.00    -0.491 OA
ATOM     13  C   UNL     1       7.103  -0.106  27.346  0.00  0.00    +0.277 C 
ENDBRANCH   4  12
ENDBRANCH   1   6
BRANCH   1  14
ATOM     14  O   UNL     1      10.228  -5.215  25.251  0.00  0.00    -0.387 OA
ATOM     15  H   UNL     1      10.251  -5.113  26.218  0.00  0.00    +0.210 HD
ENDBRANCH   1  14
BRANCH   1  16
ATOM     16  C   UNL     1       7.831  -5.284  25.686  0.00  0.00    +0.071 C 
BRANCH  16  17
ATOM     17  C   UNL     1       6.493  -5.282  24.969  0.00  0.00    -0.041 A 
ATOM     18  C   UNL     1       5.319  -4.893  25.626  0.00  0.00    +0.007 A 
ATOM     19  C   UNL     1       4.090  -4.870  24.947  0.00  0.00    +0.049 A 
ATOM     20  C   UNL     1       4.018  -5.226  23.598  0.00  0.00    +0.161 A 
ATOM     21  C   UNL     1       5.193  -5.611  22.944  0.00  0.00    +0.159 A 
ATOM     22  C   UNL     1       6.421  -5.637  23.617  0.00  0.00    +0.053 A 
BRANCH  20  23
ATOM     23  O   UNL     1       2.878  -5.229  22.842  0.00  0.00    -0.491 OA
ATOM     24  C   UNL     1       1.697  -5.756  23.428  0.00  0.00    +0.277 C 
ENDBRANCH  20  23
BRANCH  21  25
ATOM     25  O   UNL     1       5.140  -5.969  21.624  0.00  0.00    -0.503 OA
ATOM     26  H   UNL     1       4.607  -6.774  21.540  0.00  0.00    +0.292 HD
ENDBRANCH  21  25
ENDBRANCH  16  17
ENDBRANCH   1  16
TORSDOF 9
ENDMDL
MODEL 6
REMARK VINA RESULT:      -6.2      2.068      3.659
REMARK  Name = 
REMARK  13 active torsions:
REMARK  status: ('A' for Active; 'I' for Inactive)
REMARK    1  A    between atoms: C_1  and  O_2
REMARK    2  A    between atoms: O_2  and  C_3
REMARK    3  A    between atoms: C_5  and  C_13
REMARK    4  A    between atoms: C_7  and  O_8
REMARK    5  A    between atoms: O_8  and  C_9
REMARK    6  A    between atoms: C_10  and  O_11
REMARK    7  A    between atoms: O_11  and  C_12
REMARK    8  A    between atoms: C_13  and  O_15
REMARK    9  A    between atoms: C_13  and  C_16
REMARK   10  A    between atoms: C_16  and  C_17
REMARK   11  A    between atoms: C_19  and  O_20
REMARK   12  A    between atoms: C_21  and  O_22
REMARK   13  A    between atoms: O_22  and  C_23
REMARK                            x       y       z     vdW  Elec       q    Type
REMARK                         _______ _______ _______ _____ _____    ______ ____
ROOT
ATOM      1  C   UNL     1       9.867  -0.921  22.485  0.00  0.00    +0.149 C 
ENDROOT
BRANCH   1   6
ATOM      2  C   UNL     1       7.486  -2.373  25.100  0.00  0.00    +0.166 A 
ATOM      3  C   UNL     1       6.761  -3.338  24.366  0.00  0.00    +0.204 A 
ATOM      4  C   UNL     1       7.054  -3.503  22.995  0.00  0.00    +0.166 A 
ATOM      5  C   UNL     1       8.037  -2.697  22.388  0.00  0.00    +0.055 A 
ATOM      6  C   UNL     1       8.731  -1.714  23.101  0.00  0.00    -0.012 A 
ATOM      7  C   UNL     1       8.416  -1.543  24.453  0.00  0.00    +0.055 A 
BRANCH   2   9
ATOM      8  C   UNL     1       6.434  -1.210  26.881  0.00  0.00    +0.277 C 
ATOM      9  O   UNL     1       7.280  -2.276  26.456  0.00  0.00    -0.491 OA
ENDBRANCH   2   9
BRANCH   3  10
ATOM     10  O   UNL     1       5.849  -4.200  24.918  0.00  0.00    -0.488 OA
ATOM     11  C   UNL     1       6.319  -5.401  25.516  0.00  0.00    +0.277 C 
ENDBRANCH   3  10
BRANCH   4  12
ATOM     12  O   UNL     1       6.514  -4.395  22.102  0.00  0.00    -0.491 OA
ATOM     13  C   UNL     1       7.146  -5.648  21.890  0.00  0.00    +0.277 C 
ENDBRANCH   4  12
ENDBRANCH   1   6
BRANCH   1  14
ATOM     14  O   UNL     1      10.774  -1.863  21.905  0.00  0.00    -0.387 OA
ATOM     15  H   UNL     1      11.489  -1.347  21.494  0.00  0.00    +0.210 HD
ENDBRANCH   1  14
BRANCH   1  16
ATOM     16  C   UNL     1       9.417   0.105  21.431  0.00  0.00    +0.071 C 
BRANCH  16  17
ATOM     17  C   UNL     1       9.074   1.449  22.046  0.00  0.00    -0.041 A 
ATOM     18  C   UNL     1       9.941   2.075  22.951  0.00  0.00    +0.007 A 
ATOM     19  C   UNL     1       9.627   3.332  23.493  0.00  0.00    +0.049 A 
ATOM     20  C   UNL     1       8.446   3.985  23.133  0.00  0.00    +0.161 A 
ATOM     21  C   UNL     1       7.584   3.358  22.227  0.00  0.00    +0.159 A 
ATOM     22  C   UNL     1       7.892   2.105  21.683  0.00  0.00    +0.053 A 
BRANCH  20  23
ATOM     23  O   UNL     1       8.049   5.211  23.594  0.00  0.00    -0.491 OA
ATOM     24  C   UNL     1       8.922   6.311  23.380  0.00  0.00    +0.277 C 
ENDBRANCH  20  23
BRANCH  21  25
ATOM     25  O   UNL     1       6.419   3.982  21.868  0.00  0.00    -0.503 OA
ATOM     26  H   UNL     1       6.616   4.902  21.635  0.00  0.00    +0.292 HD
ENDBRANCH  21  25
ENDBRANCH  16  17
ENDBRANCH   1  16
TORSDOF 9
ENDMDL
MODEL 7
REMARK VINA RESULT:      -6.2      2.032      7.287
REMARK  Name = 
REMARK  13 active torsions:
REMARK  status: ('A' for Active; 'I' for Inactive)
REMARK    1  A    between atoms: C_1  and  O_2
REMARK    2  A    between atoms: O_2  and  C_3
REMARK    3  A    between atoms: C_5  and  C_13
REMARK    4  A    between atoms: C_7  and  O_8
REMARK    5  A    between atoms: O_8  and  C_9
REMARK    6  A    between atoms: C_10  and  O_11
REMARK    7  A    between atoms: O_11  and  C_12
REMARK    8  A    between atoms: C_13  and  O_15
REMARK    9  A    between atoms: C_13  and  C_16
REMARK   10  A    between atoms: C_16  and  C_17
REMARK   11  A    between atoms: C_19  and  O_20
REMARK   12  A    between atoms: C_21  and  O_22
REMARK   13  A    between atoms: O_22  and  C_23
REMARK                            x       y       z     vdW  Elec       q    Type
REMARK                         _______ _______ _______ _____ _____    ______ ____
ROOT
ATOM      1  C   UNL     1       8.894  -4.673  24.752  0.00  0.00    +0.149 C 
ENDROOT
BRANCH   1   6
ATOM      2  C   UNL     1       8.725  -1.090  26.077  0.00  0.00    +0.166 A 
ATOM      3  C   UNL     1       9.356  -0.345  25.056  0.00  0.00    +0.204 A 
ATOM      4  C   UNL     1       9.850  -1.033  23.926  0.00  0.00    +0.166 A 
ATOM      5  C   UNL     1       9.725  -2.434  23.850  0.00  0.00    +0.055 A 
ATOM      6  C   UNL     1       9.134  -3.180  24.875  0.00  0.00    -0.012 A 
ATOM      7  C   UNL     1       8.670  -2.492  26.000  0.00  0.00    +0.055 A 
BRANCH   2   9
ATOM      8  C   UNL     1       6.726  -0.346  27.117  0.00  0.00    +0.277 C 
ATOM      9  O   UNL     1       8.150  -0.420  27.131  0.00  0.00    -0.491 OA
ENDBRANCH   2   9
BRANCH   3  10
ATOM     10  O   UNL     1       9.440   1.023  25.040  0.00  0.00    -0.488 OA
ATOM     11  C   UNL     1       8.366   1.767  24.481  0.00  0.00    +0.277 C 
ENDBRANCH   3  10
BRANCH   4  12
ATOM     12  O   UNL     1      10.457  -0.522  22.806  0.00  0.00    -0.491 OA
ATOM     13  C   UNL     1       9.685  -0.269  21.642  0.00  0.00    +0.277 C 
ENDBRANCH   4  12
ENDBRANCH   1   6
BRANCH   1  14
ATOM     14  O   UNL     1      10.129  -5.325  25.060  0.00  0.00    -0.387 OA
ATOM     15  H   UNL     1      10.530  -5.581  24.211  0.00  0.00    +0.210 HD
ENDBRANCH   1  14
BRANCH   1  16
ATOM     16  C   UNL     1       7.769  -5.204  25.654  0.00  0.00    +0.071 C 
BRANCH  16  17
ATOM     17  C   UNL     1       6.437  -5.279  24.930  0.00  0.00    -0.041 A 
ATOM     18  C   UNL     1       5.236  -4.988  25.589  0.00  0.00    +0.007 A 
ATOM     19  C   UNL     1       4.011  -5.036  24.904  0.00  0.00    +0.049 A 
ATOM     20  C   UNL     1       3.969  -5.366  23.548  0.00  0.00    +0.161 A 
ATOM     21  C   UNL     1       5.171  -5.654  22.891  0.00  0.00    +0.159 A 
ATOM     22  C   UNL     1       6.395  -5.609  23.570  0.00  0.00    +0.053 A 
BRANCH  20  23
ATOM     23  O   UNL     1       2.835  -5.433  22.785  0.00  0.00    -0.491 OA
ATOM     24  C   UNL     1       1.826  -6.351  23.180  0.00  0.00    +0.277 C 
ENDBRANCH  20  23
BRANCH  21  25
ATOM     25  O   UNL     1       5.149  -5.986  21.563  0.00  0.00    -0.503 OA
ATOM     26  H   UNL     1       5.393  -6.919  21.470  0.00  0.00    +0.292 HD
ENDBRANCH  21  25
ENDBRANCH  16  17
ENDBRANCH   1  16
TORSDOF 9
ENDMDL
MODEL 8
REMARK VINA RESULT:      -6.1      1.810      2.167
REMARK  Name = 
REMARK  13 active torsions:
REMARK  status: ('A' for Active; 'I' for Inactive)
REMARK    1  A    between atoms: C_1  and  O_2
REMARK    2  A    between atoms: O_2  and  C_3
REMARK    3  A    between atoms: C_5  and  C_13
REMARK    4  A    between atoms: C_7  and  O_8
REMARK    5  A    between atoms: O_8  and  C_9
REMARK    6  A    between atoms: C_10  and  O_11
REMARK    7  A    between atoms: O_11  and  C_12
REMARK    8  A    between atoms: C_13  and  O_15
REMARK    9  A    between atoms: C_13  and  C_16
REMARK   10  A    between atoms: C_16  and  C_17
REMARK   11  A    between atoms: C_19  and  O_20
REMARK   12  A    between atoms: C_21  and  O_22
REMARK   13  A    between atoms: O_22  and  C_23
REMARK                            x       y       z     vdW  Elec       q    Type
REMARK                         _______ _______ _______ _____ _____    ______ ____
ROOT
ATOM      1  C   UNL     1       8.375  -4.092  25.782  0.00  0.00    +0.149 C 
ENDROOT
BRANCH   1   6
ATOM      2  C   UNL     1       5.679  -5.430  23.424  0.00  0.00    +0.166 A 
ATOM      3  C   UNL     1       4.876  -6.219  24.279  0.00  0.00    +0.204 A 
ATOM      4  C   UNL     1       5.233  -6.317  25.640  0.00  0.00    +0.166 A 
ATOM      5  C   UNL     1       6.383  -5.652  26.111  0.00  0.00    +0.055 A 
ATOM      6  C   UNL     1       7.202  -4.901  25.263  0.00  0.00    -0.012 A 
ATOM      7  C   UNL     1       6.852  -4.830  23.911  0.00  0.00    +0.055 A 
BRANCH   2   9
ATOM      8  C   UNL     1       6.154  -5.776  21.126  0.00  0.00    +0.277 C 
ATOM      9  O   UNL     1       5.282  -5.246  22.121  0.00  0.00    -0.491 OA
ENDBRANCH   2   9
BRANCH   3  10
ATOM     10  O   UNL     1       3.708  -6.826  23.894  0.00  0.00    -0.488 OA
ATOM     11  C   UNL     1       2.495  -6.090  23.981  0.00  0.00    +0.277 C 
ENDBRANCH   3  10
BRANCH   4  12
ATOM     12  O   UNL     1       4.589  -6.984  26.652  0.00  0.00    -0.491 OA
ATOM     13  C   UNL     1       4.982  -6.767  27.999  0.00  0.00    +0.277 C 
ENDBRANCH   4  12
ENDBRANCH   1   6
BRANCH   1  14
ATOM     14  O   UNL     1       8.933  -4.816  26.882  0.00  0.00    -0.387 OA
ATOM     15  H   UNL     1       9.861  -4.534  26.960  0.00  0.00    +0.210 HD
ENDBRANCH   1  14
BRANCH   1  16
ATOM     16  C   UNL     1       9.456  -3.806  24.726  0.00  0.00    +0.071 C 
BRANCH  16  17
ATOM     17  C   UNL     1       9.436  -2.363  24.257  0.00  0.00    -0.041 A 
ATOM     18  C   UNL     1       9.329  -1.305  25.169  0.00  0.00    +0.007 A 
ATOM     19  C   UNL     1       9.338   0.027  24.727  0.00  0.00    +0.049 A 
ATOM     20  C   UNL     1       9.463   0.323  23.368  0.00  0.00    +0.161 A 
ATOM     21  C   UNL     1       9.573  -0.736  22.459  0.00  0.00    +0.159 A 
ATOM     22  C   UNL     1       9.563  -2.067  22.895  0.00  0.00    +0.053 A 
BRANCH  20  23
ATOM     23  O   UNL     1       9.492   1.582  22.832  0.00  0.00    -0.491 OA
ATOM     24  C   UNL     1      10.394   2.521  23.401  0.00  0.00    +0.277 C 
ENDBRANCH  20  23
BRANCH  21  25
ATOM     25  O   UNL     1       9.690  -0.464  21.123  0.00  0.00    -0.503 OA
ATOM     26  H   UNL     1       9.163   0.322  20.916  0.00  0.00    +0.292 HD
ENDBRANCH  21  25
ENDBRANCH  16  17
ENDBRANCH   1  16
TORSDOF 9
ENDMDL
MODEL 9
REMARK VINA RESULT:      -6.1      1.965      3.535
REMARK  Name = 
REMARK  13 active torsions:
REMARK  status: ('A' for Active; 'I' for Inactive)
REMARK    1  A    between atoms: C_1  and  O_2
REMARK    2  A    between atoms: O_2  and  C_3
REMARK    3  A    between atoms: C_5  and  C_13
REMARK    4  A    between atoms: C_7  and  O_8
REMARK    5  A    between atoms: O_8  and  C_9
REMARK    6  A    between atoms: C_10  and  O_11
REMARK    7  A    between atoms: O_11  and  C_12
REMARK    8  A    between atoms: C_13  and  O_15
REMARK    9  A    between atoms: C_13  and  C_16
REMARK   10  A    between atoms: C_16  and  C_17
REMARK   11  A    between atoms: C_19  and  O_20
REMARK   12  A    between atoms: C_21  and  O_22
REMARK   13  A    between atoms: O_22  and  C_23
REMARK                            x       y       z     vdW  Elec       q    Type
REMARK                         _______ _______ _______ _____ _____    ______ ____
ROOT
ATOM      1  C   UNL     1       8.641  -3.978  25.680  0.00  0.00    +0.149 C 
ENDROOT
BRANCH   1   6
ATOM      2  C   UNL     1       5.636  -6.317  26.021  0.00  0.00    +0.166 A 
ATOM      3  C   UNL     1       5.171  -6.431  24.691  0.00  0.00    +0.204 A 
ATOM      4  C   UNL     1       5.849  -5.721  23.677  0.00  0.00    +0.166 A 
ATOM      5  C   UNL     1       6.950  -4.907  24.009  0.00  0.00    +0.055 A 
ATOM      6  C   UNL     1       7.391  -4.762  25.328  0.00  0.00    -0.012 A 
ATOM      7  C   UNL     1       6.697  -5.450  26.329  0.00  0.00    +0.055 A 
BRANCH   2   9
ATOM      8  C   UNL     1       5.110  -6.557  28.322  0.00  0.00    +0.277 C 
ATOM      9  O   UNL     1       5.047  -7.084  26.999  0.00  0.00    -0.491 OA
ENDBRANCH   2   9
BRANCH   3  10
ATOM     10  O   UNL     1       4.155  -7.263  24.299  0.00  0.00    -0.488 OA
ATOM     11  C   UNL     1       2.831  -6.748  24.246  0.00  0.00    +0.277 C 
ENDBRANCH   3  10
BRANCH   4  12
ATOM     12  O   UNL     1       5.606  -5.710  22.326  0.00  0.00    -0.491 OA
ATOM     13  C   UNL     1       6.693  -5.769  21.416  0.00  0.00    +0.277 C 
ENDBRANCH   4  12
ENDBRANCH   1   6
BRANCH   1  14
ATOM     14  O   UNL     1       9.341  -4.727  26.678  0.00  0.00    -0.387 OA
ATOM     15  H   UNL     1      10.065  -4.160  26.995  0.00  0.00    +0.210 HD
ENDBRANCH   1  14
BRANCH   1  16
ATOM     16  C   UNL     1       9.561  -3.694  24.482  0.00  0.00    +0.071 C 
BRANCH  16  17
ATOM     17  C   UNL     1       9.554  -2.229  24.084  0.00  0.00    -0.041 A 
ATOM     18  C   UNL     1       9.871  -1.831  22.779  0.00  0.00    +0.007 A 
ATOM     19  C   UNL     1       9.837  -0.475  22.415  0.00  0.00    +0.049 A 
ATOM     20  C   UNL     1       9.478   0.502  23.346  0.00  0.00    +0.161 A 
ATOM     21  C   UNL     1       9.160   0.099  24.649  0.00  0.00    +0.159 A 
ATOM     22  C   UNL     1       9.193  -1.251  25.018  0.00  0.00    +0.053 A 
BRANCH  20  23
ATOM     23  O   UNL     1       9.404   1.845  23.095  0.00  0.00    -0.491 OA
ATOM     24  C   UNL     1       8.508   2.279  22.082  0.00  0.00    +0.277 C 
ENDBRANCH  20  23
BRANCH  21  25
ATOM     25  O   UNL     1       8.811   1.044  25.577  0.00  0.00    -0.503 OA
ATOM     26  H   UNL     1       9.259   1.875  25.359  0.00  0.00    +0.292 HD
ENDBRANCH  21  25
ENDBRANCH  16  17
ENDBRANCH   1  16
TORSDOF 9
ENDMDL
