MODEL 1
REMARK VINA RESULT:      -5.8      0.000      0.000
REMARK  Name = 
REMARK  9 active torsions:
REMARK  status: ('A' for Active; 'I' for Inactive)
REMARK    1  A    between atoms: C_1  and  C_2
REMARK    2  A    between atoms: N_4  and  C_5
REMARK    3  A    between atoms: C_7  and  O_9
REMARK    4  A    between atoms: C_11  and  C_13
REMARK    5  A    between atoms: C_13  and  O_14
REMARK    6  A    between atoms: C_15  and  O_17
REMARK    7  A    between atoms: O_17  and  S_18
REMARK    8  A    between atoms: S_18  and  O_19
REMARK    9  A    between atoms: C_22  and  O_24
REMARK                            x       y       z     vdW  Elec       q    Type
REMARK                         _______ _______ _______ _____ _____    ______ ____
ROOT
ATOM      1  C   UNL     1       7.552  -2.016  22.519  0.00  0.00    +0.160 C 
ATOM      2  C   UNL     1       9.017  -2.497  22.530  0.00  0.00    +0.173 C 
ATOM      3  C   UNL     1       9.549  -2.520  23.985  0.00  0.00    +0.213 C 
ATOM      4  C   UNL     1       9.517  -1.096  24.552  0.00  0.00    +0.180 C 
ATOM      5  O   UNL     1       8.168  -0.613  24.549  0.00  0.00    -0.341 OA
ATOM      6  C   UNL     1       7.458  -0.665  23.302  0.00  0.00    +0.270 C 
ENDROOT
BRANCH   1   9
ATOM      7  C   UNL     1       5.267  -5.055  22.821  0.00  0.00    +0.109 C 
ATOM      8  C   UNL     1       5.819  -3.800  22.190  0.00  0.00    +0.210 C 
ATOM      9  N   UNL     1       6.677  -3.099  22.999  0.00  0.00    -0.305 N 
ATOM     10  H   UNL     1       6.808  -3.418  23.952  0.00  0.00    +0.149 HD
ATOM     11  O   UNL     1       5.538  -3.458  21.048  0.00  0.00    -0.276 OA
ENDBRANCH   1   9
BRANCH   2  12
ATOM     12  O   UNL     1       9.771  -1.650  21.657  0.00  0.00    -0.387 OA
ATOM     13  H   UNL     1      10.474  -1.212  22.173  0.00  0.00    +0.210 HD
ENDBRANCH   2  12
BRANCH   6  14
ATOM     14  O   UNL     1       7.878   0.433  22.499  0.00  0.00    -0.365 OA
ATOM     15  H   UNL     1       8.029   1.188  23.099  0.00  0.00    +0.213 HD
ENDBRANCH   6  14
BRANCH   3  16
ATOM     16  O   UNL     1       8.658  -3.357  24.741  0.00  0.00    -0.207 OA
BRANCH  16  17
ATOM     17  S   UNL     1       8.900  -4.957  24.931  0.00  0.00    +0.208 S 
ATOM     18  O   UNL     1       8.503  -5.613  23.710  0.00  0.00    -0.118 OA
ATOM     19  O   UNL     1       8.344  -5.302  26.217  0.00  0.00    -0.118 OA
BRANCH  17  20
ATOM     20  O   UNL     1      10.491  -5.112  25.091  0.00  0.00    -0.231 OA
ATOM     21  H   UNL     1      10.688  -5.557  25.941  0.00  0.00    +0.247 HD
ENDBRANCH  17  20
ENDBRANCH  16  17
ENDBRANCH   3  16
BRANCH   4  22
ATOM     22  C   UNL     1      10.587  -0.141  23.998  0.00  0.00    +0.190 C 
BRANCH  22  23
ATOM     23  O   UNL     1      10.263   1.210  24.342  0.00  0.00    -0.392 OA
ATOM     24  H   UNL     1      11.078   1.635  24.673  0.00  0.00    +0.210 HD
ENDBRANCH  22  23
ENDBRANCH   4  22
TORSDOF 8
ENDMDL
MODEL 2
REMARK VINA RESULT:      -5.6      2.363      4.989
REMARK  Name = 
REMARK  9 active torsions:
REMARK  status: ('A' for Active; 'I' for Inactive)
REMARK    1  A    between atoms: C_1  and  C_2
REMARK    2  A    between atoms: N_4  and  C_5
REMARK    3  A    between atoms: C_7  and  O_9
REMARK    4  A    between atoms: C_11  and  C_13
REMARK    5  A    between atoms: C_13  and  O_14
REMARK    6  A    between atoms: C_15  and  O_17
REMARK    7  A    between atoms: O_17  and  S_18
REMARK    8  A    between atoms: S_18  and  O_19
REMARK    9  A    between atoms: C_22  and  O_24
REMARK                            x       y       z     vdW  Elec       q    Type
REMARK                         _______ _______ _______ _____ _____    ______ ____
ROOT
ATOM      1  C   UNL     1       5.687  -3.064  24.067  0.00  0.00    +0.160 C 
ATOM      2  C   UNL     1       6.898  -4.002  24.251  0.00  0.00    +0.173 C 
ATOM      3  C   UNL     1       7.758  -4.006  22.962  0.00  0.00    +0.213 C 
ATOM      4  C   UNL     1       6.915  -4.548  21.801  0.00  0.00    +0.180 C 
ATOM      5  O   UNL     1       5.774  -3.703  21.606  0.00  0.00    -0.341 OA
ATOM      6  C   UNL     1       4.941  -3.457  22.749  0.00  0.00    +0.270 C 
ENDROOT
BRANCH   1   9
ATOM      7  C   UNL     1       6.419   0.509  25.179  0.00  0.00    +0.109 C 
ATOM      8  C   UNL     1       5.605  -0.753  25.039  0.00  0.00    +0.210 C 
ATOM      9  N   UNL     1       6.133  -1.664  24.160  0.00  0.00    -0.305 N 
ATOM     10  H   UNL     1       6.955  -1.399  23.629  0.00  0.00    +0.149 HD
ATOM     11  O   UNL     1       4.577  -0.948  25.676  0.00  0.00    -0.276 OA
ENDBRANCH   1   9
BRANCH   2  12
ATOM     12  O   UNL     1       6.408  -5.295  24.618  0.00  0.00    -0.387 OA
ATOM     13  H   UNL     1       6.952  -5.975  24.175  0.00  0.00    +0.210 HD
ENDBRANCH   2  12
BRANCH   6  14
ATOM     14  O   UNL     1       4.099  -4.589  22.944  0.00  0.00    -0.365 OA
ATOM     15  H   UNL     1       4.403  -5.038  23.756  0.00  0.00    +0.213 HD
ENDBRANCH   6  14
BRANCH   3  16
ATOM     16  O   UNL     1       8.117  -2.639  22.697  0.00  0.00    -0.207 OA
BRANCH  16  17
ATOM     17  S   UNL     1       9.549  -2.002  23.142  0.00  0.00    +0.208 S 
ATOM     18  O   UNL     1      10.299  -3.031  23.819  0.00  0.00    -0.118 OA
ATOM     19  O   UNL     1       9.256  -0.725  23.746  0.00  0.00    -0.118 OA
BRANCH  17  20
ATOM     20  O   UNL     1      10.292  -1.666  21.757  0.00  0.00    -0.231 OA
ATOM     21  H   UNL     1      10.432  -0.699  21.692  0.00  0.00    +0.247 HD
ENDBRANCH  17  20
ENDBRANCH  16  17
ENDBRANCH   3  16
BRANCH   4  22
ATOM     22  C   UNL     1       6.649  -6.062  21.828  0.00  0.00    +0.190 C 
BRANCH  22  23
ATOM     23  O   UNL     1       5.454  -6.362  21.101  0.00  0.00    -0.392 OA
ATOM     24  H   UNL     1       5.007  -7.100  21.558  0.00  0.00    +0.210 HD
ENDBRANCH  22  23
ENDBRANCH   4  22
TORSDOF 8
ENDMDL
MODEL 3
REMARK VINA RESULT:      -5.6      1.822      4.777
REMARK  Name = 
REMARK  9 active torsions:
REMARK  status: ('A' for Active; 'I' for Inactive)
REMARK    1  A    between atoms: C_1  and  C_2
REMARK    2  A    between atoms: N_4  and  C_5
REMARK    3  A    between atoms: C_7  and  O_9
REMARK    4  A    between atoms: C_11  and  C_13
REMARK    5  A    between atoms: C_13  and  O_14
REMARK    6  A    between atoms: C_15  and  O_17
REMARK    7  A    between atoms: O_17  and  S_18
REMARK    8  A    between atoms: S_18  and  O_19
REMARK    9  A    between atoms: C_22  and  O_24
REMARK                            x       y       z     vdW  Elec       q    Type
REMARK                         _______ _______ _______ _____ _____    ______ ____
ROOT
ATOM      1  C   UNL     1       6.924  -2.965  23.098  0.00  0.00    +0.160 C 
ATOM      2  C   UNL     1       6.167  -3.281  24.404  0.00  0.00    +0.173 C 
ATOM      3  C   UNL     1       6.409  -4.759  24.804  0.00  0.00    +0.213 C 
ATOM      4  C   UNL     1       5.852  -5.672  23.705  0.00  0.00    +0.180 C 
ATOM      5  O   UNL     1       6.530  -5.398  22.472  0.00  0.00    -0.341 OA
ATOM      6  C   UNL     1       6.543  -4.035  22.023  0.00  0.00    +0.270 C 
ENDROOT
BRANCH   1   9
ATOM      7  C   UNL     1      10.541  -1.781  23.347  0.00  0.00    +0.109 C 
ATOM      8  C   UNL     1       9.203  -2.001  22.685  0.00  0.00    +0.210 C 
ATOM      9  N   UNL     1       8.362  -2.826  23.386  0.00  0.00    -0.305 N 
ATOM     10  H   UNL     1       8.716  -3.276  24.223  0.00  0.00    +0.149 HD
ATOM     11  O   UNL     1       8.896  -1.467  21.626  0.00  0.00    -0.276 OA
ENDBRANCH   1   9
BRANCH   2  12
ATOM     12  O   UNL     1       4.787  -2.958  24.209  0.00  0.00    -0.387 OA
ATOM     13  H   UNL     1       4.574  -2.160  24.730  0.00  0.00    +0.210 HD
ENDBRANCH   2  12
BRANCH   6  14
ATOM     14  O   UNL     1       5.285  -3.746  21.423  0.00  0.00    -0.365 OA
ATOM     15  H   UNL     1       5.466  -3.349  20.550  0.00  0.00    +0.213 HD
ENDBRANCH   6  14
BRANCH   3  16
ATOM     16  O   UNL     1       7.832  -4.936  24.901  0.00  0.00    -0.207 OA
BRANCH  16  17
ATOM     17  S   UNL     1       8.643  -4.812  26.308  0.00  0.00    +0.208 S 
ATOM     18  O   UNL     1       7.950  -5.611  27.289  0.00  0.00    -0.118 OA
ATOM     19  O   UNL     1       8.917  -3.409  26.499  0.00  0.00    -0.118 OA
BRANCH  17  20
ATOM     20  O   UNL     1      10.068  -5.497  26.019  0.00  0.00    -0.231 OA
ATOM     21  H   UNL     1      10.750  -4.799  25.934  0.00  0.00    +0.247 HD
ENDBRANCH  17  20
ENDBRANCH  16  17
ENDBRANCH   3  16
BRANCH   4  22
ATOM     22  C   UNL     1       4.319  -5.765  23.638  0.00  0.00    +0.190 C 
BRANCH  22  23
ATOM     23  O   UNL     1       3.915  -6.262  22.359  0.00  0.00    -0.392 OA
ATOM     24  H   UNL     1       4.469  -7.039  22.154  0.00  0.00    +0.210 HD
ENDBRANCH  22  23
ENDBRANCH   4  22
TORSDOF 8
ENDMDL
MODEL 4
REMARK VINA RESULT:      -5.5      2.365      4.108
REMARK  Name = 
REMARK  9 active torsions:
REMARK  status: ('A' for Active; 'I' for Inactive)
REMARK    1  A    between atoms: C_1  and  C_2
REMARK    2  A    between atoms: N_4  and  C_5
REMARK    3  A    between atoms: C_7  and  O_9
REMARK    4  A    between atoms: C_11  and  C_13
REMARK    5  A    between atoms: C_13  and  O_14
REMARK    6  A    between atoms: C_15  and  O_17
REMARK    7  A    between atoms: O_17  and  S_18
REMARK    8  A    between atoms: S_18  and  O_19
REMARK    9  A    between atoms: C_22  and  O_24
REMARK                            x       y       z     vdW  Elec       q    Type
REMARK                         _______ _______ _______ _____ _____    ______ ____
ROOT
ATOM      1  C   UNL     1       9.474  -2.371  23.744  0.00  0.00    +0.160 C 
ATOM      2  C   UNL     1       9.443  -1.076  24.581  0.00  0.00    +0.173 C 
ATOM      3  C   UNL     1       8.108  -0.327  24.337  0.00  0.00    +0.213 C 
ATOM      4  C   UNL     1       8.019   0.066  22.858  0.00  0.00    +0.180 C 
ATOM      5  O   UNL     1       8.053  -1.116  22.048  0.00  0.00    -0.341 OA
ATOM      6  C   UNL     1       9.152  -2.017  22.255  0.00  0.00    +0.270 C 
ENDROOT
BRANCH   1   9
ATOM      7  C   UNL     1       8.027  -5.216  25.832  0.00  0.00    +0.109 C 
ATOM      8  C   UNL     1       9.067  -4.503  25.003  0.00  0.00    +0.210 C 
ATOM      9  N   UNL     1       8.601  -3.379  24.369  0.00  0.00    -0.305 N 
ATOM     10  H   UNL     1       7.612  -3.165  24.434  0.00  0.00    +0.149 HD
ATOM     11  O   UNL     1      10.227  -4.887  24.928  0.00  0.00    -0.276 OA
ENDBRANCH   1   9
BRANCH   2  12
ATOM     12  O   UNL     1      10.602  -0.305  24.252  0.00  0.00    -0.387 OA
ATOM     13  H   UNL     1      11.381  -0.707  24.682  0.00  0.00    +0.210 HD
ENDBRANCH   2  12
BRANCH   6  14
ATOM     14  O   UNL     1      10.294  -1.496  21.584  0.00  0.00    -0.365 OA
ATOM     15  H   UNL     1      10.003  -0.707  21.089  0.00  0.00    +0.213 HD
ENDBRANCH   6  14
BRANCH   3  16
ATOM     16  O   UNL     1       7.051  -1.249  24.653  0.00  0.00    -0.207 OA
BRANCH  16  17
ATOM     17  S   UNL     1       5.699  -0.801  25.445  0.00  0.00    +0.208 S 
ATOM     18  O   UNL     1       6.080  -0.394  26.775  0.00  0.00    -0.118 OA
ATOM     19  O   UNL     1       4.721  -1.832  25.195  0.00  0.00    -0.118 OA
BRANCH  17  20
ATOM     20  O   UNL     1       5.174   0.495  24.654  0.00  0.00    -0.231 OA
ATOM     21  H   UNL     1       5.936   1.068  24.431  0.00  0.00    +0.247 HD
ENDBRANCH  17  20
ENDBRANCH  16  17
ENDBRANCH   3  16
BRANCH   4  22
ATOM     22  C   UNL     1       8.939   1.219  22.425  0.00  0.00    +0.190 C 
BRANCH  22  23
ATOM     23  O   UNL     1       9.055   1.244  20.999  0.00  0.00    -0.392 OA
ATOM     24  H   UNL     1       9.779   1.857  20.771  0.00  0.00    +0.210 HD
ENDBRANCH  22  23
ENDBRANCH   4  22
TORSDOF 8
ENDMDL
MODEL 5
REMARK VINA RESULT:      -5.4      2.567      5.173
REMARK  Name = 
REMARK  9 active torsions:
REMARK  status: ('A' for Active; 'I' for Inactive)
REMARK    1  A    between atoms: C_1  and  C_2
REMARK    2  A    between atoms: N_4  and  C_5
REMARK    3  A    between atoms: C_7  and  O_9
REMARK    4  A    between atoms: C_11  and  C_13
REMARK    5  A    between atoms: C_13  and  O_14
REMARK    6  A    between atoms: C_15  and  O_17
REMARK    7  A    between atoms: O_17  and  S_18
REMARK    8  A    between atoms: S_18  and  O_19
REMARK    9  A    between atoms: C_22  and  O_24
REMARK                            x       y       z     vdW  Elec       q    Type
REMARK                         _______ _______ _______ _____ _____    ______ ____
ROOT
ATOM      1  C   UNL     1       8.563  -3.175  23.666  0.00  0.00    +0.160 C 
ATOM      2  C   UNL     1       7.064  -3.432  23.925  0.00  0.00    +0.173 C 
ATOM      3  C   UNL     1       6.691  -2.958  25.353  0.00  0.00    +0.213 C 
ATOM      4  C   UNL     1       7.492  -3.773  26.375  0.00  0.00    +0.180 C 
ATOM      5  O   UNL     1       8.893  -3.564  26.158  0.00  0.00    -0.341 OA
ATOM      6  C   UNL     1       9.392  -3.805  24.833  0.00  0.00    +0.270 C 
ENDROOT
BRANCH   1   9
ATOM      7  C   UNL     1       9.647   0.216  22.299  0.00  0.00    +0.109 C 
ATOM      8  C   UNL     1       9.805  -1.239  22.665  0.00  0.00    +0.210 C 
ATOM      9  N   UNL     1       8.779  -1.738  23.426  0.00  0.00    -0.305 N 
ATOM     10  H   UNL     1       8.060  -1.098  23.743  0.00  0.00    +0.149 HD
ATOM     11  O   UNL     1      10.757  -1.913  22.291  0.00  0.00    -0.276 OA
ENDBRANCH   1   9
BRANCH   2  12
ATOM     12  O   UNL     1       6.804  -4.820  23.695  0.00  0.00    -0.387 OA
ATOM     13  H   UNL     1       7.530  -5.192  23.158  0.00  0.00    +0.210 HD
ENDBRANCH   2  12
BRANCH   6  14
ATOM     14  O   UNL     1       9.551  -5.209  24.661  0.00  0.00    -0.365 OA
ATOM     15  H   UNL     1      10.437  -5.443  24.997  0.00  0.00    +0.213 HD
ENDBRANCH   6  14
BRANCH   3  16
ATOM     16  O   UNL     1       7.067  -1.574  25.443  0.00  0.00    -0.207 OA
BRANCH  16  17
ATOM     17  S   UNL     1       6.015  -0.356  25.185  0.00  0.00    +0.208 S 
ATOM     18  O   UNL     1       6.506   0.807  25.883  0.00  0.00    -0.118 OA
ATOM     19  O   UNL     1       4.699  -0.901  25.408  0.00  0.00    -0.118 OA
BRANCH  17  20
ATOM     20  O   UNL     1       6.104  -0.069  23.606  0.00  0.00    -0.231 OA
ATOM     21  H   UNL     1       6.960   0.362  23.404  0.00  0.00    +0.247 HD
ENDBRANCH  17  20
ENDBRANCH  16  17
ENDBRANCH   3  16
BRANCH   4  22
ATOM     22  C   UNL     1       7.039  -5.231  26.559  0.00  0.00    +0.190 C 
BRANCH  22  23
ATOM     23  O   UNL     1       8.078  -5.992  27.181  0.00  0.00    -0.392 OA
ATOM     24  H   UNL     1       8.285  -5.568  28.035  0.00  0.00    +0.210 HD
ENDBRANCH  22  23
ENDBRANCH   4  22
TORSDOF 8
ENDMDL
MODEL 6
REMARK VINA RESULT:      -5.4      2.971      4.759
REMARK  Name = 
REMARK  9 active torsions:
REMARK  status: ('A' for Active; 'I' for Inactive)
REMARK    1  A    between atoms: C_1  and  C_2
REMARK    2  A    between atoms: N_4  and  C_5
REMARK    3  A    between atoms: C_7  and  O_9
REMARK    4  A    between atoms: C_11  and  C_13
REMARK    5  A    between atoms: C_13  and  O_14
REMARK    6  A    between atoms: C_15  and  O_17
REMARK    7  A    between atoms: O_17  and  S_18
REMARK    8  A    between atoms: S_18  and  O_19
REMARK    9  A    between atoms: C_22  and  O_24
REMARK                            x       y       z     vdW  Elec       q    Type
REMARK                         _______ _______ _______ _____ _____    ______ ____
ROOT
ATOM      1  C   UNL     1       9.614   0.298  22.676  0.00  0.00    +0.160 C 
ATOM      2  C   UNL     1       9.686   0.712  24.160  0.00  0.00    +0.173 C 
ATOM      3  C   UNL     1       8.378   1.437  24.565  0.00  0.00    +0.213 C 
ATOM      4  C   UNL     1       8.234   2.713  23.728  0.00  0.00    +0.180 C 
ATOM      5  O   UNL     1       8.172   2.366  22.339  0.00  0.00    -0.341 OA
ATOM      6  C   UNL     1       9.235   1.552  21.821  0.00  0.00    +0.270 C 
ENDROOT
BRANCH   1   9
ATOM      7  C   UNL     1       7.978  -3.140  22.883  0.00  0.00    +0.109 C 
ATOM      8  C   UNL     1       9.120  -2.159  22.784  0.00  0.00    +0.210 C 
ATOM      9  N   UNL     1       8.727  -0.868  22.535  0.00  0.00    -0.305 N 
ATOM     10  H   UNL     1       7.744  -0.690  22.361  0.00  0.00    +0.149 HD
ATOM     11  O   UNL     1      10.289  -2.490  22.936  0.00  0.00    -0.276 OA
ENDBRANCH   1   9
BRANCH   2  12
ATOM     12  O   UNL     1      10.863   1.505  24.345  0.00  0.00    -0.387 OA
ATOM     13  H   UNL     1      11.629   0.910  24.455  0.00  0.00    +0.210 HD
ENDBRANCH   2  12
BRANCH   6  14
ATOM     14  O   UNL     1      10.366   2.385  21.586  0.00  0.00    -0.365 OA
ATOM     15  H   UNL     1      10.587   2.310  20.638  0.00  0.00    +0.213 HD
ENDBRANCH   6  14
BRANCH   3  16
ATOM     16  O   UNL     1       7.296   0.541  24.264  0.00  0.00    -0.207 OA
BRANCH  16  17
ATOM     17  S   UNL     1       5.866   0.591  25.045  0.00  0.00    +0.208 S 
ATOM     18  O   UNL     1       6.079   1.239  26.315  0.00  0.00    -0.118 OA
ATOM     19  O   UNL     1       5.292  -0.727  24.928  0.00  0.00    -0.118 OA
BRANCH  17  20
ATOM     20  O   UNL     1       4.942   1.547  24.142  0.00  0.00    -0.231 OA
ATOM     21  H   UNL     1       4.030   1.192  24.126  0.00  0.00    +0.247 HD
ENDBRANCH  17  20
ENDBRANCH  16  17
ENDBRANCH   3  16
BRANCH   4  22
ATOM     22  C   UNL     1       9.185   3.861  24.104  0.00  0.00    +0.190 C 
BRANCH  22  23
ATOM     23  O   UNL     1       9.256   4.808  23.034  0.00  0.00    -0.392 OA
ATOM     24  H   UNL     1       9.864   4.449  22.360  0.00  0.00    +0.210 HD
ENDBRANCH  22  23
ENDBRANCH   4  22
TORSDOF 8
ENDMDL
MODEL 7
REMARK VINA RESULT:      -5.4      2.482      4.973
REMARK  Name = 
REMARK  9 active torsions:
REMARK  status: ('A' for Active; 'I' for Inactive)
REMARK    1  A    between atoms: C_1  and  C_2
REMARK    2  A    between atoms: N_4  and  C_5
REMARK    3  A    between atoms: C_7  and  O_9
REMARK    4  A    between atoms: C_11  and  C_13
REMARK    5  A    between atoms: C_13  and  O_14
REMARK    6  A    between atoms: C_15  and  O_17
REMARK    7  A    between atoms: O_17  and  S_18
REMARK    8  A    between atoms: S_18  and  O_19
REMARK    9  A    between atoms: C_22  and  O_24
REMARK                            x       y       z     vdW  Elec       q    Type
REMARK                         _______ _______ _______ _____ _____    ______ ____
ROOT
ATOM      1  C   UNL     1       9.026  -3.502  24.696  0.00  0.00    +0.160 C 
ATOM      2  C   UNL     1       8.650  -4.982  24.479  0.00  0.00    +0.173 C 
ATOM      3  C   UNL     1       7.111  -5.120  24.362  0.00  0.00    +0.213 C 
ATOM      4  C   UNL     1       6.467  -4.659  25.675  0.00  0.00    +0.180 C 
ATOM      5  O   UNL     1       6.803  -3.286  25.912  0.00  0.00    -0.341 OA
ATOM      6  C   UNL     1       8.196  -2.943  25.899  0.00  0.00    +0.270 C 
ENDROOT
BRANCH   1   9
ATOM      7  C   UNL     1       9.523  -1.230  21.674  0.00  0.00    +0.109 C 
ATOM      8  C   UNL     1       9.577  -1.621  23.130  0.00  0.00    +0.210 C 
ATOM      9  N   UNL     1       8.889  -2.771  23.425  0.00  0.00    -0.305 N 
ATOM     10  H   UNL     1       8.349  -3.210  22.688  0.00  0.00    +0.149 HD
ATOM     11  O   UNL     1      10.201  -0.976  23.964  0.00  0.00    -0.276 OA
ENDBRANCH   1   9
BRANCH   2  12
ATOM     12  O   UNL     1       9.215  -5.747  25.548  0.00  0.00    -0.387 OA
ATOM     13  H   UNL     1       9.891  -5.206  25.999  0.00  0.00    +0.210 HD
ENDBRANCH   2  12
BRANCH   6  14
ATOM     14  O   UNL     1       8.766  -3.323  27.146  0.00  0.00    -0.365 OA
ATOM     15  H   UNL     1       8.282  -4.111  27.457  0.00  0.00    +0.213 HD
ENDBRANCH   6  14
BRANCH   3  16
ATOM     16  O   UNL     1       6.696  -4.253  23.293  0.00  0.00    -0.207 OA
BRANCH  16  17
ATOM     17  S   UNL     1       6.129  -4.814  21.872  0.00  0.00    +0.208 S 
ATOM     18  O   UNL     1       7.075  -5.779  21.369  0.00  0.00    -0.118 OA
ATOM     19  O   UNL     1       5.716  -3.659  21.114  0.00  0.00    -0.118 OA
BRANCH  17  20
ATOM     20  O   UNL     1       4.774  -5.590  22.253  0.00  0.00    -0.231 OA
ATOM     21  H   UNL     1       4.006  -5.074  21.931  0.00  0.00    +0.247 HD
ENDBRANCH  17  20
ENDBRANCH  16  17
ENDBRANCH   3  16
BRANCH   4  22
ATOM     22  C   UNL     1       6.631  -5.620  26.864  0.00  0.00    +0.190 C 
BRANCH  22  23
ATOM     23  O   UNL     1       6.547  -4.894  28.094  0.00  0.00    -0.392 OA
ATOM     24  H   UNL     1       6.765  -3.962  27.903  0.00  0.00    +0.210 HD
ENDBRANCH  22  23
ENDBRANCH   4  22
TORSDOF 8
ENDMDL
MODEL 8
REMARK VINA RESULT:      -5.3      2.657      4.556
REMARK  Name = 
REMARK  9 active torsions:
REMARK  status: ('A' for Active; 'I' for Inactive)
REMARK    1  A    between atoms: C_1  and  C_2
REMARK    2  A    between atoms: N_4  and  C_5
REMARK    3  A    between atoms: C_7  and  O_9
REMARK    4  A    between atoms: C_11  and  C_13
REMARK    5  A    between atoms: C_13  and  O_14
REMARK    6  A    between atoms: C_15  and  O_17
REMARK    7  A    between atoms: O_17  and  S_18
REMARK    8  A    between atoms: S_18  and  O_19
REMARK    9  A    between atoms: C_22  and  O_24
REMARK                            x       y       z     vdW  Elec       q    Type
REMARK                         _______ _______ _______ _____ _____    ______ ____
ROOT
ATOM      1  C   UNL     1       5.830  -2.902  23.838  0.00  0.00    +0.160 C 
ATOM      2  C   UNL     1       5.631  -4.347  24.340  0.00  0.00    +0.173 C 
ATOM      3  C   UNL     1       6.924  -5.167  24.098  0.00  0.00    +0.213 C 
ATOM      4  C   UNL     1       7.203  -5.227  22.592  0.00  0.00    +0.180 C 
ATOM      5  O   UNL     1       7.385  -3.897  22.089  0.00  0.00    -0.341 OA
ATOM      6  C   UNL     1       6.343  -2.948  22.361  0.00  0.00    +0.270 C 
ENDROOT
BRANCH   1   9
ATOM      7  C   UNL     1       7.174  -0.596  26.561  0.00  0.00    +0.109 C 
ATOM      8  C   UNL     1       6.295  -0.997  25.403  0.00  0.00    +0.210 C 
ATOM      9  N   UNL     1       6.676  -2.164  24.791  0.00  0.00    -0.305 N 
ATOM     10  H   UNL     1       7.534  -2.610  25.097  0.00  0.00    +0.149 HD
ATOM     11  O   UNL     1       5.316  -0.345  25.061  0.00  0.00    -0.276 OA
ENDBRANCH   1   9
BRANCH   2  12
ATOM     12  O   UNL     1       4.478  -4.890  23.692  0.00  0.00    -0.387 OA
ATOM     13  H   UNL     1       4.643  -5.831  23.491  0.00  0.00    +0.210 HD
ENDBRANCH   2  12
BRANCH   6  14
ATOM     14  O   UNL     1       5.277  -3.174  21.445  0.00  0.00    -0.365 OA
ATOM     15  H   UNL     1       5.190  -4.140  21.336  0.00  0.00    +0.213 HD
ENDBRANCH   6  14
BRANCH   3  16
ATOM     16  O   UNL     1       7.992  -4.465  24.756  0.00  0.00    -0.207 OA
BRANCH  16  17
ATOM     17  S   UNL     1       8.561  -4.897  26.221  0.00  0.00    +0.208 S 
ATOM     18  O   UNL     1       7.715  -5.948  26.730  0.00  0.00    -0.118 OA
ATOM     19  O   UNL     1       8.801  -3.672  26.942  0.00  0.00    -0.118 OA
BRANCH  17  20
ATOM     20  O   UNL     1      10.013  -5.519  25.926  0.00  0.00    -0.231 OA
ATOM     21  H   UNL     1      10.640  -4.794  25.728  0.00  0.00    +0.247 HD
ENDBRANCH  17  20
ENDBRANCH  16  17
ENDBRANCH   3  16
BRANCH   4  22
ATOM     22  C   UNL     1       6.270  -6.143  21.783  0.00  0.00    +0.190 C 
BRANCH  22  23
ATOM     23  O   UNL     1       6.080  -5.611  20.468  0.00  0.00    -0.392 OA
ATOM     24  H   UNL     1       6.398  -6.278  19.830  0.00  0.00    +0.210 HD
ENDBRANCH  22  23
ENDBRANCH   4  22
TORSDOF 8
ENDMDL
MODEL 9
REMARK VINA RESULT:      -5.3      1.540      1.714
REMARK  Name = 
REMARK  9 active torsions:
REMARK  status: ('A' for Active; 'I' for Inactive)
REMARK    1  A    between atoms: C_1  and  C_2
REMARK    2  A    between atoms: N_4  and  C_5
REMARK    3  A    between atoms: C_7  and  O_9
REMARK    4  A    between atoms: C_11  and  C_13
REMARK    5  A    between atoms: C_13  and  O_14
REMARK    6  A    between atoms: C_15  and  O_17
REMARK    7  A    between atoms: O_17  and  S_18
REMARK    8  A    between atoms: S_18  and  O_19
REMARK    9  A    between atoms: C_22  and  O_24
REMARK                            x       y       z     vdW  Elec       q    Type
REMARK                         _______ _______ _______ _____ _____    ______ ____
ROOT
ATOM      1  C   UNL     1       7.543  -2.547  22.552  0.00  0.00    +0.160 C 
ATOM      2  C   UNL     1       8.900  -2.415  23.272  0.00  0.00    +0.173 C 
ATOM      3  C   UNL     1       8.716  -2.681  24.788  0.00  0.00    +0.213 C 
ATOM      4  C   UNL     1       7.770  -1.625  25.370  0.00  0.00    +0.180 C 
ATOM      5  O   UNL     1       6.498  -1.714  24.716  0.00  0.00    -0.341 OA
ATOM      6  C   UNL     1       6.495  -1.644  23.282  0.00  0.00    +0.270 C 
ENDROOT
BRANCH   1   9
ATOM      7  C   UNL     1       6.360  -5.965  21.342  0.00  0.00    +0.109 C 
ATOM      8  C   UNL     1       6.325  -4.463  21.484  0.00  0.00    +0.210 C 
ATOM      9  N   UNL     1       7.190  -3.971  22.428  0.00  0.00    -0.305 N 
ATOM     10  H   UNL     1       7.709  -4.632  22.996  0.00  0.00    +0.149 HD
ATOM     11  O   UNL     1       5.602  -3.752  20.798  0.00  0.00    -0.276 OA
ENDBRANCH   1   9
BRANCH   2  12
ATOM     12  O   UNL     1       9.437  -1.122  22.978  0.00  0.00    -0.387 OA
ATOM     13  H   UNL     1      10.410  -1.159  23.057  0.00  0.00    +0.210 HD
ENDBRANCH   2  12
BRANCH   6  14
ATOM     14  O   UNL     1       6.624  -0.280  22.897  0.00  0.00    -0.365 OA
ATOM     15  H   UNL     1       6.618   0.253  23.715  0.00  0.00    +0.213 HD
ENDBRANCH   6  14
BRANCH   3  16
ATOM     16  O   UNL     1       8.117  -3.982  24.911  0.00  0.00    -0.207 OA
BRANCH  16  17
ATOM     17  S   UNL     1       8.560  -5.052  26.058  0.00  0.00    +0.208 S 
ATOM     18  O   UNL     1       7.412  -5.866  26.370  0.00  0.00    -0.118 OA
ATOM     19  O   UNL     1       9.279  -4.302  27.058  0.00  0.00    -0.118 OA
BRANCH  17  20
ATOM     20  O   UNL     1       9.657  -5.984  25.343  0.00  0.00    -0.231 OA
ATOM     21  H   UNL     1      10.204  -5.436  24.743  0.00  0.00    +0.247 HD
ENDBRANCH  17  20
ENDBRANCH  16  17
ENDBRANCH   3  16
BRANCH   4  22
ATOM     22  C   UNL     1       8.366  -0.215  25.519  0.00  0.00    +0.190 C 
BRANCH  22  23
ATOM     23  O   UNL     1       7.316   0.748  25.652  0.00  0.00    -0.392 OA
ATOM     24  H   UNL     1       7.727   1.606  25.870  0.00  0.00    +0.210 HD
ENDBRANCH  22  23
ENDBRANCH   4  22
TORSDOF 8
ENDMDL
