MODEL 1
REMARK VINA RESULT:      -4.1      0.000      0.000
REMARK  Name = 
REMARK  9 active torsions:
REMARK  status: ('A' for Active; 'I' for Inactive)
REMARK    1  A    between atoms: C_1  and  C_2
REMARK    2  A    between atoms: C_2  and  C_3
REMARK    3  A    between atoms: C_2  and  C_4
REMARK    4  A    between atoms: C_4  and  C_5
REMARK    5  A    between atoms: C_5  and  C_7
REMARK    6  A    between atoms: C_5  and  C_9
REMARK    7  A    between atoms: C_7  and  N_8
REMARK    8  A    between atoms: C_9  and  C_10
REMARK    9  A    between atoms: C_10  and  O_11
REMARK                            x       y       z     vdW  Elec       q    Type
REMARK                         _______ _______ _______ _____ _____    ______ ____
ROOT
ATOM      1  C   UNL     1       7.186  -4.990  25.022  0.00  0.00    +0.013 C 
ENDROOT
BRANCH   1   2
ATOM      2  C   UNL     1       5.902  -4.601  24.240  0.00  0.00    +0.008 C 
BRANCH   2   4
ATOM      3  C   UNL     1       5.947  -3.563  21.895  0.00  0.00    +0.007 C 
ATOM      4  C   UNL     1       5.896  -4.852  22.717  0.00  0.00    -0.017 C 
ATOM      5  C   UNL     1       7.095  -5.725  22.320  0.00  0.00    +0.007 C 
ENDBRANCH   2   4
ENDBRANCH   1   2
BRANCH   1   6
ATOM      6  C   UNL     1       8.182  -3.839  25.267  0.00  0.00    +0.125 C 
BRANCH   6   7
ATOM      7  C   UNL     1       9.574  -4.020  24.697  0.00  0.00    +0.305 C 
ATOM      8  O   UNL     1      10.142  -3.211  23.989  0.00  0.00    -0.251 OA
BRANCH   7   9
ATOM      9  O   UNL     1      10.124  -5.214  25.009  0.00  0.00    -0.481 OA
ATOM     10  H   UNL     1       9.490  -5.960  25.026  0.00  0.00    +0.295 HD
ENDBRANCH   7   9
ENDBRANCH   6   7
ENDBRANCH   1   6
BRANCH   1  11
ATOM     11  C   UNL     1       6.745  -5.569  26.394  0.00  0.00    +0.081 C 
BRANCH  11  12
ATOM     12  N   UNL     1       7.883  -5.766  27.284  0.00  0.00    -0.330 NA
ATOM     13  H   UNL     1       7.648  -5.422  28.214  0.00  0.00    +0.118 HD
ATOM     14  H   UNL     1       8.060  -6.765  27.396  0.00  0.00    +0.118 HD
ENDBRANCH  11  12
ENDBRANCH   1  11
TORSDOF 7
ENDMDL
MODEL 2
REMARK VINA RESULT:      -4.1      2.140      2.968
REMARK  Name = 
REMARK  9 active torsions:
REMARK  status: ('A' for Active; 'I' for Inactive)
REMARK    1  A    between atoms: C_1  and  C_2
REMARK    2  A    between atoms: C_2  and  C_3
REMARK    3  A    between atoms: C_2  and  C_4
REMARK    4  A    between atoms: C_4  and  C_5
REMARK    5  A    between atoms: C_5  and  C_7
REMARK    6  A    between atoms: C_5  and  C_9
REMARK    7  A    between atoms: C_7  and  N_8
REMARK    8  A    between atoms: C_9  and  C_10
REMARK    9  A    between atoms: C_10  and  O_11
REMARK                            x       y       z     vdW  Elec       q    Type
REMARK                         _______ _______ _______ _____ _____    ______ ____
ROOT
ATOM      1  C   UNL     1       7.851  -4.011  24.496  0.00  0.00    +0.013 C 
ENDROOT
BRANCH   1   2
ATOM      2  C   UNL     1       7.676  -5.206  23.518  0.00  0.00    +0.008 C 
BRANCH   2   4
ATOM      3  C   UNL     1       6.358  -6.034  21.480  0.00  0.00    +0.007 C 
ATOM      4  C   UNL     1       7.165  -4.889  22.097  0.00  0.00    -0.017 C 
ATOM      5  C   UNL     1       6.283  -3.633  22.118  0.00  0.00    +0.007 C 
ENDBRANCH   2   4
ENDBRANCH   1   2
BRANCH   1   6
ATOM      6  C   UNL     1       7.088  -4.135  25.829  0.00  0.00    +0.125 C 
BRANCH   6   7
ATOM      7  C   UNL     1       6.989  -5.526  26.422  0.00  0.00    +0.305 C 
ATOM      8  O   UNL     1       6.011  -6.244  26.339  0.00  0.00    -0.251 OA
BRANCH   7   9
ATOM      9  O   UNL     1       8.092  -5.888  27.113  0.00  0.00    -0.481 OA
ATOM     10  H   UNL     1       8.526  -6.702  26.786  0.00  0.00    +0.295 HD
ENDBRANCH   7   9
ENDBRANCH   6   7
ENDBRANCH   1   6
BRANCH   1  11
ATOM     11  C   UNL     1       9.368  -3.868  24.798  0.00  0.00    +0.081 C 
BRANCH  11  12
ATOM     12  N   UNL     1      10.033  -5.166  24.825  0.00  0.00    -0.330 NA
ATOM     13  H   UNL     1       9.393  -5.880  24.476  0.00  0.00    +0.118 HD
ATOM     14  H   UNL     1      10.820  -5.160  24.175  0.00  0.00    +0.118 HD
ENDBRANCH  11  12
ENDBRANCH   1  11
TORSDOF 7
ENDMDL
MODEL 3
REMARK VINA RESULT:      -4.0      4.637      5.786
REMARK  Name = 
REMARK  9 active torsions:
REMARK  status: ('A' for Active; 'I' for Inactive)
REMARK    1  A    between atoms: C_1  and  C_2
REMARK    2  A    between atoms: C_2  and  C_3
REMARK    3  A    between atoms: C_2  and  C_4
REMARK    4  A    between atoms: C_4  and  C_5
REMARK    5  A    between atoms: C_5  and  C_7
REMARK    6  A    between atoms: C_5  and  C_9
REMARK    7  A    between atoms: C_7  and  N_8
REMARK    8  A    between atoms: C_9  and  C_10
REMARK    9  A    between atoms: C_10  and  O_11
REMARK                            x       y       z     vdW  Elec       q    Type
REMARK                         _______ _______ _______ _____ _____    ______ ____
ROOT
ATOM      1  C   UNL     1      10.219  -0.444  22.953  0.00  0.00    +0.013 C 
ENDROOT
BRANCH   1   2
ATOM      2  C   UNL     1      10.195  -1.987  23.139  0.00  0.00    +0.008 C 
BRANCH   2   4
ATOM      3  C   UNL     1       7.900  -3.076  22.789  0.00  0.00    +0.007 C 
ATOM      4  C   UNL     1       8.944  -2.601  23.802  0.00  0.00    -0.017 C 
ATOM      5  C   UNL     1       9.341  -3.794  24.681  0.00  0.00    +0.007 C 
ENDBRANCH   2   4
ENDBRANCH   1   2
BRANCH   1   6
ATOM      6  C   UNL     1       9.558   0.073  21.660  0.00  0.00    +0.125 C 
BRANCH   6   7
ATOM      7  C   UNL     1       9.213   1.547  21.624  0.00  0.00    +0.305 C 
ATOM      8  O   UNL     1       8.083   1.992  21.555  0.00  0.00    -0.251 OA
BRANCH   7   9
ATOM      9  O   UNL     1      10.302   2.347  21.621  0.00  0.00    -0.481 OA
ATOM     10  H   UNL     1      10.261   3.089  22.259  0.00  0.00    +0.295 HD
ENDBRANCH   7   9
ENDBRANCH   6   7
ENDBRANCH   1   6
BRANCH   1  11
ATOM     11  C   UNL     1       9.496   0.188  24.173  0.00  0.00    +0.081 C 
BRANCH  11  12
ATOM     12  N   UNL     1      10.438   0.546  25.227  0.00  0.00    -0.330 NA
ATOM     13  H   UNL     1      11.390   0.383  24.899  0.00  0.00    +0.118 HD
ATOM     14  H   UNL     1      10.379   1.548  25.413  0.00  0.00    +0.118 HD
ENDBRANCH  11  12
ENDBRANCH   1  11
TORSDOF 7
ENDMDL
MODEL 4
REMARK VINA RESULT:      -4.0      6.092      7.375
REMARK  Name = 
REMARK  9 active torsions:
REMARK  status: ('A' for Active; 'I' for Inactive)
REMARK    1  A    between atoms: C_1  and  C_2
REMARK    2  A    between atoms: C_2  and  C_3
REMARK    3  A    between atoms: C_2  and  C_4
REMARK    4  A    between atoms: C_4  and  C_5
REMARK    5  A    between atoms: C_5  and  C_7
REMARK    6  A    between atoms: C_5  and  C_9
REMARK    7  A    between atoms: C_7  and  N_8
REMARK    8  A    between atoms: C_9  and  C_10
REMARK    9  A    between atoms: C_10  and  O_11
REMARK                            x       y       z     vdW  Elec       q    Type
REMARK                         _______ _______ _______ _____ _____    ______ ____
ROOT
ATOM      1  C   UNL     1      10.037   0.786  23.018  0.00  0.00    +0.013 C 
ENDROOT
BRANCH   1   2
ATOM      2  C   UNL     1      10.549   1.938  23.926  0.00  0.00    +0.008 C 
BRANCH   2   4
ATOM      3  C   UNL     1       9.395   4.197  24.296  0.00  0.00    +0.007 C 
ATOM      4  C   UNL     1      10.347   3.382  23.420  0.00  0.00    -0.017 C 
ATOM      5  C   UNL     1      11.694   4.115  23.358  0.00  0.00    +0.007 C 
ENDBRANCH   2   4
ENDBRANCH   1   2
BRANCH   1   6
ATOM      6  C   UNL     1       9.672  -0.519  23.753  0.00  0.00    +0.125 C 
BRANCH   6   7
ATOM      7  C   UNL     1      10.098  -1.810  23.085  0.00  0.00    +0.305 C 
ATOM      8  O   UNL     1      10.269  -2.865  23.665  0.00  0.00    -0.251 OA
BRANCH   7   9
ATOM      9  O   UNL     1      10.329  -1.672  21.761  0.00  0.00    -0.481 OA
ATOM     10  H   UNL     1      10.172  -0.770  21.414  0.00  0.00    +0.295 HD
ENDBRANCH   7   9
ENDBRANCH   6   7
ENDBRANCH   1   6
BRANCH   1  11
ATOM     11  C   UNL     1       8.781   1.303  22.265  0.00  0.00    +0.081 C 
BRANCH  11  12
ATOM     12  N   UNL     1       8.848   0.998  20.840  0.00  0.00    -0.330 NA
ATOM     13  H   UNL     1       7.973   1.275  20.394  0.00  0.00    +0.118 HD
ATOM     14  H   UNL     1       9.573   1.567  20.402  0.00  0.00    +0.118 HD
ENDBRANCH  11  12
ENDBRANCH   1  11
TORSDOF 7
ENDMDL
MODEL 5
REMARK VINA RESULT:      -4.0      4.379      5.649
REMARK  Name = 
REMARK  9 active torsions:
REMARK  status: ('A' for Active; 'I' for Inactive)
REMARK    1  A    between atoms: C_1  and  C_2
REMARK    2  A    between atoms: C_2  and  C_3
REMARK    3  A    between atoms: C_2  and  C_4
REMARK    4  A    between atoms: C_4  and  C_5
REMARK    5  A    between atoms: C_5  and  C_7
REMARK    6  A    between atoms: C_5  and  C_9
REMARK    7  A    between atoms: C_7  and  N_8
REMARK    8  A    between atoms: C_9  and  C_10
REMARK    9  A    between atoms: C_10  and  O_11
REMARK                            x       y       z     vdW  Elec       q    Type
REMARK                         _______ _______ _______ _____ _____    ______ ____
ROOT
ATOM      1  C   UNL     1       8.782  -0.352  24.709  0.00  0.00    +0.013 C 
ENDROOT
BRANCH   1   2
ATOM      2  C   UNL     1      10.142   0.399  24.739  0.00  0.00    +0.008 C 
BRANCH   2   4
ATOM      3  C   UNL     1      10.197   1.850  22.626  0.00  0.00    +0.007 C 
ATOM      4  C   UNL     1      10.175   1.827  24.155  0.00  0.00    -0.017 C 
ATOM      5  C   UNL     1       8.953   2.624  24.633  0.00  0.00    +0.007 C 
ENDBRANCH   2   4
ENDBRANCH   1   2
BRANCH   1   6
ATOM      6  C   UNL     1       8.591  -1.322  23.527  0.00  0.00    +0.125 C 
BRANCH   6   7
ATOM      7  C   UNL     1       9.817  -2.096  23.087  0.00  0.00    +0.305 C 
ATOM      8  O   UNL     1      10.342  -2.985  23.731  0.00  0.00    -0.251 OA
BRANCH   7   9
ATOM      9  O   UNL     1      10.321  -1.667  21.909  0.00  0.00    -0.481 OA
ATOM     10  H   UNL     1      11.282  -1.821  21.799  0.00  0.00    +0.295 HD
ENDBRANCH   7   9
ENDBRANCH   6   7
ENDBRANCH   1   6
BRANCH   1  11
ATOM     11  C   UNL     1       8.655  -1.149  26.036  0.00  0.00    +0.081 C 
BRANCH  11  12
ATOM     12  N   UNL     1       9.111  -0.364  27.178  0.00  0.00    -0.330 NA
ATOM     13  H   UNL     1       8.473  -0.506  27.961  0.00  0.00    +0.118 HD
ATOM     14  H   UNL     1      10.017  -0.714  27.493  0.00  0.00    +0.118 HD
ENDBRANCH  11  12
ENDBRANCH   1  11
TORSDOF 7
ENDMDL
MODEL 6
REMARK VINA RESULT:      -3.9      1.812      2.075
REMARK  Name = 
REMARK  9 active torsions:
REMARK  status: ('A' for Active; 'I' for Inactive)
REMARK    1  A    between atoms: C_1  and  C_2
REMARK    2  A    between atoms: C_2  and  C_3
REMARK    3  A    between atoms: C_2  and  C_4
REMARK    4  A    between atoms: C_4  and  C_5
REMARK    5  A    between atoms: C_5  and  C_7
REMARK    6  A    between atoms: C_5  and  C_9
REMARK    7  A    between atoms: C_7  and  N_8
REMARK    8  A    between atoms: C_9  and  C_10
REMARK    9  A    between atoms: C_10  and  O_11
REMARK                            x       y       z     vdW  Elec       q    Type
REMARK                         _______ _______ _______ _____ _____    ______ ____
ROOT
ATOM      1  C   UNL     1       8.373  -4.450  24.281  0.00  0.00    +0.013 C 
ENDROOT
BRANCH   1   2
ATOM      2  C   UNL     1       6.823  -4.549  24.293  0.00  0.00    +0.008 C 
BRANCH   2   4
ATOM      3  C   UNL     1       5.491  -3.514  22.361  0.00  0.00    +0.007 C 
ATOM      4  C   UNL     1       6.118  -4.784  22.940  0.00  0.00    -0.017 C 
ATOM      5  C   UNL     1       7.114  -5.342  21.913  0.00  0.00    +0.007 C 
ENDBRANCH   2   4
ENDBRANCH   1   2
BRANCH   1   6
ATOM      6  C   UNL     1       8.943  -3.026  24.437  0.00  0.00    +0.125 C 
BRANCH   6   7
ATOM      7  C   UNL     1       9.278  -2.291  23.156  0.00  0.00    +0.305 C 
ATOM      8  O   UNL     1       8.464  -1.731  22.446  0.00  0.00    -0.251 OA
BRANCH   7   9
ATOM      9  O   UNL     1      10.589  -2.356  22.834  0.00  0.00    -0.481 OA
ATOM     10  H   UNL     1      10.890  -1.658  22.217  0.00  0.00    +0.295 HD
ENDBRANCH   7   9
ENDBRANCH   6   7
ENDBRANCH   1   6
BRANCH   1  11
ATOM     11  C   UNL     1       8.910  -5.333  25.440  0.00  0.00    +0.081 C 
BRANCH  11  12
ATOM     12  N   UNL     1      10.359  -5.485  25.371  0.00  0.00    -0.330 NA
ATOM     13  H   UNL     1      10.588  -6.467  25.219  0.00  0.00    +0.118 HD
ATOM     14  H   UNL     1      10.716  -4.989  24.553  0.00  0.00    +0.118 HD
ENDBRANCH  11  12
ENDBRANCH   1  11
TORSDOF 7
ENDMDL
MODEL 7
REMARK VINA RESULT:      -3.9      4.964      6.287
REMARK  Name = 
REMARK  9 active torsions:
REMARK  status: ('A' for Active; 'I' for Inactive)
REMARK    1  A    between atoms: C_1  and  C_2
REMARK    2  A    between atoms: C_2  and  C_3
REMARK    3  A    between atoms: C_2  and  C_4
REMARK    4  A    between atoms: C_4  and  C_5
REMARK    5  A    between atoms: C_5  and  C_7
REMARK    6  A    between atoms: C_5  and  C_9
REMARK    7  A    between atoms: C_7  and  N_8
REMARK    8  A    between atoms: C_9  and  C_10
REMARK    9  A    between atoms: C_10  and  O_11
REMARK                            x       y       z     vdW  Elec       q    Type
REMARK                         _______ _______ _______ _____ _____    ______ ____
ROOT
ATOM      1  C   UNL     1      10.299  -0.497  23.789  0.00  0.00    +0.013 C 
ENDROOT
BRANCH   1   2
ATOM      2  C   UNL     1      10.763   0.912  24.253  0.00  0.00    +0.008 C 
BRANCH   2   4
ATOM      3  C   UNL     1       8.934   2.664  24.651  0.00  0.00    +0.007 C 
ATOM      4  C   UNL     1       9.999   2.130  23.692  0.00  0.00    -0.017 C 
ATOM      5  C   UNL     1      10.978   3.269  23.374  0.00  0.00    +0.007 C 
ENDBRANCH   2   4
ENDBRANCH   1   2
BRANCH   1   6
ATOM      6  C   UNL     1       9.257  -1.178  24.698  0.00  0.00    +0.125 C 
BRANCH   6   7
ATOM      7  C   UNL     1       9.023  -2.657  24.464  0.00  0.00    +0.305 C 
ATOM      8  O   UNL     1       7.970  -3.231  24.664  0.00  0.00    -0.251 OA
BRANCH   7   9
ATOM      9  O   UNL     1      10.131  -3.310  24.051  0.00  0.00    -0.481 OA
ATOM     10  H   UNL     1      10.844  -3.364  24.721  0.00  0.00    +0.295 HD
ENDBRANCH   7   9
ENDBRANCH   6   7
ENDBRANCH   1   6
BRANCH   1  11
ATOM     11  C   UNL     1       9.699  -0.349  22.364  0.00  0.00    +0.081 C 
BRANCH  11  12
ATOM     12  N   UNL     1      10.150  -1.417  21.480  0.00  0.00    -0.330 NA
ATOM     13  H   UNL     1      11.109  -1.671  21.720  0.00  0.00    +0.118 HD
ATOM     14  H   UNL     1       9.594  -2.257  21.647  0.00  0.00    +0.118 HD
ENDBRANCH  11  12
ENDBRANCH   1  11
TORSDOF 7
ENDMDL
MODEL 8
REMARK VINA RESULT:      -3.9      3.402      4.925
REMARK  Name = 
REMARK  9 active torsions:
REMARK  status: ('A' for Active; 'I' for Inactive)
REMARK    1  A    between atoms: C_1  and  C_2
REMARK    2  A    between atoms: C_2  and  C_3
REMARK    3  A    between atoms: C_2  and  C_4
REMARK    4  A    between atoms: C_4  and  C_5
REMARK    5  A    between atoms: C_5  and  C_7
REMARK    6  A    between atoms: C_5  and  C_9
REMARK    7  A    between atoms: C_7  and  N_8
REMARK    8  A    between atoms: C_9  and  C_10
REMARK    9  A    between atoms: C_10  and  O_11
REMARK                            x       y       z     vdW  Elec       q    Type
REMARK                         _______ _______ _______ _____ _____    ______ ____
ROOT
ATOM      1  C   UNL     1       9.664  -2.476  23.735  0.00  0.00    +0.013 C 
ENDROOT
BRANCH   1   2
ATOM      2  C   UNL     1       9.839  -1.199  24.603  0.00  0.00    +0.008 C 
BRANCH   2   4
ATOM      3  C   UNL     1       8.740  -0.842  26.892  0.00  0.00    +0.007 C 
ATOM      4  C   UNL     1       8.602  -0.694  25.376  0.00  0.00    -0.017 C 
ATOM      5  C   UNL     1       8.344   0.785  25.056  0.00  0.00    +0.007 C 
ENDBRANCH   2   4
ENDBRANCH   1   2
BRANCH   1   6
ATOM      6  C   UNL     1       8.761  -3.567  24.343  0.00  0.00    +0.125 C 
BRANCH   6   7
ATOM      7  C   UNL     1       9.383  -4.434  25.419  0.00  0.00    +0.305 C 
ATOM      8  O   UNL     1       9.098  -4.381  26.600  0.00  0.00    -0.251 OA
BRANCH   7   9
ATOM      9  O   UNL     1      10.345  -5.257  24.947  0.00  0.00    -0.481 OA
ATOM     10  H   UNL     1      11.108  -4.797  24.541  0.00  0.00    +0.295 HD
ENDBRANCH   7   9
ENDBRANCH   6   7
ENDBRANCH   1   6
BRANCH   1  11
ATOM     11  C   UNL     1       9.070  -2.039  22.368  0.00  0.00    +0.081 C 
BRANCH  11  12
ATOM     12  N   UNL     1      10.090  -1.458  21.502  0.00  0.00    -0.330 NA
ATOM     13  H   UNL     1      10.991  -1.889  21.707  0.00  0.00    +0.118 HD
ATOM     14  H   UNL     1       9.886  -1.693  20.530  0.00  0.00    +0.118 HD
ENDBRANCH  11  12
ENDBRANCH   1  11
TORSDOF 7
ENDMDL
MODEL 9
REMARK VINA RESULT:      -3.9      5.084      6.058
REMARK  Name = 
REMARK  9 active torsions:
REMARK  status: ('A' for Active; 'I' for Inactive)
REMARK    1  A    between atoms: C_1  and  C_2
REMARK    2  A    between atoms: C_2  and  C_3
REMARK    3  A    between atoms: C_2  and  C_4
REMARK    4  A    between atoms: C_4  and  C_5
REMARK    5  A    between atoms: C_5  and  C_7
REMARK    6  A    between atoms: C_5  and  C_9
REMARK    7  A    between atoms: C_7  and  N_8
REMARK    8  A    between atoms: C_9  and  C_10
REMARK    9  A    between atoms: C_10  and  O_11
REMARK                            x       y       z     vdW  Elec       q    Type
REMARK                         _______ _______ _______ _____ _____    ______ ____
ROOT
ATOM      1  C   UNL     1       8.277   0.418  22.900  0.00  0.00    +0.013 C 
ENDROOT
BRANCH   1   2
ATOM      2  C   UNL     1       9.375  -0.497  22.291  0.00  0.00    +0.008 C 
BRANCH   2   4
ATOM      3  C   UNL     1       9.865  -2.526  23.780  0.00  0.00    +0.007 C 
ATOM      4  C   UNL     1       9.218  -2.020  22.490  0.00  0.00    -0.017 C 
ATOM      5  C   UNL     1       7.731  -2.401  22.515  0.00  0.00    +0.007 C 
ENDBRANCH   2   4
ENDBRANCH   1   2
BRANCH   1   6
ATOM      6  C   UNL     1       8.611   1.017  24.281  0.00  0.00    +0.125 C 
BRANCH   6   7
ATOM      7  C   UNL     1      10.077   1.261  24.572  0.00  0.00    +0.305 C 
ATOM      8  O   UNL     1      10.767   2.085  24.004  0.00  0.00    -0.251 OA
BRANCH   7   9
ATOM      9  O   UNL     1      10.578   0.425  25.508  0.00  0.00    -0.481 OA
ATOM     10  H   UNL     1      11.516   0.588  25.736  0.00  0.00    +0.295 HD
ENDBRANCH   7   9
ENDBRANCH   6   7
ENDBRANCH   1   6
BRANCH   1  11
ATOM     11  C   UNL     1       8.024   1.579  21.900  0.00  0.00    +0.081 C 
BRANCH  11  12
ATOM     12  N   UNL     1       9.274   2.106  21.365  0.00  0.00    -0.330 NA
ATOM     13  H   UNL     1      10.050   1.528  21.687  0.00  0.00    +0.118 HD
ATOM     14  H   UNL     1       9.273   2.022  20.347  0.00  0.00    +0.118 HD
ENDBRANCH  11  12
ENDBRANCH   1  11
TORSDOF 7
ENDMDL
