MODEL 1
REMARK VINA RESULT:      -4.8      0.000      0.000
REMARK  Name = 
REMARK  8 active torsions:
REMARK  status: ('A' for Active; 'I' for Inactive)
REMARK    1  A    between atoms: C_1  and  C_2
REMARK    2  A    between atoms: C_2  and  C_3
REMARK    3  A    between atoms: C_2  and  C_4
REMARK    4  A    between atoms: C_4  and  C_5
REMARK    5  A    between atoms: C_5  and  C_7
REMARK    6  A    between atoms: C_5  and  C_10
REMARK    7  A    between atoms: C_7  and  O_8
REMARK    8  A    between atoms: N_12  and  O_13
REMARK                            x       y       z     vdW  Elec       q    Type
REMARK                         _______ _______ _______ _____ _____    ______ ____
ROOT
ATOM      1  C   UNL     1       7.888  -5.162  24.663  0.00  0.00    +0.185 C 
ENDROOT
BRANCH   1   2
ATOM      2  C   UNL     1       7.172  -5.612  25.919  0.00  0.00    +0.249 C 
ATOM      3  N   UNL     1       7.991  -5.800  27.008  0.00  0.00    -0.197 N 
ATOM      4  H   UNL     1       8.873  -5.299  27.111  0.00  0.00    +0.182 HD
ATOM      5  O   UNL     1       5.957  -5.798  25.975  0.00  0.00    -0.273 OA
BRANCH   3   6
ATOM      6  O   UNL     1       7.327  -6.136  28.212  0.00  0.00    -0.295 OA
ATOM      7  H   UNL     1       7.937  -6.786  28.624  0.00  0.00    +0.241 HD
ENDBRANCH   3   6
ENDBRANCH   1   2
BRANCH   1   8
ATOM      8  C   UNL     1       9.264  -4.659  25.030  0.00  0.00    +0.317 C 
ATOM      9  O   UNL     1       9.511  -3.461  25.084  0.00  0.00    -0.250 OA
BRANCH   8  10
ATOM     10  O   UNL     1      10.227  -5.583  25.209  0.00  0.00    -0.480 OA
ATOM     11  H   UNL     1      10.109  -6.202  25.954  0.00  0.00    +0.295 HD
ENDBRANCH   8  10
ENDBRANCH   1   8
BRANCH   1  12
ATOM     12  C   UNL     1       7.016  -4.189  23.850  0.00  0.00    +0.027 C 
BRANCH  12  14
ATOM     13  C   UNL     1       7.135  -5.783  21.857  0.00  0.00    +0.007 C 
ATOM     14  C   UNL     1       7.135  -4.324  22.318  0.00  0.00    -0.016 C 
ATOM     15  C   UNL     1       5.983  -3.570  21.647  0.00  0.00    +0.007 C 
ENDBRANCH  12  14
ENDBRANCH   1  12
TORSDOF 6
ENDMDL
MODEL 2
REMARK VINA RESULT:      -4.5      2.278      3.062
REMARK  Name = 
REMARK  8 active torsions:
REMARK  status: ('A' for Active; 'I' for Inactive)
REMARK    1  A    between atoms: C_1  and  C_2
REMARK    2  A    between atoms: C_2  and  C_3
REMARK    3  A    between atoms: C_2  and  C_4
REMARK    4  A    between atoms: C_4  and  C_5
REMARK    5  A    between atoms: C_5  and  C_7
REMARK    6  A    between atoms: C_5  and  C_10
REMARK    7  A    between atoms: C_7  and  O_8
REMARK    8  A    between atoms: N_12  and  O_13
REMARK                            x       y       z     vdW  Elec       q    Type
REMARK                         _______ _______ _______ _____ _____    ______ ____
ROOT
ATOM      1  C   UNL     1       8.267  -4.028  25.465  0.00  0.00    +0.185 C 
ENDROOT
BRANCH   1   2
ATOM      2  C   UNL     1       7.551  -4.588  26.677  0.00  0.00    +0.249 C 
ATOM      3  N   UNL     1       7.942  -5.858  27.034  0.00  0.00    -0.197 N 
ATOM      4  H   UNL     1       8.870  -6.218  26.815  0.00  0.00    +0.182 HD
ATOM      5  O   UNL     1       6.690  -3.969  27.300  0.00  0.00    -0.273 OA
BRANCH   3   6
ATOM      6  O   UNL     1       7.347  -6.363  28.216  0.00  0.00    -0.295 OA
ATOM      7  H   UNL     1       6.429  -6.560  27.931  0.00  0.00    +0.241 HD
ENDBRANCH   3   6
ENDBRANCH   1   2
BRANCH   1   8
ATOM      8  C   UNL     1       9.116  -5.112  24.845  0.00  0.00    +0.317 C 
ATOM      9  O   UNL     1       8.721  -5.759  23.883  0.00  0.00    -0.250 OA
BRANCH   8  10
ATOM     10  O   UNL     1      10.286  -5.394  25.448  0.00  0.00    -0.480 OA
ATOM     11  H   UNL     1      10.350  -6.255  25.903  0.00  0.00    +0.295 HD
ENDBRANCH   8  10
ENDBRANCH   1   8
BRANCH   1  12
ATOM     12  C   UNL     1       9.001  -2.721  25.814  0.00  0.00    +0.027 C 
BRANCH  12  14
ATOM     13  C   UNL     1       9.270  -0.238  25.282  0.00  0.00    +0.007 C 
ATOM     14  C   UNL     1       8.947  -1.627  24.728  0.00  0.00    -0.016 C 
ATOM     15  C   UNL     1       9.924  -1.975  23.601  0.00  0.00    +0.007 C 
ENDBRANCH  12  14
ENDBRANCH   1  12
TORSDOF 6
ENDMDL
MODEL 3
REMARK VINA RESULT:      -4.5      4.999      5.738
REMARK  Name = 
REMARK  8 active torsions:
REMARK  status: ('A' for Active; 'I' for Inactive)
REMARK    1  A    between atoms: C_1  and  C_2
REMARK    2  A    between atoms: C_2  and  C_3
REMARK    3  A    between atoms: C_2  and  C_4
REMARK    4  A    between atoms: C_4  and  C_5
REMARK    5  A    between atoms: C_5  and  C_7
REMARK    6  A    between atoms: C_5  and  C_10
REMARK    7  A    between atoms: C_7  and  O_8
REMARK    8  A    between atoms: N_12  and  O_13
REMARK                            x       y       z     vdW  Elec       q    Type
REMARK                         _______ _______ _______ _____ _____    ______ ____
ROOT
ATOM      1  C   UNL     1       9.593  -0.397  23.922  0.00  0.00    +0.185 C 
ENDROOT
BRANCH   1   2
ATOM      2  C   UNL     1       8.784  -0.615  25.183  0.00  0.00    +0.249 C 
ATOM      3  N   UNL     1       9.417  -0.231  26.342  0.00  0.00    -0.197 N 
ATOM      4  H   UNL     1      10.131   0.496  26.350  0.00  0.00    +0.182 HD
ATOM      5  O   UNL     1       7.651  -1.096  25.185  0.00  0.00    -0.273 OA
BRANCH   3   6
ATOM      6  O   UNL     1       8.641  -0.347  27.521  0.00  0.00    -0.295 OA
ATOM      7  H   UNL     1       7.777   0.033  27.251  0.00  0.00    +0.241 HD
ENDBRANCH   3   6
ENDBRANCH   1   2
BRANCH   1   8
ATOM      8  C   UNL     1      10.097  -1.728  23.418  0.00  0.00    +0.317 C 
ATOM      9  O   UNL     1      10.627  -1.834  22.319  0.00  0.00    -0.250 OA
BRANCH   8  10
ATOM     10  O   UNL     1       9.860  -2.805  24.190  0.00  0.00    -0.480 OA
ATOM     11  H   UNL     1       8.978  -2.864  24.604  0.00  0.00    +0.295 HD
ENDBRANCH   8  10
ENDBRANCH   1   8
BRANCH   1  12
ATOM     12  C   UNL     1      10.666   0.686  24.137  0.00  0.00    +0.027 C 
BRANCH  12  14
ATOM     13  C   UNL     1       9.897   1.732  21.938  0.00  0.00    +0.007 C 
ATOM     14  C   UNL     1      10.454   1.989  23.339  0.00  0.00    -0.016 C 
ATOM     15  C   UNL     1       9.510   2.914  24.111  0.00  0.00    +0.007 C 
ENDBRANCH  12  14
ENDBRANCH   1  12
TORSDOF 6
ENDMDL
MODEL 4
REMARK VINA RESULT:      -4.5      2.980      3.861
REMARK  Name = 
REMARK  8 active torsions:
REMARK  status: ('A' for Active; 'I' for Inactive)
REMARK    1  A    between atoms: C_1  and  C_2
REMARK    2  A    between atoms: C_2  and  C_3
REMARK    3  A    between atoms: C_2  and  C_4
REMARK    4  A    between atoms: C_4  and  C_5
REMARK    5  A    between atoms: C_5  and  C_7
REMARK    6  A    between atoms: C_5  and  C_10
REMARK    7  A    between atoms: C_7  and  O_8
REMARK    8  A    between atoms: N_12  and  O_13
REMARK                            x       y       z     vdW  Elec       q    Type
REMARK                         _______ _______ _______ _____ _____    ______ ____
ROOT
ATOM      1  C   UNL     1       8.647  -3.174  24.147  0.00  0.00    +0.185 C 
ENDROOT
BRANCH   1   2
ATOM      2  C   UNL     1       9.055  -4.332  25.035  0.00  0.00    +0.249 C 
ATOM      3  N   UNL     1       8.114  -4.692  25.972  0.00  0.00    -0.197 N 
ATOM      4  H   UNL     1       7.120  -4.524  25.827  0.00  0.00    +0.182 HD
ATOM      5  O   UNL     1      10.136  -4.911  24.937  0.00  0.00    -0.273 OA
BRANCH   3   6
ATOM      6  O   UNL     1       8.443  -5.828  26.751  0.00  0.00    -0.295 OA
ATOM      7  H   UNL     1       7.768  -6.484  26.475  0.00  0.00    +0.241 HD
ENDBRANCH   3   6
ENDBRANCH   1   2
BRANCH   1   8
ATOM      8  C   UNL     1       7.822  -3.698  22.996  0.00  0.00    +0.317 C 
ATOM      9  O   UNL     1       7.279  -2.939  22.204  0.00  0.00    -0.250 OA
BRANCH   8  10
ATOM     10  O   UNL     1       7.639  -5.030  22.930  0.00  0.00    -0.480 OA
ATOM     11  H   UNL     1       8.425  -5.573  22.730  0.00  0.00    +0.295 HD
ENDBRANCH   8  10
ENDBRANCH   1   8
BRANCH   1  12
ATOM     12  C   UNL     1       9.867  -2.320  23.761  0.00  0.00    +0.027 C 
BRANCH  12  14
ATOM     13  C   UNL     1      10.411   0.014  24.643  0.00  0.00    +0.007 C 
ATOM     14  C   UNL     1       9.598  -0.806  23.640  0.00  0.00    -0.016 C 
ATOM     15  C   UNL     1       9.913  -0.342  22.215  0.00  0.00    +0.007 C 
ENDBRANCH  12  14
ENDBRANCH   1  12
TORSDOF 6
ENDMDL
MODEL 5
REMARK VINA RESULT:      -4.5      5.110      6.410
REMARK  Name = 
REMARK  8 active torsions:
REMARK  status: ('A' for Active; 'I' for Inactive)
REMARK    1  A    between atoms: C_1  and  C_2
REMARK    2  A    between atoms: C_2  and  C_3
REMARK    3  A    between atoms: C_2  and  C_4
REMARK    4  A    between atoms: C_4  and  C_5
REMARK    5  A    between atoms: C_5  and  C_7
REMARK    6  A    between atoms: C_5  and  C_10
REMARK    7  A    between atoms: C_7  and  O_8
REMARK    8  A    between atoms: N_12  and  O_13
REMARK                            x       y       z     vdW  Elec       q    Type
REMARK                         _______ _______ _______ _____ _____    ______ ____
ROOT
ATOM      1  C   UNL     1      10.424   0.213  22.808  0.00  0.00    +0.185 C 
ENDROOT
BRANCH   1   2
ATOM      2  C   UNL     1      10.041   0.605  24.219  0.00  0.00    +0.249 C 
ATOM      3  N   UNL     1       8.921   1.399  24.307  0.00  0.00    -0.197 N 
ATOM      4  H   UNL     1       8.189   1.377  23.598  0.00  0.00    +0.182 HD
ATOM      5  O   UNL     1      10.670   0.249  25.215  0.00  0.00    -0.273 OA
BRANCH   3   6
ATOM      6  O   UNL     1       8.497   1.702  25.623  0.00  0.00    -0.295 OA
ATOM      7  H   UNL     1       7.543   1.900  25.506  0.00  0.00    +0.241 HD
ENDBRANCH   3   6
ENDBRANCH   1   2
BRANCH   1   8
ATOM      8  C   UNL     1       9.735   1.135  21.831  0.00  0.00    +0.317 C 
ATOM      9  O   UNL     1       8.775   0.761  21.169  0.00  0.00    -0.250 OA
BRANCH   8  10
ATOM     10  O   UNL     1      10.275   2.356  21.657  0.00  0.00    -0.480 OA
ATOM     11  H   UNL     1      10.369   2.669  20.737  0.00  0.00    +0.295 HD
ENDBRANCH   8  10
ENDBRANCH   1   8
BRANCH   1  12
ATOM     12  C   UNL     1      10.204  -1.292  22.575  0.00  0.00    +0.027 C 
BRANCH  12  14
ATOM     13  C   UNL     1       7.915  -2.413  22.412  0.00  0.00    +0.007 C 
ATOM     14  C   UNL     1       9.018  -1.910  23.344  0.00  0.00    -0.016 C 
ATOM     15  C   UNL     1       9.521  -3.062  24.220  0.00  0.00    +0.007 C 
ENDBRANCH  12  14
ENDBRANCH   1  12
TORSDOF 6
ENDMDL
MODEL 6
REMARK VINA RESULT:      -4.4      4.705      6.187
REMARK  Name = 
REMARK  8 active torsions:
REMARK  status: ('A' for Active; 'I' for Inactive)
REMARK    1  A    between atoms: C_1  and  C_2
REMARK    2  A    between atoms: C_2  and  C_3
REMARK    3  A    between atoms: C_2  and  C_4
REMARK    4  A    between atoms: C_4  and  C_5
REMARK    5  A    between atoms: C_5  and  C_7
REMARK    6  A    between atoms: C_5  and  C_10
REMARK    7  A    between atoms: C_7  and  O_8
REMARK    8  A    between atoms: N_12  and  O_13
REMARK                            x       y       z     vdW  Elec       q    Type
REMARK                         _______ _______ _______ _____ _____    ______ ____
ROOT
ATOM      1  C   UNL     1       9.261  -0.616  23.555  0.00  0.00    +0.185 C 
ENDROOT
BRANCH   1   2
ATOM      2  C   UNL     1       9.990   0.659  23.187  0.00  0.00    +0.249 C 
ATOM      3  N   UNL     1       9.735   1.116  21.915  0.00  0.00    -0.197 N 
ATOM      4  H   UNL     1       8.863   0.905  21.432  0.00  0.00    +0.182 HD
ATOM      5  O   UNL     1      10.751   1.248  23.954  0.00  0.00    -0.273 OA
BRANCH   3   6
ATOM      6  O   UNL     1      10.340   2.353  21.585  0.00  0.00    -0.295 OA
ATOM      7  H   UNL     1      10.816   2.148  20.752  0.00  0.00    +0.241 HD
ENDBRANCH   3   6
ENDBRANCH   1   2
BRANCH   1   8
ATOM      8  C   UNL     1       9.990  -1.796  22.958  0.00  0.00    +0.317 C 
ATOM      9  O   UNL     1      10.272  -2.778  23.632  0.00  0.00    -0.250 OA
BRANCH   8  10
ATOM     10  O   UNL     1      10.393  -1.683  21.679  0.00  0.00    -0.480 OA
ATOM     11  H   UNL     1      10.428  -2.506  21.154  0.00  0.00    +0.295 HD
ENDBRANCH   8  10
ENDBRANCH   1   8
BRANCH   1  12
ATOM     12  C   UNL     1       7.764  -0.513  23.212  0.00  0.00    +0.027 C 
BRANCH  12  14
ATOM     13  C   UNL     1       5.794  -1.096  24.728  0.00  0.00    +0.007 C 
ATOM     14  C   UNL     1       6.877  -1.633  23.792  0.00  0.00    -0.016 C 
ATOM     15  C   UNL     1       6.230  -2.419  22.648  0.00  0.00    +0.007 C 
ENDBRANCH  12  14
ENDBRANCH   1  12
TORSDOF 6
ENDMDL
MODEL 7
REMARK VINA RESULT:      -4.4      1.140      2.827
REMARK  Name = 
REMARK  8 active torsions:
REMARK  status: ('A' for Active; 'I' for Inactive)
REMARK    1  A    between atoms: C_1  and  C_2
REMARK    2  A    between atoms: C_2  and  C_3
REMARK    3  A    between atoms: C_2  and  C_4
REMARK    4  A    between atoms: C_4  and  C_5
REMARK    5  A    between atoms: C_5  and  C_7
REMARK    6  A    between atoms: C_5  and  C_10
REMARK    7  A    between atoms: C_7  and  O_8
REMARK    8  A    between atoms: N_12  and  O_13
REMARK                            x       y       z     vdW  Elec       q    Type
REMARK                         _______ _______ _______ _____ _____    ______ ____
ROOT
ATOM      1  C   UNL     1       7.010  -4.713  25.038  0.00  0.00    +0.185 C 
ENDROOT
BRANCH   1   2
ATOM      2  C   UNL     1       8.514  -4.659  24.870  0.00  0.00    +0.249 C 
ATOM      3  N   UNL     1       9.210  -5.526  25.681  0.00  0.00    -0.197 N 
ATOM      4  H   UNL     1       8.796  -6.390  26.027  0.00  0.00    +0.182 HD
ATOM      5  O   UNL     1       9.080  -3.908  24.076  0.00  0.00    -0.273 OA
BRANCH   3   6
ATOM      6  O   UNL     1      10.611  -5.552  25.474  0.00  0.00    -0.295 OA
ATOM      7  H   UNL     1      10.967  -5.513  26.387  0.00  0.00    +0.241 HD
ENDBRANCH   3   6
ENDBRANCH   1   2
BRANCH   1   8
ATOM      8  C   UNL     1       6.682  -5.269  26.403  0.00  0.00    +0.317 C 
ATOM      9  O   UNL     1       6.087  -6.331  26.533  0.00  0.00    -0.250 OA
BRANCH   8  10
ATOM     10  O   UNL     1       6.996  -4.506  27.467  0.00  0.00    -0.480 OA
ATOM     11  H   UNL     1       7.843  -4.698  27.913  0.00  0.00    +0.295 HD
ENDBRANCH   8  10
ENDBRANCH   1   8
BRANCH   1  12
ATOM     12  C   UNL     1       6.347  -5.428  23.848  0.00  0.00    +0.027 C 
BRANCH  12  14
ATOM     13  C   UNL     1       6.275  -5.667  21.307  0.00  0.00    +0.007 C 
ATOM     14  C   UNL     1       6.500  -4.720  22.486  0.00  0.00    -0.016 C 
ATOM     15  C   UNL     1       5.516  -3.549  22.406  0.00  0.00    +0.007 C 
ENDBRANCH  12  14
ENDBRANCH   1  12
TORSDOF 6
ENDMDL
MODEL 8
REMARK VINA RESULT:      -4.2      2.975      3.831
REMARK  Name = 
REMARK  8 active torsions:
REMARK  status: ('A' for Active; 'I' for Inactive)
REMARK    1  A    between atoms: C_1  and  C_2
REMARK    2  A    between atoms: C_2  and  C_3
REMARK    3  A    between atoms: C_2  and  C_4
REMARK    4  A    between atoms: C_4  and  C_5
REMARK    5  A    between atoms: C_5  and  C_7
REMARK    6  A    between atoms: C_5  and  C_10
REMARK    7  A    between atoms: C_7  and  O_8
REMARK    8  A    between atoms: N_12  and  O_13
REMARK                            x       y       z     vdW  Elec       q    Type
REMARK                         _______ _______ _______ _____ _____    ______ ____
ROOT
ATOM      1  C   UNL     1       6.615  -4.600  23.251  0.00  0.00    +0.185 C 
ENDROOT
BRANCH   1   2
ATOM      2  C   UNL     1       5.829  -5.648  24.012  0.00  0.00    +0.249 C 
ATOM      3  N   UNL     1       5.088  -6.494  23.220  0.00  0.00    -0.197 N 
ATOM      4  H   UNL     1       5.350  -6.697  22.257  0.00  0.00    +0.182 HD
ATOM      5  O   UNL     1       5.844  -5.745  25.239  0.00  0.00    -0.273 OA
BRANCH   3   6
ATOM      6  O   UNL     1       4.418  -7.533  23.910  0.00  0.00    -0.295 OA
ATOM      7  H   UNL     1       3.472  -7.325  23.751  0.00  0.00    +0.241 HD
ENDBRANCH   3   6
ENDBRANCH   1   2
BRANCH   1   8
ATOM      8  C   UNL     1       6.466  -4.849  21.768  0.00  0.00    +0.317 C 
ATOM      9  O   UNL     1       5.673  -4.209  21.091  0.00  0.00    -0.250 OA
BRANCH   8  10
ATOM     10  O   UNL     1       7.180  -5.863  21.243  0.00  0.00    -0.480 OA
ATOM     11  H   UNL     1       7.019  -6.752  21.612  0.00  0.00    +0.295 HD
ENDBRANCH   8  10
ENDBRANCH   1   8
BRANCH   1  12
ATOM     12  C   UNL     1       8.059  -4.508  23.771  0.00  0.00    +0.027 C 
BRANCH  12  14
ATOM     13  C   UNL     1       8.851  -2.248  22.884  0.00  0.00    +0.007 C 
ATOM     14  C   UNL     1       8.541  -3.086  24.125  0.00  0.00    -0.016 C 
ATOM     15  C   UNL     1       7.479  -2.382  24.974  0.00  0.00    +0.007 C 
ENDBRANCH  12  14
ENDBRANCH   1  12
TORSDOF 6
ENDMDL
MODEL 9
REMARK VINA RESULT:      -4.2      6.318      7.630
REMARK  Name = 
REMARK  8 active torsions:
REMARK  status: ('A' for Active; 'I' for Inactive)
REMARK    1  A    between atoms: C_1  and  C_2
REMARK    2  A    between atoms: C_2  and  C_3
REMARK    3  A    between atoms: C_2  and  C_4
REMARK    4  A    between atoms: C_4  and  C_5
REMARK    5  A    between atoms: C_5  and  C_7
REMARK    6  A    between atoms: C_5  and  C_10
REMARK    7  A    between atoms: C_7  and  O_8
REMARK    8  A    between atoms: N_12  and  O_13
REMARK                            x       y       z     vdW  Elec       q    Type
REMARK                         _______ _______ _______ _____ _____    ______ ____
ROOT
ATOM      1  C   UNL     1       8.732   1.364  23.199  0.00  0.00    +0.185 C 
ENDROOT
BRANCH   1   2
ATOM      2  C   UNL     1       7.596   2.365  23.146  0.00  0.00    +0.249 C 
ATOM      3  N   UNL     1       7.276   2.799  21.880  0.00  0.00    -0.197 N 
ATOM      4  H   UNL     1       7.453   2.227  21.055  0.00  0.00    +0.182 HD
ATOM      5  O   UNL     1       7.000   2.765  24.145  0.00  0.00    -0.273 OA
BRANCH   3   6
ATOM      6  O   UNL     1       6.160   3.667  21.804  0.00  0.00    -0.295 OA
ATOM      7  H   UNL     1       5.400   3.052  21.889  0.00  0.00    +0.241 HD
ENDBRANCH   3   6
ENDBRANCH   1   2
BRANCH   1   8
ATOM      8  C   UNL     1       9.409   1.309  21.850  0.00  0.00    +0.317 C 
ATOM      9  O   UNL     1       9.232   0.369  21.086  0.00  0.00    -0.250 OA
BRANCH   8  10
ATOM     10  O   UNL     1      10.281   2.293  21.563  0.00  0.00    -0.480 OA
ATOM     11  H   UNL     1      10.243   3.093  22.121  0.00  0.00    +0.295 HD
ENDBRANCH   8  10
ENDBRANCH   1   8
BRANCH   1  12
ATOM     12  C   UNL     1       8.251   0.015  23.761  0.00  0.00    +0.027 C 
BRANCH  12  14
ATOM     13  C   UNL     1       9.866  -1.962  23.846  0.00  0.00    +0.007 C 
ATOM     14  C   UNL     1       9.293  -0.759  24.596  0.00  0.00    -0.016 C 
ATOM     15  C   UNL     1      10.427   0.187  25.002  0.00  0.00    +0.007 C 
ENDBRANCH  12  14
ENDBRANCH   1  12
TORSDOF 6
ENDMDL
