MODEL 1
REMARK VINA RESULT:      -6.6      0.000      0.000
REMARK  Name = 
REMARK  10 active torsions:
REMARK  status: ('A' for Active; 'I' for Inactive)
REMARK    1  A    between atoms: C_2  and  N_3
REMARK    2  A    between atoms: C_2  and  C_4
REMARK    3  A    between atoms: C_2  and  C_28
REMARK    4  A    between atoms: C_4  and  S_5
REMARK    5  A    between atoms: S_5  and  C_6
REMARK    6  A    between atoms: C_6  and  C_7
REMARK    7  A    between atoms: C_7  and  C_8
REMARK    8  A    between atoms: N_10  and  C_11
REMARK    9  A    between atoms: N_21  and  C_22
REMARK   10  A    between atoms: C_28  and  O_29
REMARK                            x       y       z     vdW  Elec       q    Type
REMARK                         _______ _______ _______ _____ _____    ______ ____
ROOT
ATOM      1  C   UNK     1       6.341  -3.737  24.426  0.00  0.00    +0.034 A 
ATOM      2  C   UNK     1       7.409  -4.624  24.486  0.00  0.00    +0.025 A 
ATOM      3  C   UNK     1       8.680  -4.208  24.069  0.00  0.00    +0.030 A 
ATOM      4  C   UNK     1       8.922  -2.920  23.613  0.00  0.00    +0.076 A 
ATOM      5  N   UNK     1      10.154  -2.617  23.201  0.00  0.00    -0.235 NA
ATOM      6  C   UNK     1      10.347  -1.364  22.786  0.00  0.00    +0.223 A 
ATOM      7  N   UNK     1       9.435  -0.391  22.767  0.00  0.00    -0.220 NA
ATOM      8  C   UNK     1       8.193  -0.689  23.185  0.00  0.00    +0.134 A 
ATOM      9  N   UNK     1       7.232   0.343  23.306  0.00  0.00    -0.299 N 
ATOM     10  H   UNK     1       6.275   0.026  23.360  0.00  0.00    +0.154 HD
ATOM     11  C   UNK     1       7.869  -1.994  23.611  0.00  0.00    +0.042 A 
ATOM     12  C   UNK     1       6.587  -2.425  24.033  0.00  0.00    +0.036 A 
ENDROOT
BRANCH   9  13
ATOM     13  C   UNK     1       7.339   1.745  23.269  0.00  0.00    +0.032 A 
ATOM     14  C   UNK     1       8.055   2.380  24.300  0.00  0.00    +0.023 A 
ATOM     15  C   UNK     1       8.348   3.745  24.247  0.00  0.00    +0.002 A 
ATOM     16  C   UNK     1       7.925   4.504  23.161  0.00  0.00    +0.000 A 
ATOM     17  C   UNK     1       7.186   3.902  22.148  0.00  0.00    +0.002 A 
ATOM     18  C   UNK     1       6.898   2.536  22.205  0.00  0.00    +0.023 A 
ENDBRANCH   9  13
BRANCH   1  20
ATOM     19  C   UNK     1       4.068  -4.560  23.845  0.00  0.00    +0.218 C 
ATOM     20  N   UNK     1       5.053  -4.204  24.756  0.00  0.00    -0.285 N 
ATOM     21  H   UNK     1       4.893  -4.434  25.729  0.00  0.00    +0.155 HD
ATOM     22  O   UNK     1       4.174  -4.565  22.623  0.00  0.00    -0.275 OA
BRANCH  19  23
ATOM     23  C   UNK     1       2.775  -4.990  24.494  0.00  0.00    +0.107 C 
BRANCH  23  24
ATOM     24  C   UNK     1       2.717  -4.507  25.932  0.00  0.00    +0.078 C 
BRANCH  24  25
ATOM     25  S   UNK     1       2.573  -5.952  27.022  0.00  0.00    -0.158 S 
BRANCH  25  26
ATOM     26  C   UNK     1       3.975  -5.591  28.146  0.00  0.00    +0.099 C 
BRANCH  26  27
ATOM     27  C   UNK     1       5.242  -6.360  27.743  0.00  0.00    +0.170 C 
BRANCH  27  28
ATOM     28  N   UNK     1       5.413  -7.588  28.555  0.00  0.00    -0.318 NA
ATOM     29  H   UNK     1       4.796  -7.623  29.360  0.00  0.00    +0.119 HD
ATOM     30  H   UNK     1       5.401  -8.433  27.984  0.00  0.00    +0.119 HD
ENDBRANCH  27  28
BRANCH  27  31
ATOM     31  C   UNK     1       6.460  -5.427  27.798  0.00  0.00    +0.323 C 
ATOM     32  O   UNK     1       6.379  -4.209  27.865  0.00  0.00    -0.249 OA
BRANCH  31  33
ATOM     33  O   UNK     1       7.653  -6.068  27.766  0.00  0.00    -0.480 OA
ATOM     34  H   UNK     1       8.060  -6.073  28.651  0.00  0.00    +0.295 HD
ENDBRANCH  31  33
ENDBRANCH  27  31
ENDBRANCH  26  27
ENDBRANCH  25  26
ENDBRANCH  24  25
ENDBRANCH  23  24
ENDBRANCH  19  23
ENDBRANCH   1  20
TORSDOF 10
ENDMDL
MODEL 2
REMARK VINA RESULT:      -6.5      2.049      2.721
REMARK  Name = 
REMARK  10 active torsions:
REMARK  status: ('A' for Active; 'I' for Inactive)
REMARK    1  A    between atoms: C_2  and  N_3
REMARK    2  A    between atoms: C_2  and  C_4
REMARK    3  A    between atoms: C_2  and  C_28
REMARK    4  A    between atoms: C_4  and  S_5
REMARK    5  A    between atoms: S_5  and  C_6
REMARK    6  A    between atoms: C_6  and  C_7
REMARK    7  A    between atoms: C_7  and  C_8
REMARK    8  A    between atoms: N_10  and  C_11
REMARK    9  A    between atoms: N_21  and  C_22
REMARK   10  A    between atoms: C_28  and  O_29
REMARK                            x       y       z     vdW  Elec       q    Type
REMARK                         _______ _______ _______ _____ _____    ______ ____
ROOT
ATOM      1  C   UNK     1       7.445  -2.475  23.043  0.00  0.00    +0.034 A 
ATOM      2  C   UNK     1       8.809  -2.664  22.854  0.00  0.00    +0.025 A 
ATOM      3  C   UNK     1       9.621  -1.574  22.514  0.00  0.00    +0.030 A 
ATOM      4  C   UNK     1       9.111  -0.289  22.379  0.00  0.00    +0.076 A 
ATOM      5  N   UNK     1       9.946   0.686  22.018  0.00  0.00    -0.235 NA
ATOM      6  C   UNK     1       9.420   1.907  21.915  0.00  0.00    +0.223 A 
ATOM      7  N   UNK     1       8.152   2.242  22.160  0.00  0.00    -0.220 NA
ATOM      8  C   UNK     1       7.307   1.264  22.529  0.00  0.00    +0.134 A 
ATOM      9  N   UNK     1       5.989   1.595  22.926  0.00  0.00    -0.299 N 
ATOM     10  H   UNK     1       5.341   0.821  22.928  0.00  0.00    +0.154 HD
ATOM     11  C   UNK     1       7.750  -0.071  22.633  0.00  0.00    +0.042 A 
ATOM     12  C   UNK     1       6.938  -1.181  22.975  0.00  0.00    +0.036 A 
ENDROOT
BRANCH   9  13
ATOM     13  C   UNK     1       5.372   2.822  23.229  0.00  0.00    +0.032 A 
ATOM     14  C   UNK     1       5.829   3.531  24.354  0.00  0.00    +0.023 A 
ATOM     15  C   UNK     1       5.387   4.828  24.625  0.00  0.00    +0.002 A 
ATOM     16  C   UNK     1       4.470   5.440  23.775  0.00  0.00    +0.000 A 
ATOM     17  C   UNK     1       3.979   4.743  22.677  0.00  0.00    +0.002 A 
ATOM     18  C   UNK     1       4.428   3.447  22.409  0.00  0.00    +0.023 A 
ENDBRANCH   9  13
BRANCH   1  20
ATOM     19  C   UNK     1       5.793  -4.202  22.359  0.00  0.00    +0.218 C 
ATOM     20  N   UNK     1       6.632  -3.600  23.286  0.00  0.00    -0.285 N 
ATOM     21  H   UNK     1       6.788  -4.087  24.159  0.00  0.00    +0.155 HD
ATOM     22  O   UNK     1       5.659  -3.881  21.182  0.00  0.00    -0.275 OA
BRANCH  19  23
ATOM     23  C   UNK     1       5.018  -5.369  22.918  0.00  0.00    +0.107 C 
BRANCH  23  24
ATOM     24  C   UNK     1       3.641  -4.921  23.375  0.00  0.00    +0.078 C 
BRANCH  24  25
ATOM     25  S   UNK     1       3.400  -5.459  25.093  0.00  0.00    -0.158 S 
BRANCH  25  26
ATOM     26  C   UNK     1       5.101  -6.048  25.438  0.00  0.00    +0.099 C 
BRANCH  26  27
ATOM     27  C   UNK     1       5.830  -5.135  26.434  0.00  0.00    +0.170 C 
BRANCH  27  28
ATOM     28  N   UNK     1       5.496  -3.709  26.209  0.00  0.00    -0.318 NA
ATOM     29  H   UNK     1       6.125  -3.072  26.687  0.00  0.00    +0.119 HD
ATOM     30  H   UNK     1       5.357  -3.496  25.222  0.00  0.00    +0.119 HD
ENDBRANCH  27  28
BRANCH  27  31
ATOM     31  C   UNK     1       7.340  -5.413  26.391  0.00  0.00    +0.323 C 
ATOM     32  O   UNK     1       8.036  -5.227  25.403  0.00  0.00    -0.249 OA
BRANCH  31  33
ATOM     33  O   UNK     1       7.850  -5.889  27.552  0.00  0.00    -0.480 OA
ATOM     34  H   UNK     1       8.806  -6.059  27.459  0.00  0.00    +0.295 HD
ENDBRANCH  31  33
ENDBRANCH  27  31
ENDBRANCH  26  27
ENDBRANCH  25  26
ENDBRANCH  24  25
ENDBRANCH  23  24
ENDBRANCH  19  23
ENDBRANCH   1  20
TORSDOF 10
ENDMDL
MODEL 3
REMARK VINA RESULT:      -6.4      3.562      8.357
REMARK  Name = 
REMARK  10 active torsions:
REMARK  status: ('A' for Active; 'I' for Inactive)
REMARK    1  A    between atoms: C_2  and  N_3
REMARK    2  A    between atoms: C_2  and  C_4
REMARK    3  A    between atoms: C_2  and  C_28
REMARK    4  A    between atoms: C_4  and  S_5
REMARK    5  A    between atoms: S_5  and  C_6
REMARK    6  A    between atoms: C_6  and  C_7
REMARK    7  A    between atoms: C_7  and  C_8
REMARK    8  A    between atoms: N_10  and  C_11
REMARK    9  A    between atoms: N_21  and  C_22
REMARK   10  A    between atoms: C_28  and  O_29
REMARK                            x       y       z     vdW  Elec       q    Type
REMARK                         _______ _______ _______ _____ _____    ______ ____
ROOT
ATOM      1  C   UNK     1       8.526  -3.805  24.460  0.00  0.00    +0.034 A 
ATOM      2  C   UNK     1       9.287  -4.367  25.479  0.00  0.00    +0.025 A 
ATOM      3  C   UNK     1       8.658  -5.113  26.484  0.00  0.00    +0.030 A 
ATOM      4  C   UNK     1       7.288  -5.334  26.490  0.00  0.00    +0.076 A 
ATOM      5  N   UNK     1       6.764  -6.024  27.504  0.00  0.00    -0.235 NA
ATOM      6  C   UNK     1       5.447  -6.228  27.464  0.00  0.00    +0.223 A 
ATOM      7  N   UNK     1       4.617  -5.827  26.499  0.00  0.00    -0.220 NA
ATOM      8  C   UNK     1       5.139  -5.134  25.473  0.00  0.00    +0.134 A 
ATOM      9  N   UNK     1       4.320  -4.805  24.366  0.00  0.00    -0.299 N 
ATOM     10  H   UNK     1       4.685  -4.074  23.773  0.00  0.00    +0.154 HD
ATOM     11  C   UNK     1       6.516  -4.831  25.433  0.00  0.00    +0.042 A 
ATOM     12  C   UNK     1       7.162  -4.077  24.422  0.00  0.00    +0.036 A 
ENDROOT
BRANCH   9  13
ATOM     13  C   UNK     1       3.038  -5.233  23.977  0.00  0.00    +0.032 A 
ATOM     14  C   UNK     1       1.933  -4.465  24.386  0.00  0.00    +0.023 A 
ATOM     15  C   UNK     1       0.649  -4.726  23.903  0.00  0.00    +0.002 A 
ATOM     16  C   UNK     1       0.443  -5.769  23.005  0.00  0.00    +0.000 A 
ATOM     17  C   UNK     1       1.517  -6.562  22.616  0.00  0.00    +0.002 A 
ATOM     18  C   UNK     1       2.801  -6.294  23.099  0.00  0.00    +0.023 A 
ENDBRANCH   9  13
BRANCH   1  20
ATOM     19  C   UNK     1       9.678  -1.713  23.769  0.00  0.00    +0.218 C 
ATOM     20  N   UNK     1       9.164  -2.977  23.515  0.00  0.00    -0.285 N 
ATOM     21  H   UNK     1       9.391  -3.402  22.625  0.00  0.00    +0.155 HD
ATOM     22  O   UNK     1       9.698  -1.140  24.854  0.00  0.00    -0.275 OA
BRANCH  19  23
ATOM     23  C   UNK     1      10.273  -1.049  22.552  0.00  0.00    +0.107 C 
BRANCH  23  24
ATOM     24  C   UNK     1       9.200  -0.801  21.506  0.00  0.00    +0.078 C 
BRANCH  24  25
ATOM     25  S   UNK     1       8.816   0.973  21.483  0.00  0.00    -0.158 S 
BRANCH  25  26
ATOM     26  C   UNK     1      10.232   1.574  22.481  0.00  0.00    +0.099 C 
BRANCH  26  27
ATOM     27  C   UNK     1       9.940   2.939  23.121  0.00  0.00    +0.170 C 
BRANCH  27  28
ATOM     28  N   UNK     1      11.168   3.759  23.237  0.00  0.00    -0.318 NA
ATOM     29  H   UNK     1      11.420   4.226  22.372  0.00  0.00    +0.119 HD
ATOM     30  H   UNK     1      11.147   4.373  24.051  0.00  0.00    +0.119 HD
ENDBRANCH  27  28
BRANCH  27  31
ATOM     31  C   UNK     1       9.215   2.745  24.460  0.00  0.00    +0.323 C 
ATOM     32  O   UNK     1       8.413   3.545  24.921  0.00  0.00    -0.249 OA
BRANCH  31  33
ATOM     33  O   UNK     1       9.538   1.598  25.105  0.00  0.00    -0.480 OA
ATOM     34  H   UNK     1       9.296   1.659  26.048  0.00  0.00    +0.295 HD
ENDBRANCH  31  33
ENDBRANCH  27  31
ENDBRANCH  26  27
ENDBRANCH  25  26
ENDBRANCH  24  25
ENDBRANCH  23  24
ENDBRANCH  19  23
ENDBRANCH   1  20
TORSDOF 10
ENDMDL
MODEL 4
REMARK VINA RESULT:      -6.4      4.654      8.791
REMARK  Name = 
REMARK  10 active torsions:
REMARK  status: ('A' for Active; 'I' for Inactive)
REMARK    1  A    between atoms: C_2  and  N_3
REMARK    2  A    between atoms: C_2  and  C_4
REMARK    3  A    between atoms: C_2  and  C_28
REMARK    4  A    between atoms: C_4  and  S_5
REMARK    5  A    between atoms: S_5  and  C_6
REMARK    6  A    between atoms: C_6  and  C_7
REMARK    7  A    between atoms: C_7  and  C_8
REMARK    8  A    between atoms: N_10  and  C_11
REMARK    9  A    between atoms: N_21  and  C_22
REMARK   10  A    between atoms: C_28  and  O_29
REMARK                            x       y       z     vdW  Elec       q    Type
REMARK                         _______ _______ _______ _____ _____    ______ ____
ROOT
ATOM      1  C   UNK     1       7.370   2.017  22.199  0.00  0.00    +0.034 A 
ATOM      2  C   UNK     1       8.684   2.408  21.972  0.00  0.00    +0.025 A 
ATOM      3  C   UNK     1       9.721   1.479  22.127  0.00  0.00    +0.030 A 
ATOM      4  C   UNK     1       9.481   0.159  22.482  0.00  0.00    +0.076 A 
ATOM      5  N   UNK     1      10.528  -0.651  22.644  0.00  0.00    -0.235 NA
ATOM      6  C   UNK     1      10.254  -1.915  22.970  0.00  0.00    +0.223 A 
ATOM      7  N   UNK     1       9.037  -2.442  23.125  0.00  0.00    -0.220 NA
ATOM      8  C   UNK     1       7.979  -1.632  22.959  0.00  0.00    +0.134 A 
ATOM      9  N   UNK     1       6.673  -2.178  22.983  0.00  0.00    -0.299 N 
ATOM     10  H   UNK     1       5.935  -1.503  23.122  0.00  0.00    +0.154 HD
ATOM     11  C   UNK     1       8.156  -0.267  22.648  0.00  0.00    +0.042 A 
ATOM     12  C   UNK     1       7.115   0.680  22.491  0.00  0.00    +0.036 A 
ENDROOT
BRANCH   9  13
ATOM     13  C   UNK     1       6.200  -3.502  22.948  0.00  0.00    +0.032 A 
ATOM     14  C   UNK     1       6.262  -4.193  21.725  0.00  0.00    +0.023 A 
ATOM     15  C   UNK     1       5.970  -5.557  21.645  0.00  0.00    +0.002 A 
ATOM     16  C   UNK     1       5.604  -6.256  22.791  0.00  0.00    +0.000 A 
ATOM     17  C   UNK     1       5.503  -5.583  24.004  0.00  0.00    +0.002 A 
ATOM     18  C   UNK     1       5.799  -4.219  24.078  0.00  0.00    +0.023 A 
ENDBRANCH   9  13
BRANCH   1  20
ATOM     19  C   UNK     1       5.734   3.582  23.227  0.00  0.00    +0.218 C 
ATOM     20  N   UNK     1       6.353   2.990  22.135  0.00  0.00    -0.285 N 
ATOM     21  H   UNK     1       6.168   3.389  21.222  0.00  0.00    +0.155 HD
ATOM     22  O   UNK     1       6.000   3.386  24.408  0.00  0.00    -0.275 OA
BRANCH  19  23
ATOM     23  C   UNK     1       4.654   4.564  22.848  0.00  0.00    +0.107 C 
BRANCH  23  24
ATOM     24  C   UNK     1       4.675   5.762  23.782  0.00  0.00    +0.078 C 
BRANCH  24  25
ATOM     25  S   UNK     1       5.598   7.104  22.979  0.00  0.00    -0.158 S 
BRANCH  25  26
ATOM     26  C   UNK     1       7.154   6.981  23.942  0.00  0.00    +0.099 C 
BRANCH  26  27
ATOM     27  C   UNK     1       8.319   6.473  23.080  0.00  0.00    +0.170 C 
BRANCH  27  28
ATOM     28  N   UNK     1       7.846   5.972  21.769  0.00  0.00    -0.318 NA
ATOM     29  H   UNK     1       6.845   5.808  21.741  0.00  0.00    +0.119 HD
ATOM     30  H   UNK     1       8.198   6.530  20.992  0.00  0.00    +0.119 HD
ENDBRANCH  27  28
BRANCH  27  31
ATOM     31  C   UNK     1       9.135   5.436  23.863  0.00  0.00    +0.323 C 
ATOM     32  O   UNK     1      10.292   5.141  23.597  0.00  0.00    -0.249 OA
BRANCH  31  33
ATOM     33  O   UNK     1       8.465   4.862  24.891  0.00  0.00    -0.480 OA
ATOM     34  H   UNK     1       7.763   4.275  24.554  0.00  0.00    +0.295 HD
ENDBRANCH  31  33
ENDBRANCH  27  31
ENDBRANCH  26  27
ENDBRANCH  25  26
ENDBRANCH  24  25
ENDBRANCH  23  24
ENDBRANCH  19  23
ENDBRANCH   1  20
TORSDOF 10
ENDMDL
MODEL 5
REMARK VINA RESULT:      -6.4      1.863      2.893
REMARK  Name = 
REMARK  10 active torsions:
REMARK  status: ('A' for Active; 'I' for Inactive)
REMARK    1  A    between atoms: C_2  and  N_3
REMARK    2  A    between atoms: C_2  and  C_4
REMARK    3  A    between atoms: C_2  and  C_28
REMARK    4  A    between atoms: C_4  and  S_5
REMARK    5  A    between atoms: S_5  and  C_6
REMARK    6  A    between atoms: C_6  and  C_7
REMARK    7  A    between atoms: C_7  and  C_8
REMARK    8  A    between atoms: N_10  and  C_11
REMARK    9  A    between atoms: N_21  and  C_22
REMARK   10  A    between atoms: C_28  and  O_29
REMARK                            x       y       z     vdW  Elec       q    Type
REMARK                         _______ _______ _______ _____ _____    ______ ____
ROOT
ATOM      1  C   UNK     1       6.066  -2.374  24.163  0.00  0.00    +0.034 A 
ATOM      2  C   UNK     1       6.912  -3.434  23.855  0.00  0.00    +0.025 A 
ATOM      3  C   UNK     1       8.065  -3.203  23.094  0.00  0.00    +0.030 A 
ATOM      4  C   UNK     1       8.412  -1.935  22.648  0.00  0.00    +0.076 A 
ATOM      5  N   UNK     1       9.507  -1.809  21.897  0.00  0.00    -0.235 NA
ATOM      6  C   UNK     1       9.815  -0.572  21.503  0.00  0.00    +0.223 A 
ATOM      7  N   UNK     1       9.144   0.541  21.807  0.00  0.00    -0.220 NA
ATOM      8  C   UNK     1       8.043   0.420  22.566  0.00  0.00    +0.134 A 
ATOM      9  N   UNK     1       7.379   1.585  23.021  0.00  0.00    -0.299 N 
ATOM     10  H   UNK     1       6.435   1.433  23.346  0.00  0.00    +0.154 HD
ATOM     11  C   UNK     1       7.606  -0.846  23.008  0.00  0.00    +0.042 A 
ATOM     12  C   UNK     1       6.442  -1.091  23.777  0.00  0.00    +0.036 A 
ENDROOT
BRANCH   9  13
ATOM     13  C   UNK     1       7.743   2.943  23.020  0.00  0.00    +0.032 A 
ATOM     14  C   UNK     1       7.039   3.815  22.170  0.00  0.00    +0.023 A 
ATOM     15  C   UNK     1       7.226   5.198  22.233  0.00  0.00    +0.002 A 
ATOM     16  C   UNK     1       8.127   5.737  23.146  0.00  0.00    +0.000 A 
ATOM     17  C   UNK     1       8.859   4.889  23.971  0.00  0.00    +0.002 A 
ATOM     18  C   UNK     1       8.666   3.506  23.906  0.00  0.00    +0.023 A 
ENDBRANCH   9  13
BRANCH   1  20
ATOM     19  C   UNK     1       4.705  -2.668  26.223  0.00  0.00    +0.218 C 
ATOM     20  N   UNK     1       4.863  -2.643  24.844  0.00  0.00    -0.285 N 
ATOM     21  H   UNK     1       4.023  -2.674  24.279  0.00  0.00    +0.155 HD
ATOM     22  O   UNK     1       5.569  -2.421  27.059  0.00  0.00    -0.275 OA
BRANCH  19  23
ATOM     23  C   UNK     1       3.306  -3.021  26.663  0.00  0.00    +0.107 C 
BRANCH  23  24
ATOM     24  C   UNK     1       2.929  -4.408  26.171  0.00  0.00    +0.078 C 
BRANCH  24  25
ATOM     25  S   UNK     1       3.981  -5.624  27.014  0.00  0.00    -0.158 S 
BRANCH  25  26
ATOM     26  C   UNK     1       4.757  -6.386  25.538  0.00  0.00    +0.099 C 
BRANCH  26  27
ATOM     27  C   UNK     1       3.758  -6.535  24.381  0.00  0.00    +0.170 C 
BRANCH  27  28
ATOM     28  N   UNK     1       3.397  -7.954  24.154  0.00  0.00    -0.318 NA
ATOM     29  H   UNK     1       2.585  -8.068  23.555  0.00  0.00    +0.119 HD
ATOM     30  H   UNK     1       4.200  -8.518  23.879  0.00  0.00    +0.119 HD
ENDBRANCH  27  28
BRANCH  27  31
ATOM     31  C   UNK     1       4.307  -5.845  23.124  0.00  0.00    +0.323 C 
ATOM     32  O   UNK     1       3.892  -4.775  22.701  0.00  0.00    -0.249 OA
BRANCH  31  33
ATOM     33  O   UNK     1       5.305  -6.523  22.508  0.00  0.00    -0.480 OA
ATOM     34  H   UNK     1       5.234  -7.477  22.696  0.00  0.00    +0.295 HD
ENDBRANCH  31  33
ENDBRANCH  27  31
ENDBRANCH  26  27
ENDBRANCH  25  26
ENDBRANCH  24  25
ENDBRANCH  23  24
ENDBRANCH  19  23
ENDBRANCH   1  20
TORSDOF 10
ENDMDL
MODEL 6
REMARK VINA RESULT:      -6.3      1.341      2.742
REMARK  Name = 
REMARK  10 active torsions:
REMARK  status: ('A' for Active; 'I' for Inactive)
REMARK    1  A    between atoms: C_2  and  N_3
REMARK    2  A    between atoms: C_2  and  C_4
REMARK    3  A    between atoms: C_2  and  C_28
REMARK    4  A    between atoms: C_4  and  S_5
REMARK    5  A    between atoms: S_5  and  C_6
REMARK    6  A    between atoms: C_6  and  C_7
REMARK    7  A    between atoms: C_7  and  C_8
REMARK    8  A    between atoms: N_10  and  C_11
REMARK    9  A    between atoms: N_21  and  C_22
REMARK   10  A    between atoms: C_28  and  O_29
REMARK                            x       y       z     vdW  Elec       q    Type
REMARK                         _______ _______ _______ _____ _____    ______ ____
ROOT
ATOM      1  C   UNK     1       7.082  -3.639  25.799  0.00  0.00    +0.034 A 
ATOM      2  C   UNK     1       8.176  -4.490  25.684  0.00  0.00    +0.025 A 
ATOM      3  C   UNK     1       9.239  -4.143  24.841  0.00  0.00    +0.030 A 
ATOM      4  C   UNK     1       9.253  -2.956  24.122  0.00  0.00    +0.076 A 
ATOM      5  N   UNK     1      10.287  -2.719  23.314  0.00  0.00    -0.235 NA
ATOM      6  C   UNK     1      10.270  -1.560  22.654  0.00  0.00    +0.223 A 
ATOM      7  N   UNK     1       9.332  -0.616  22.745  0.00  0.00    -0.220 NA
ATOM      8  C   UNK     1       8.290  -0.847  23.561  0.00  0.00    +0.134 A 
ATOM      9  N   UNK     1       7.343   0.181  23.789  0.00  0.00    -0.299 N 
ATOM     10  H   UNK     1       6.466  -0.132  24.181  0.00  0.00    +0.154 HD
ATOM     11  C   UNK     1       8.190  -2.056  24.280  0.00  0.00    +0.042 A 
ATOM     12  C   UNK     1       7.118  -2.417  25.134  0.00  0.00    +0.036 A 
ENDROOT
BRANCH   9  13
ATOM     13  C   UNK     1       7.345   1.554  23.486  0.00  0.00    +0.032 A 
ATOM     14  C   UNK     1       8.141   2.403  24.274  0.00  0.00    +0.023 A 
ATOM     15  C   UNK     1       8.328   3.746  23.934  0.00  0.00    +0.002 A 
ATOM     16  C   UNK     1       7.714   4.267  22.799  0.00  0.00    +0.000 A 
ATOM     17  C   UNK     1       6.894   3.452  22.026  0.00  0.00    +0.002 A 
ATOM     18  C   UNK     1       6.714   2.109  22.369  0.00  0.00    +0.023 A 
ENDBRANCH   9  13
BRANCH   1  20
ATOM     19  C   UNK     1       5.558  -5.364  26.739  0.00  0.00    +0.218 C 
ATOM     20  N   UNK     1       5.981  -4.052  26.575  0.00  0.00    -0.285 N 
ATOM     21  H   UNK     1       5.561  -3.349  27.170  0.00  0.00    +0.155 HD
ATOM     22  O   UNK     1       6.096  -6.365  26.276  0.00  0.00    -0.275 OA
BRANCH  19  23
ATOM     23  C   UNK     1       4.326  -5.496  27.599  0.00  0.00    +0.107 C 
BRANCH  23  24
ATOM     24  C   UNK     1       3.124  -4.884  26.901  0.00  0.00    +0.078 C 
BRANCH  24  25
ATOM     25  S   UNK     1       2.559  -6.032  25.613  0.00  0.00    -0.158 S 
BRANCH  25  26
ATOM     26  C   UNK     1       3.127  -5.096  24.142  0.00  0.00    +0.099 C 
BRANCH  26  27
ATOM     27  C   UNK     1       4.024  -5.951  23.234  0.00  0.00    +0.170 C 
BRANCH  27  28
ATOM     28  N   UNK     1       4.389  -7.232  23.881  0.00  0.00    -0.318 NA
ATOM     29  H   UNK     1       5.387  -7.331  24.035  0.00  0.00    +0.119 HD
ATOM     30  H   UNK     1       3.820  -7.425  24.705  0.00  0.00    +0.119 HD
ENDBRANCH  27  28
BRANCH  27  31
ATOM     31  C   UNK     1       5.244  -5.133  22.786  0.00  0.00    +0.323 C 
ATOM     32  O   UNK     1       6.395  -5.542  22.849  0.00  0.00    -0.249 OA
BRANCH  31  33
ATOM     33  O   UNK     1       4.942  -3.903  22.306  0.00  0.00    -0.480 OA
ATOM     34  H   UNK     1       5.613  -3.253  22.589  0.00  0.00    +0.295 HD
ENDBRANCH  31  33
ENDBRANCH  27  31
ENDBRANCH  26  27
ENDBRANCH  25  26
ENDBRANCH  24  25
ENDBRANCH  23  24
ENDBRANCH  19  23
ENDBRANCH   1  20
TORSDOF 10
ENDMDL
MODEL 7
REMARK VINA RESULT:      -6.3      2.504      3.678
REMARK  Name = 
REMARK  10 active torsions:
REMARK  status: ('A' for Active; 'I' for Inactive)
REMARK    1  A    between atoms: C_2  and  N_3
REMARK    2  A    between atoms: C_2  and  C_4
REMARK    3  A    between atoms: C_2  and  C_28
REMARK    4  A    between atoms: C_4  and  S_5
REMARK    5  A    between atoms: S_5  and  C_6
REMARK    6  A    between atoms: C_6  and  C_7
REMARK    7  A    between atoms: C_7  and  C_8
REMARK    8  A    between atoms: N_10  and  C_11
REMARK    9  A    between atoms: N_21  and  C_22
REMARK   10  A    between atoms: C_28  and  O_29
REMARK                            x       y       z     vdW  Elec       q    Type
REMARK                         _______ _______ _______ _____ _____    ______ ____
ROOT
ATOM      1  C   UNK     1       8.279  -0.932  22.850  0.00  0.00    +0.034 A 
ATOM      2  C   UNK     1       9.503  -1.280  23.409  0.00  0.00    +0.025 A 
ATOM      3  C   UNK     1      10.426  -0.278  23.737  0.00  0.00    +0.030 A 
ATOM      4  C   UNK     1      10.152   1.069  23.542  0.00  0.00    +0.076 A 
ATOM      5  N   UNK     1      11.100   1.956  23.848  0.00  0.00    -0.235 NA
ATOM      6  C   UNK     1      10.791   3.240  23.661  0.00  0.00    +0.223 A 
ATOM      7  N   UNK     1       9.623   3.713  23.222  0.00  0.00    -0.220 NA
ATOM      8  C   UNK     1       8.663   2.824  22.917  0.00  0.00    +0.134 A 
ATOM      9  N   UNK     1       7.369   3.286  22.575  0.00  0.00    -0.299 N 
ATOM     10  H   UNK     1       6.788   2.606  22.106  0.00  0.00    +0.154 HD
ATOM     11  C   UNK     1       8.896   1.439  23.043  0.00  0.00    +0.042 A 
ATOM     12  C   UNK     1       7.970   0.418  22.713  0.00  0.00    +0.036 A 
ENDROOT
BRANCH   9  13
ATOM     13  C   UNK     1       6.758   4.549  22.674  0.00  0.00    +0.032 A 
ATOM     14  C   UNK     1       5.804   4.743  23.690  0.00  0.00    +0.023 A 
ATOM     15  C   UNK     1       5.278   6.009  23.960  0.00  0.00    +0.002 A 
ATOM     16  C   UNK     1       5.693   7.107  23.212  0.00  0.00    +0.000 A 
ATOM     17  C   UNK     1       6.609   6.930  22.180  0.00  0.00    +0.002 A 
ATOM     18  C   UNK     1       7.134   5.661  21.917  0.00  0.00    +0.023 A 
ENDBRANCH   9  13
BRANCH   1  20
ATOM     19  C   UNK     1       6.287  -2.393  23.131  0.00  0.00    +0.218 C 
ATOM     20  N   UNK     1       7.408  -1.959  22.436  0.00  0.00    -0.285 N 
ATOM     21  H   UNK     1       7.530  -2.300  21.491  0.00  0.00    +0.155 HD
ATOM     22  O   UNK     1       5.858  -1.929  24.182  0.00  0.00    -0.275 OA
BRANCH  19  23
ATOM     23  C   UNK     1       5.566  -3.535  22.458  0.00  0.00    +0.107 C 
BRANCH  23  24
ATOM     24  C   UNK     1       4.625  -4.216  23.435  0.00  0.00    +0.078 C 
BRANCH  24  25
ATOM     25  S   UNK     1       5.411  -5.742  24.026  0.00  0.00    -0.158 S 
BRANCH  25  26
ATOM     26  C   UNK     1       5.977  -5.144  25.664  0.00  0.00    +0.099 C 
BRANCH  26  27
ATOM     27  C   UNK     1       7.451  -5.487  25.919  0.00  0.00    +0.170 C 
BRANCH  27  28
ATOM     28  N   UNK     1       7.717  -5.712  27.359  0.00  0.00    -0.318 NA
ATOM     29  H   UNK     1       7.040  -6.328  27.798  0.00  0.00    +0.119 HD
ATOM     30  H   UNK     1       8.688  -5.965  27.538  0.00  0.00    +0.119 HD
ENDBRANCH  27  28
BRANCH  27  31
ATOM     31  C   UNK     1       8.353  -4.408  25.302  0.00  0.00    +0.323 C 
ATOM     32  O   UNK     1       9.117  -4.614  24.369  0.00  0.00    -0.249 OA
BRANCH  31  33
ATOM     33  O   UNK     1       8.235  -3.188  25.879  0.00  0.00    -0.480 OA
ATOM     34  H   UNK     1       7.724  -2.588  25.305  0.00  0.00    +0.295 HD
ENDBRANCH  31  33
ENDBRANCH  27  31
ENDBRANCH  26  27
ENDBRANCH  25  26
ENDBRANCH  24  25
ENDBRANCH  23  24
ENDBRANCH  19  23
ENDBRANCH   1  20
TORSDOF 10
ENDMDL
MODEL 8
REMARK VINA RESULT:      -6.3      3.837      8.078
REMARK  Name = 
REMARK  10 active torsions:
REMARK  status: ('A' for Active; 'I' for Inactive)
REMARK    1  A    between atoms: C_2  and  N_3
REMARK    2  A    between atoms: C_2  and  C_4
REMARK    3  A    between atoms: C_2  and  C_28
REMARK    4  A    between atoms: C_4  and  S_5
REMARK    5  A    between atoms: S_5  and  C_6
REMARK    6  A    between atoms: C_6  and  C_7
REMARK    7  A    between atoms: C_7  and  C_8
REMARK    8  A    between atoms: N_10  and  C_11
REMARK    9  A    between atoms: N_21  and  C_22
REMARK   10  A    between atoms: C_28  and  O_29
REMARK                            x       y       z     vdW  Elec       q    Type
REMARK                         _______ _______ _______ _____ _____    ______ ____
ROOT
ATOM      1  C   UNK     1       7.203  -4.370  22.926  0.00  0.00    +0.034 A 
ATOM      2  C   UNK     1       6.652  -5.256  22.008  0.00  0.00    +0.025 A 
ATOM      3  C   UNK     1       5.708  -6.199  22.434  0.00  0.00    +0.030 A 
ATOM      4  C   UNK     1       5.279  -6.269  23.753  0.00  0.00    +0.076 A 
ATOM      5  N   UNK     1       4.404  -7.220  24.082  0.00  0.00    -0.235 NA
ATOM      6  C   UNK     1       4.005  -7.242  25.355  0.00  0.00    +0.223 A 
ATOM      7  N   UNK     1       4.382  -6.394  26.313  0.00  0.00    -0.220 NA
ATOM      8  C   UNK     1       5.260  -5.431  25.986  0.00  0.00    +0.134 A 
ATOM      9  N   UNK     1       5.584  -4.432  26.935  0.00  0.00    -0.299 N 
ATOM     10  H   UNK     1       6.427  -3.914  26.732  0.00  0.00    +0.154 HD
ATOM     11  C   UNK     1       5.775  -5.338  24.676  0.00  0.00    +0.042 A 
ATOM     12  C   UNK     1       6.730  -4.390  24.235  0.00  0.00    +0.036 A 
ENDROOT
BRANCH   9  13
ATOM     13  C   UNK     1       5.012  -4.079  28.170  0.00  0.00    +0.032 A 
ATOM     14  C   UNK     1       4.213  -2.922  28.221  0.00  0.00    +0.023 A 
ATOM     15  C   UNK     1       3.476  -2.598  29.363  0.00  0.00    +0.002 A 
ATOM     16  C   UNK     1       3.529  -3.423  30.481  0.00  0.00    +0.000 A 
ATOM     17  C   UNK     1       4.341  -4.553  30.464  0.00  0.00    +0.002 A 
ATOM     18  C   UNK     1       5.073  -4.874  29.318  0.00  0.00    +0.023 A 
ENDBRANCH   9  13
BRANCH   1  20
ATOM     19  C   UNK     1       8.108  -2.119  22.384  0.00  0.00    +0.218 C 
ATOM     20  N   UNK     1       8.223  -3.497  22.498  0.00  0.00    -0.285 N 
ATOM     21  H   UNK     1       9.149  -3.897  22.408  0.00  0.00    +0.155 HD
ATOM     22  O   UNK     1       7.126  -1.444  22.677  0.00  0.00    -0.275 OA
BRANCH  19  23
ATOM     23  C   UNK     1       9.357  -1.451  21.865  0.00  0.00    +0.107 C 
BRANCH  23  24
ATOM     24  C   UNK     1      10.482  -1.568  22.879  0.00  0.00    +0.078 C 
BRANCH  24  25
ATOM     25  S   UNK     1       9.895  -0.918  24.469  0.00  0.00    -0.158 S 
BRANCH  25  26
ATOM     26  C   UNK     1      10.821   0.665  24.477  0.00  0.00    +0.099 C 
BRANCH  26  27
ATOM     27  C   UNK     1       9.909   1.860  24.163  0.00  0.00    +0.170 C 
BRANCH  27  28
ATOM     28  N   UNK     1       8.546   1.420  23.787  0.00  0.00    -0.318 NA
ATOM     29  H   UNK     1       8.525   0.868  22.935  0.00  0.00    +0.119 HD
ATOM     30  H   UNK     1       8.047   0.996  24.569  0.00  0.00    +0.119 HD
ENDBRANCH  27  28
BRANCH  27  31
ATOM     31  C   UNK     1      10.568   2.755  23.104  0.00  0.00    +0.323 C 
ATOM     32  O   UNK     1      11.378   3.633  23.365  0.00  0.00    -0.249 OA
BRANCH  31  33
ATOM     33  O   UNK     1      10.176   2.494  21.834  0.00  0.00    -0.480 OA
ATOM     34  H   UNK     1      10.856   2.788  21.200  0.00  0.00    +0.295 HD
ENDBRANCH  31  33
ENDBRANCH  27  31
ENDBRANCH  26  27
ENDBRANCH  25  26
ENDBRANCH  24  25
ENDBRANCH  23  24
ENDBRANCH  19  23
ENDBRANCH   1  20
TORSDOF 10
ENDMDL
MODEL 9
REMARK VINA RESULT:      -6.2      3.928      8.311
REMARK  Name = 
REMARK  10 active torsions:
REMARK  status: ('A' for Active; 'I' for Inactive)
REMARK    1  A    between atoms: C_2  and  N_3
REMARK    2  A    between atoms: C_2  and  C_4
REMARK    3  A    between atoms: C_2  and  C_28
REMARK    4  A    between atoms: C_4  and  S_5
REMARK    5  A    between atoms: S_5  and  C_6
REMARK    6  A    between atoms: C_6  and  C_7
REMARK    7  A    between atoms: C_7  and  C_8
REMARK    8  A    between atoms: N_10  and  C_11
REMARK    9  A    between atoms: N_21  and  C_22
REMARK   10  A    between atoms: C_28  and  O_29
REMARK                            x       y       z     vdW  Elec       q    Type
REMARK                         _______ _______ _______ _____ _____    ______ ____
ROOT
ATOM      1  C   UNK     1       8.298  -0.723  22.837  0.00  0.00    +0.034 A 
ATOM      2  C   UNK     1       9.663  -0.964  22.744  0.00  0.00    +0.025 A 
ATOM      3  C   UNK     1      10.208  -2.112  23.334  0.00  0.00    +0.030 A 
ATOM      4  C   UNK     1       9.421  -3.043  23.999  0.00  0.00    +0.076 A 
ATOM      5  N   UNK     1      10.024  -4.089  24.564  0.00  0.00    -0.235 NA
ATOM      6  C   UNK     1       9.231  -4.968  25.179  0.00  0.00    +0.223 A 
ATOM      7  N   UNK     1       7.900  -4.906  25.260  0.00  0.00    -0.220 NA
ATOM      8  C   UNK     1       7.287  -3.856  24.689  0.00  0.00    +0.134 A 
ATOM      9  N   UNK     1       5.873  -3.818  24.636  0.00  0.00    -0.299 N 
ATOM     10  H   UNK     1       5.481  -2.907  24.447  0.00  0.00    +0.154 HD
ATOM     11  C   UNK     1       8.033  -2.848  24.043  0.00  0.00    +0.042 A 
ATOM     12  C   UNK     1       7.493  -1.683  23.444  0.00  0.00    +0.036 A 
ENDROOT
BRANCH   9  13
ATOM     13  C   UNK     1       4.891  -4.791  24.893  0.00  0.00    +0.032 A 
ATOM     14  C   UNK     1       4.697  -5.803  23.936  0.00  0.00    +0.023 A 
ATOM     15  C   UNK     1       3.864  -6.895  24.191  0.00  0.00    +0.002 A 
ATOM     16  C   UNK     1       3.201  -6.993  25.411  0.00  0.00    +0.000 A 
ATOM     17  C   UNK     1       3.352  -5.985  26.357  0.00  0.00    +0.002 A 
ATOM     18  C   UNK     1       4.189  -4.896  26.097  0.00  0.00    +0.023 A 
ENDBRANCH   9  13
BRANCH   1  20
ATOM     19  C   UNK     1       6.965   1.369  23.010  0.00  0.00    +0.218 C 
ATOM     20  N   UNK     1       7.786   0.485  22.324  0.00  0.00    -0.285 N 
ATOM     21  H   UNK     1       8.169   0.797  21.440  0.00  0.00    +0.155 HD
ATOM     22  O   UNK     1       6.593   1.261  24.175  0.00  0.00    -0.275 OA
BRANCH  19  23
ATOM     23  C   UNK     1       6.546   2.563  22.190  0.00  0.00    +0.107 C 
BRANCH  23  24
ATOM     24  C   UNK     1       6.183   3.728  23.095  0.00  0.00    +0.078 C 
BRANCH  24  25
ATOM     25  S   UNK     1       7.537   4.937  23.050  0.00  0.00    -0.158 S 
BRANCH  25  26
ATOM     26  C   UNK     1       8.579   4.232  24.383  0.00  0.00    +0.099 C 
BRANCH  26  27
ATOM     27  C   UNK     1      10.061   4.185  23.983  0.00  0.00    +0.170 C 
BRANCH  27  28
ATOM     28  N   UNK     1      10.423   5.321  23.104  0.00  0.00    -0.318 NA
ATOM     29  H   UNK     1       9.622   5.742  22.645  0.00  0.00    +0.119 HD
ATOM     30  H   UNK     1      11.034   5.991  23.571  0.00  0.00    +0.119 HD
ENDBRANCH  27  28
BRANCH  27  31
ATOM     31  C   UNK     1      10.394   2.818  23.369  0.00  0.00    +0.323 C 
ATOM     32  O   UNK     1      10.873   1.887  24.002  0.00  0.00    -0.249 OA
BRANCH  31  33
ATOM     33  O   UNK     1      10.109   2.718  22.048  0.00  0.00    -0.480 OA
ATOM     34  H   UNK     1       9.318   2.165  21.911  0.00  0.00    +0.295 HD
ENDBRANCH  31  33
ENDBRANCH  27  31
ENDBRANCH  26  27
ENDBRANCH  25  26
ENDBRANCH  24  25
ENDBRANCH  23  24
ENDBRANCH  19  23
ENDBRANCH   1  20
TORSDOF 10
ENDMDL
