MODEL 1
REMARK VINA RESULT:      -4.3      0.000      0.000
REMARK  Name = 
REMARK  10 active torsions:
REMARK  status: ('A' for Active; 'I' for Inactive)
REMARK    1  A    between atoms: C_1  and  N_2
REMARK    2  A    between atoms: N_2  and  C_3
REMARK    3  A    between atoms: N_2  and  C_4
REMARK    4  A    between atoms: C_4  and  C_5
REMARK    5  A    between atoms: C_5  and  C_6
REMARK    6  A    between atoms: C_6  and  C_7
REMARK    7  A    between atoms: C_7  and  C_8
REMARK    8  A    between atoms: C_8  and  N_10
REMARK    9  A    between atoms: C_8  and  C_11
REMARK   10  A    between atoms: C_11  and  O_12
REMARK                            x       y       z     vdW  Elec       q    Type
REMARK                         _______ _______ _______ _____ _____    ______ ____
ROOT
ATOM      1  C   UNK     1       8.684  -4.602  26.587  0.00  0.00    +0.161 C 
ENDROOT
BRANCH   1   2
ATOM      2  N   UNK     1       7.971  -5.733  27.253  0.00  0.00    -0.318 NA
ATOM      3  H   UNK     1       8.488  -6.594  27.035  0.00  0.00    +0.119 HD
ATOM      4  H   UNK     1       8.092  -5.630  28.264  0.00  0.00    +0.119 HD
ENDBRANCH   1   2
BRANCH   1   5
ATOM      5  C   UNK     1       9.305  -5.136  25.287  0.00  0.00    +0.322 C 
ATOM      6  O   UNK     1       8.716  -5.267  24.226  0.00  0.00    -0.249 OA
BRANCH   5   7
ATOM      7  O   UNK     1      10.605  -5.488  25.475  0.00  0.00    -0.480 OA
ATOM      8  H   UNK     1      11.049  -4.688  25.852  0.00  0.00    +0.295 HD
ENDBRANCH   5   7
ENDBRANCH   1   5
BRANCH   1   9
ATOM      9  C   UNK     1       7.722  -3.460  26.240  0.00  0.00    +0.030 C 
BRANCH   9  10
ATOM     10  C   UNK     1       8.337  -2.071  26.428  0.00  0.00    +0.003 C 
BRANCH  10  11
ATOM     11  C   UNK     1       8.330  -1.276  25.117  0.00  0.00    +0.015 C 
BRANCH  11  12
ATOM     12  C   UNK     1       9.588  -1.520  24.269  0.00  0.00    +0.084 C 
BRANCH  12  14
ATOM     13  C   UNK     1       7.885  -2.213  22.669  0.00  0.00    +0.104 C 
ATOM     14  N   UNK     1       9.317  -2.057  22.923  0.00  0.00    -0.308 NA
ATOM     15  C   UNK     1       9.908  -1.183  21.906  0.00  0.00    +0.104 C 
ENDBRANCH  12  14
ENDBRANCH  11  12
ENDBRANCH  10  11
ENDBRANCH   9  10
ENDBRANCH   1   9
TORSDOF 8
ENDMDL
MODEL 2
REMARK VINA RESULT:      -4.2      2.799      3.630
REMARK  Name = 
REMARK  10 active torsions:
REMARK  status: ('A' for Active; 'I' for Inactive)
REMARK    1  A    between atoms: C_1  and  N_2
REMARK    2  A    between atoms: N_2  and  C_3
REMARK    3  A    between atoms: N_2  and  C_4
REMARK    4  A    between atoms: C_4  and  C_5
REMARK    5  A    between atoms: C_5  and  C_6
REMARK    6  A    between atoms: C_6  and  C_7
REMARK    7  A    between atoms: C_7  and  C_8
REMARK    8  A    between atoms: C_8  and  N_10
REMARK    9  A    between atoms: C_8  and  C_11
REMARK   10  A    between atoms: C_11  and  O_12
REMARK                            x       y       z     vdW  Elec       q    Type
REMARK                         _______ _______ _______ _____ _____    ______ ____
ROOT
ATOM      1  C   UNK     1       8.064  -4.761  26.274  0.00  0.00    +0.161 C 
ENDROOT
BRANCH   1   2
ATOM      2  N   UNK     1       7.938  -5.814  27.326  0.00  0.00    -0.318 NA
ATOM      3  H   UNK     1       7.049  -5.656  27.816  0.00  0.00    +0.119 HD
ATOM      4  H   UNK     1       7.797  -6.712  26.858  0.00  0.00    +0.119 HD
ENDBRANCH   1   2
BRANCH   1   5
ATOM      5  C   UNK     1       9.061  -5.264  25.220  0.00  0.00    +0.322 C 
ATOM      6  O   UNK     1       8.819  -5.408  24.032  0.00  0.00    -0.249 OA
BRANCH   5   7
ATOM      7  O   UNK     1      10.258  -5.570  25.787  0.00  0.00    -0.480 OA
ATOM      8  H   UNK     1      10.131  -5.461  26.762  0.00  0.00    +0.295 HD
ENDBRANCH   5   7
ENDBRANCH   1   5
BRANCH   1   9
ATOM      9  C   UNK     1       6.718  -4.490  25.590  0.00  0.00    +0.030 C 
BRANCH   9  10
ATOM     10  C   UNK     1       5.767  -5.688  25.628  0.00  0.00    +0.003 C 
BRANCH  10  11
ATOM     11  C   UNK     1       5.192  -5.988  24.239  0.00  0.00    +0.015 C 
BRANCH  11  12
ATOM     12  C   UNK     1       4.545  -4.756  23.587  0.00  0.00    +0.084 C 
BRANCH  12  14
ATOM     13  C   UNK     1       5.672  -3.160  22.130  0.00  0.00    +0.104 C 
ATOM     14  N   UNK     1       5.024  -4.469  22.222  0.00  0.00    -0.308 NA
ATOM     15  C   UNK     1       5.953  -5.514  21.786  0.00  0.00    +0.104 C 
ENDBRANCH  12  14
ENDBRANCH  11  12
ENDBRANCH  10  11
ENDBRANCH   9  10
ENDBRANCH   1   9
TORSDOF 8
ENDMDL
MODEL 3
REMARK VINA RESULT:      -4.1      3.015      3.801
REMARK  Name = 
REMARK  10 active torsions:
REMARK  status: ('A' for Active; 'I' for Inactive)
REMARK    1  A    between atoms: C_1  and  N_2
REMARK    2  A    between atoms: N_2  and  C_3
REMARK    3  A    between atoms: N_2  and  C_4
REMARK    4  A    between atoms: C_4  and  C_5
REMARK    5  A    between atoms: C_5  and  C_6
REMARK    6  A    between atoms: C_6  and  C_7
REMARK    7  A    between atoms: C_7  and  C_8
REMARK    8  A    between atoms: C_8  and  N_10
REMARK    9  A    between atoms: C_8  and  C_11
REMARK   10  A    between atoms: C_11  and  O_12
REMARK                            x       y       z     vdW  Elec       q    Type
REMARK                         _______ _______ _______ _____ _____    ______ ____
ROOT
ATOM      1  C   UNK     1       8.955  -4.846  25.184  0.00  0.00    +0.161 C 
ENDROOT
BRANCH   1   2
ATOM      2  N   UNK     1      10.253  -5.557  25.386  0.00  0.00    -0.318 NA
ATOM      3  H   UNK     1      11.004  -4.867  25.263  0.00  0.00    +0.119 HD
ATOM      4  H   UNK     1      10.322  -5.814  26.374  0.00  0.00    +0.119 HD
ENDBRANCH   1   2
BRANCH   1   5
ATOM      5  C   UNK     1       8.213  -4.829  26.530  0.00  0.00    +0.322 C 
ATOM      6  O   UNK     1       7.773  -3.832  27.080  0.00  0.00    -0.249 OA
BRANCH   5   7
ATOM      7  O   UNK     1       8.137  -6.078  27.061  0.00  0.00    -0.480 OA
ATOM      8  H   UNK     1       8.212  -6.702  26.297  0.00  0.00    +0.295 HD
ENDBRANCH   5   7
ENDBRANCH   1   5
BRANCH   1   9
ATOM      9  C   UNK     1       9.174  -3.400  24.724  0.00  0.00    +0.030 C 
BRANCH   9  10
ATOM     10  C   UNK     1       8.421  -3.053  23.438  0.00  0.00    +0.003 C 
BRANCH  10  11
ATOM     11  C   UNK     1       7.570  -4.232  22.954  0.00  0.00    +0.015 C 
BRANCH  11  12
ATOM     12  C   UNK     1       6.133  -3.819  22.598  0.00  0.00    +0.084 C 
BRANCH  12  14
ATOM     13  C   UNK     1       6.197  -5.725  21.080  0.00  0.00    +0.104 C 
ATOM     14  N   UNK     1       5.354  -4.865  21.910  0.00  0.00    -0.308 NA
ATOM     15  C   UNK     1       4.629  -5.678  22.890  0.00  0.00    +0.104 C 
ENDBRANCH  12  14
ENDBRANCH  11  12
ENDBRANCH  10  11
ENDBRANCH   9  10
ENDBRANCH   1   9
TORSDOF 8
ENDMDL
MODEL 4
REMARK VINA RESULT:      -4.1      2.045      2.528
REMARK  Name = 
REMARK  10 active torsions:
REMARK  status: ('A' for Active; 'I' for Inactive)
REMARK    1  A    between atoms: C_1  and  N_2
REMARK    2  A    between atoms: N_2  and  C_3
REMARK    3  A    between atoms: N_2  and  C_4
REMARK    4  A    between atoms: C_4  and  C_5
REMARK    5  A    between atoms: C_5  and  C_6
REMARK    6  A    between atoms: C_6  and  C_7
REMARK    7  A    between atoms: C_7  and  C_8
REMARK    8  A    between atoms: C_8  and  N_10
REMARK    9  A    between atoms: C_8  and  C_11
REMARK   10  A    between atoms: C_11  and  O_12
REMARK                            x       y       z     vdW  Elec       q    Type
REMARK                         _______ _______ _______ _____ _____    ______ ____
ROOT
ATOM      1  C   UNK     1       8.797  -5.126  24.889  0.00  0.00    +0.161 C 
ENDROOT
BRANCH   1   2
ATOM      2  N   UNK     1      10.108  -5.655  25.374  0.00  0.00    -0.318 NA
ATOM      3  H   UNK     1      10.627  -5.989  24.553  0.00  0.00    +0.119 HD
ATOM      4  H   UNK     1      10.665  -4.863  25.703  0.00  0.00    +0.119 HD
ENDBRANCH   1   2
BRANCH   1   5
ATOM      5  C   UNK     1       7.759  -5.351  25.999  0.00  0.00    +0.322 C 
ATOM      6  O   UNK     1       6.551  -5.235  25.869  0.00  0.00    -0.249 OA
BRANCH   5   7
ATOM      7  O   UNK     1       8.363  -5.664  27.176  0.00  0.00    -0.480 OA
ATOM      8  H   UNK     1       8.663  -4.805  27.563  0.00  0.00    +0.295 HD
ENDBRANCH   5   7
ENDBRANCH   1   5
BRANCH   1   9
ATOM      9  C   UNK     1       8.877  -3.625  24.586  0.00  0.00    +0.030 C 
BRANCH   9  10
ATOM     10  C   UNK     1       8.040  -3.206  23.375  0.00  0.00    +0.003 C 
BRANCH  10  11
ATOM     11  C   UNK     1       8.782  -2.178  22.513  0.00  0.00    +0.015 C 
BRANCH  11  12
ATOM     12  C   UNK     1      10.179  -1.845  23.058  0.00  0.00    +0.084 C 
BRANCH  12  14
ATOM     13  C   UNK     1       9.724   0.347  22.094  0.00  0.00    +0.104 C 
ATOM     14  N   UNK     1      10.492  -0.404  23.088  0.00  0.00    -0.308 NA
ATOM     15  C   UNK     1      10.237   0.137  24.425  0.00  0.00    +0.104 C 
ENDBRANCH  12  14
ENDBRANCH  11  12
ENDBRANCH  10  11
ENDBRANCH   9  10
ENDBRANCH   1   9
TORSDOF 8
ENDMDL
MODEL 5
REMARK VINA RESULT:      -4.1      3.372      5.719
REMARK  Name = 
REMARK  10 active torsions:
REMARK  status: ('A' for Active; 'I' for Inactive)
REMARK    1  A    between atoms: C_1  and  N_2
REMARK    2  A    between atoms: N_2  and  C_3
REMARK    3  A    between atoms: N_2  and  C_4
REMARK    4  A    between atoms: C_4  and  C_5
REMARK    5  A    between atoms: C_5  and  C_6
REMARK    6  A    between atoms: C_6  and  C_7
REMARK    7  A    between atoms: C_7  and  C_8
REMARK    8  A    between atoms: C_8  and  N_10
REMARK    9  A    between atoms: C_8  and  C_11
REMARK   10  A    between atoms: C_11  and  O_12
REMARK                            x       y       z     vdW  Elec       q    Type
REMARK                         _______ _______ _______ _____ _____    ______ ____
ROOT
ATOM      1  C   UNK     1      10.110   1.010  22.219  0.00  0.00    +0.161 C 
ENDROOT
BRANCH   1   2
ATOM      2  N   UNK     1       9.588   2.242  21.556  0.00  0.00    -0.318 NA
ATOM      3  H   UNK     1       9.919   2.232  20.584  0.00  0.00    +0.119 HD
ATOM      4  H   UNK     1       8.574   2.145  21.465  0.00  0.00    +0.119 HD
ENDBRANCH   1   2
BRANCH   1   5
ATOM      5  C   UNK     1       9.827   1.128  23.725  0.00  0.00    +0.322 C 
ATOM      6  O   UNK     1       8.721   1.250  24.227  0.00  0.00    -0.249 OA
BRANCH   5   7
ATOM      7  O   UNK     1      10.982   1.118  24.442  0.00  0.00    -0.480 OA
ATOM      8  H   UNK     1      11.113   0.180  24.730  0.00  0.00    +0.295 HD
ENDBRANCH   5   7
ENDBRANCH   1   5
BRANCH   1   9
ATOM      9  C   UNK     1       9.418  -0.250  21.685  0.00  0.00    +0.030 C 
BRANCH   9  10
ATOM     10  C   UNK     1       9.974  -1.546  22.280  0.00  0.00    +0.003 C 
BRANCH  10  11
ATOM     11  C   UNK     1       8.875  -2.359  22.972  0.00  0.00    +0.015 C 
BRANCH  11  12
ATOM     12  C   UNK     1       9.342  -2.979  24.298  0.00  0.00    +0.084 C 
BRANCH  12  14
ATOM     13  C   UNK     1       9.657  -4.987  25.644  0.00  0.00    +0.104 C 
ATOM     14  N   UNK     1       9.279  -4.452  24.335  0.00  0.00    -0.308 NA
ATOM     15  C   UNK     1       7.931  -4.906  23.985  0.00  0.00    +0.104 C 
ENDBRANCH  12  14
ENDBRANCH  11  12
ENDBRANCH  10  11
ENDBRANCH   9  10
ENDBRANCH   1   9
TORSDOF 8
ENDMDL
MODEL 6
REMARK VINA RESULT:      -4.0      3.990      5.812
REMARK  Name = 
REMARK  10 active torsions:
REMARK  status: ('A' for Active; 'I' for Inactive)
REMARK    1  A    between atoms: C_1  and  N_2
REMARK    2  A    between atoms: N_2  and  C_3
REMARK    3  A    between atoms: N_2  and  C_4
REMARK    4  A    between atoms: C_4  and  C_5
REMARK    5  A    between atoms: C_5  and  C_6
REMARK    6  A    between atoms: C_6  and  C_7
REMARK    7  A    between atoms: C_7  and  C_8
REMARK    8  A    between atoms: C_8  and  N_10
REMARK    9  A    between atoms: C_8  and  C_11
REMARK   10  A    between atoms: C_11  and  O_12
REMARK                            x       y       z     vdW  Elec       q    Type
REMARK                         _______ _______ _______ _____ _____    ______ ____
ROOT
ATOM      1  C   UNK     1       9.590   0.977  23.602  0.00  0.00    +0.161 C 
ENDROOT
BRANCH   1   2
ATOM      2  N   UNK     1       9.405   1.341  25.040  0.00  0.00    -0.318 NA
ATOM      3  H   UNK     1      10.024   2.136  25.238  0.00  0.00    +0.119 HD
ATOM      4  H   UNK     1       8.467   1.734  25.147  0.00  0.00    +0.119 HD
ENDBRANCH   1   2
BRANCH   1   5
ATOM      5  C   UNK     1      10.286   2.155  22.904  0.00  0.00    +0.322 C 
ATOM      6  O   UNK     1      10.958   3.008  23.461  0.00  0.00    -0.249 OA
BRANCH   5   7
ATOM      7  O   UNK     1      10.028   2.153  21.569  0.00  0.00    -0.480 OA
ATOM      8  H   UNK     1       9.104   2.495  21.472  0.00  0.00    +0.295 HD
ENDBRANCH   5   7
ENDBRANCH   1   5
BRANCH   1   9
ATOM      9  C   UNK     1      10.464  -0.273  23.449  0.00  0.00    +0.030 C 
BRANCH   9  10
ATOM     10  C   UNK     1       9.979  -1.221  22.349  0.00  0.00    +0.003 C 
BRANCH  10  11
ATOM     11  C   UNK     1       9.032  -2.288  22.910  0.00  0.00    +0.015 C 
BRANCH  11  12
ATOM     12  C   UNK     1       9.544  -2.905  24.221  0.00  0.00    +0.084 C 
BRANCH  12  14
ATOM     13  C   UNK     1       9.488  -4.835  25.709  0.00  0.00    +0.104 C 
ATOM     14  N   UNK     1       9.323  -4.358  24.335  0.00  0.00    -0.308 NA
ATOM     15  C   UNK     1       7.984  -4.702  23.849  0.00  0.00    +0.104 C 
ENDBRANCH  12  14
ENDBRANCH  11  12
ENDBRANCH  10  11
ENDBRANCH   9  10
ENDBRANCH   1   9
TORSDOF 8
ENDMDL
MODEL 7
REMARK VINA RESULT:      -4.0      3.207      4.162
REMARK  Name = 
REMARK  10 active torsions:
REMARK  status: ('A' for Active; 'I' for Inactive)
REMARK    1  A    between atoms: C_1  and  N_2
REMARK    2  A    between atoms: N_2  and  C_3
REMARK    3  A    between atoms: N_2  and  C_4
REMARK    4  A    between atoms: C_4  and  C_5
REMARK    5  A    between atoms: C_5  and  C_6
REMARK    6  A    between atoms: C_6  and  C_7
REMARK    7  A    between atoms: C_7  and  C_8
REMARK    8  A    between atoms: C_8  and  N_10
REMARK    9  A    between atoms: C_8  and  C_11
REMARK   10  A    between atoms: C_11  and  O_12
REMARK                            x       y       z     vdW  Elec       q    Type
REMARK                         _______ _______ _______ _____ _____    ______ ____
ROOT
ATOM      1  C   UNK     1       9.875  -1.965  23.716  0.00  0.00    +0.161 C 
ENDROOT
BRANCH   1   2
ATOM      2  N   UNK     1       9.889  -3.387  24.175  0.00  0.00    -0.318 NA
ATOM      3  H   UNK     1       9.735  -3.979  23.349  0.00  0.00    +0.119 HD
ATOM      4  H   UNK     1      10.845  -3.617  24.458  0.00  0.00    +0.119 HD
ENDBRANCH   1   2
BRANCH   1   5
ATOM      5  C   UNK     1       9.226  -1.926  22.324  0.00  0.00    +0.322 C 
ATOM      6  O   UNK     1       8.068  -2.224  22.077  0.00  0.00    -0.249 OA
BRANCH   5   7
ATOM      7  O   UNK     1      10.124  -1.545  21.377  0.00  0.00    -0.480 OA
ATOM      8  H   UNK     1       9.625  -0.967  20.748  0.00  0.00    +0.295 HD
ENDBRANCH   5   7
ENDBRANCH   1   5
BRANCH   1   9
ATOM      9  C   UNK     1       9.059  -1.079  24.666  0.00  0.00    +0.030 C 
BRANCH   9  10
ATOM     10  C   UNK     1       9.877   0.056  25.287  0.00  0.00    +0.003 C 
BRANCH  10  11
ATOM     11  C   UNK     1      10.888   0.627  24.287  0.00  0.00    +0.015 C 
BRANCH  11  12
ATOM     12  C   UNK     1      10.553   2.065  23.861  0.00  0.00    +0.084 C 
BRANCH  12  14
ATOM     13  C   UNK     1       8.729   3.630  23.458  0.00  0.00    +0.104 C 
ATOM     14  N   UNK     1       9.183   2.243  23.347  0.00  0.00    -0.308 NA
ATOM     15  C   UNK     1       9.110   1.808  21.950  0.00  0.00    +0.104 C 
ENDBRANCH  12  14
ENDBRANCH  11  12
ENDBRANCH  10  11
ENDBRANCH   9  10
ENDBRANCH   1   9
TORSDOF 8
ENDMDL
MODEL 8
REMARK VINA RESULT:      -4.0      4.491      6.385
REMARK  Name = 
REMARK  10 active torsions:
REMARK  status: ('A' for Active; 'I' for Inactive)
REMARK    1  A    between atoms: C_1  and  N_2
REMARK    2  A    between atoms: N_2  and  C_3
REMARK    3  A    between atoms: N_2  and  C_4
REMARK    4  A    between atoms: C_4  and  C_5
REMARK    5  A    between atoms: C_5  and  C_6
REMARK    6  A    between atoms: C_6  and  C_7
REMARK    7  A    between atoms: C_7  and  C_8
REMARK    8  A    between atoms: C_8  and  N_10
REMARK    9  A    between atoms: C_8  and  C_11
REMARK   10  A    between atoms: C_11  and  O_12
REMARK                            x       y       z     vdW  Elec       q    Type
REMARK                         _______ _______ _______ _____ _____    ______ ____
ROOT
ATOM      1  C   UNK     1       8.731   2.786  22.517  0.00  0.00    +0.161 C 
ENDROOT
BRANCH   1   2
ATOM      2  N   UNK     1       9.550   1.990  21.554  0.00  0.00    -0.318 NA
ATOM      3  H   UNK     1       9.076   1.088  21.420  0.00  0.00    +0.119 HD
ATOM      4  H   UNK     1       9.479   2.436  20.636  0.00  0.00    +0.119 HD
ENDBRANCH   1   2
BRANCH   1   5
ATOM      5  C   UNK     1       7.249   2.538  22.195  0.00  0.00    +0.322 C 
ATOM      6  O   UNK     1       6.686   1.457  22.253  0.00  0.00    -0.249 OA
BRANCH   5   7
ATOM      7  O   UNK     1       6.639   3.685  21.793  0.00  0.00    -0.480 OA
ATOM      8  H   UNK     1       6.454   3.569  20.828  0.00  0.00    +0.295 HD
ENDBRANCH   5   7
ENDBRANCH   1   5
BRANCH   1   9
ATOM      9  C   UNK     1       8.998   2.360  23.965  0.00  0.00    +0.030 C 
BRANCH   9  10
ATOM     10  C   UNK     1      10.364   1.697  24.160  0.00  0.00    +0.003 C 
BRANCH  10  11
ATOM     11  C   UNK     1      10.223   0.296  24.766  0.00  0.00    +0.015 C 
BRANCH  11  12
ATOM     12  C   UNK     1       8.990  -0.456  24.242  0.00  0.00    +0.084 C 
BRANCH  12  14
ATOM     13  C   UNK     1      10.387  -1.631  22.627  0.00  0.00    +0.104 C 
ATOM     14  N   UNK     1       9.117  -0.939  22.855  0.00  0.00    -0.308 NA
ATOM     15  C   UNK     1       8.001  -1.831  22.529  0.00  0.00    +0.104 C 
ENDBRANCH  12  14
ENDBRANCH  11  12
ENDBRANCH  10  11
ENDBRANCH   9  10
ENDBRANCH   1   9
TORSDOF 8
ENDMDL
MODEL 9
REMARK VINA RESULT:      -4.0      4.275      6.081
REMARK  Name = 
REMARK  10 active torsions:
REMARK  status: ('A' for Active; 'I' for Inactive)
REMARK    1  A    between atoms: C_1  and  N_2
REMARK    2  A    between atoms: N_2  and  C_3
REMARK    3  A    between atoms: N_2  and  C_4
REMARK    4  A    between atoms: C_4  and  C_5
REMARK    5  A    between atoms: C_5  and  C_6
REMARK    6  A    between atoms: C_6  and  C_7
REMARK    7  A    between atoms: C_7  and  C_8
REMARK    8  A    between atoms: C_8  and  N_10
REMARK    9  A    between atoms: C_8  and  C_11
REMARK   10  A    between atoms: C_11  and  O_12
REMARK                            x       y       z     vdW  Elec       q    Type
REMARK                         _______ _______ _______ _____ _____    ______ ____
ROOT
ATOM      1  C   UNK     1       9.016   3.007  23.391  0.00  0.00    +0.161 C 
ENDROOT
BRANCH   1   2
ATOM      2  N   UNK     1       9.850   4.210  23.092  0.00  0.00    -0.318 NA
ATOM      3  H   UNK     1       9.232   4.919  22.679  0.00  0.00    +0.119 HD
ATOM      4  H   UNK     1      10.131   4.628  23.983  0.00  0.00    +0.119 HD
ENDBRANCH   1   2
BRANCH   1   5
ATOM      5  C   UNK     1       8.804   2.241  22.076  0.00  0.00    +0.322 C 
ATOM      6  O   UNK     1       7.727   1.863  21.645  0.00  0.00    -0.249 OA
BRANCH   5   7
ATOM      7  O   UNK     1       9.990   2.000  21.455  0.00  0.00    -0.480 OA
ATOM      8  H   UNK     1      10.127   1.021  21.506  0.00  0.00    +0.295 HD
ENDBRANCH   5   7
ENDBRANCH   1   5
BRANCH   1   9
ATOM      9  C   UNK     1       9.710   2.080  24.395  0.00  0.00    +0.030 C 
BRANCH   9  10
ATOM     10  C   UNK     1       8.762   1.066  25.040  0.00  0.00    +0.003 C 
BRANCH  10  11
ATOM     11  C   UNK     1       9.377  -0.338  25.060  0.00  0.00    +0.015 C 
BRANCH  11  12
ATOM     12  C   UNK     1      10.337  -0.582  23.885  0.00  0.00    +0.084 C 
BRANCH  12  14
ATOM     13  C   UNK     1       9.528  -2.880  23.963  0.00  0.00    +0.104 C 
ATOM     14  N   UNK     1      10.058  -1.810  23.118  0.00  0.00    -0.308 NA
ATOM     15  C   UNK     1       9.115  -1.521  22.034  0.00  0.00    +0.104 C 
ENDBRANCH  12  14
ENDBRANCH  11  12
ENDBRANCH  10  11
ENDBRANCH   9  10
ENDBRANCH   1   9
TORSDOF 8
ENDMDL
