MODEL 1
REMARK VINA RESULT:      -5.4      0.000      0.000
REMARK  Name = 
REMARK  10 active torsions:
REMARK  status: ('A' for Active; 'I' for Inactive)
REMARK    1  A    between atoms: C_1  and  C_2
REMARK    2  A    between atoms: C_2  and  C_3
REMARK    3  A    between atoms: C_2  and  C_7
REMARK    4  A    between atoms: C_3  and  N_4
REMARK    5  A    between atoms: N_4  and  C_5
REMARK    6  A    between atoms: N_4  and  C_6
REMARK    7  A    between atoms: C_7  and  C_8
REMARK    8  A    between atoms: C_7  and  O_9
REMARK    9  A    between atoms: C_7  and  C_10
REMARK   10  A    between atoms: C_10  and  C_11
REMARK                            x       y       z     vdW  Elec       q    Type
REMARK                         _______ _______ _______ _____ _____    ______ ____
ROOT
ATOM      1  C   UNL     1       9.225   1.355  22.017  0.00  0.00    +0.071 C 
ATOM      2  C   UNL     1       7.872   1.828  21.434  0.00  0.00    +0.042 C 
ENDROOT
BRANCH   1   4
ATOM      3  C   UNL     1      10.600   1.777  24.169  0.00  0.00    +0.011 C 
ATOM      4  C   UNL     1       9.219   1.423  23.589  0.00  0.00    +0.032 C 
BRANCH   4   5
ATOM      5  C   UNL     1       8.174   2.462  24.103  0.00  0.00    +0.089 C 
BRANCH   5   6
ATOM      6  N   UNL     1       8.695   3.733  24.648  0.00  0.00    -0.308 NA
ATOM      7  C   UNL     1       7.946   4.167  25.824  0.00  0.00    +0.104 C 
ATOM      8  C   UNL     1       8.614   4.765  23.601  0.00  0.00    +0.104 C 
ENDBRANCH   5   6
ENDBRANCH   4   5
ENDBRANCH   1   4
BRANCH   1   9
ATOM      9  O   UNL     1      10.270   2.229  21.561  0.00  0.00    -0.388 OA
ATOM     10  H   UNL     1      10.238   3.051  22.075  0.00  0.00    +0.210 HD
ENDBRANCH   1   9
BRANCH   1  11
ATOM     11  C   UNL     1       9.536  -0.091  21.489  0.00  0.00    +0.070 C 
BRANCH  11  12
ATOM     12  C   UNL     1       9.127  -1.188  22.463  0.00  0.00    -0.045 A 
ATOM     13  C   UNL     1       7.820  -1.694  22.476  0.00  0.00    +0.005 A 
ATOM     14  C   UNL     1       7.515  -2.835  23.223  0.00  0.00    +0.020 A 
ATOM     15  C   UNL     1       8.514  -3.469  23.963  0.00  0.00    +0.041 A 
ATOM     16 CL   UNL     1       8.164  -4.932  24.799  0.00  0.00    -0.084 Cl
ATOM     17  C   UNL     1       9.800  -2.942  24.008  0.00  0.00    +0.020 A 
ATOM     18  C   UNL     1      10.101  -1.796  23.276  0.00  0.00    +0.005 A 
ENDBRANCH  11  12
ENDBRANCH   1  11
TORSDOF 6
ENDMDL
MODEL 2
REMARK VINA RESULT:      -5.4      1.171      1.668
REMARK  Name = 
REMARK  10 active torsions:
REMARK  status: ('A' for Active; 'I' for Inactive)
REMARK    1  A    between atoms: C_1  and  C_2
REMARK    2  A    between atoms: C_2  and  C_3
REMARK    3  A    between atoms: C_2  and  C_7
REMARK    4  A    between atoms: C_3  and  N_4
REMARK    5  A    between atoms: N_4  and  C_5
REMARK    6  A    between atoms: N_4  and  C_6
REMARK    7  A    between atoms: C_7  and  C_8
REMARK    8  A    between atoms: C_7  and  O_9
REMARK    9  A    between atoms: C_7  and  C_10
REMARK   10  A    between atoms: C_10  and  C_11
REMARK                            x       y       z     vdW  Elec       q    Type
REMARK                         _______ _______ _______ _____ _____    ______ ____
ROOT
ATOM      1  C   UNL     1       9.220   1.351  21.993  0.00  0.00    +0.071 C 
ATOM      2  C   UNL     1       7.839   1.864  21.520  0.00  0.00    +0.042 C 
ENDROOT
BRANCH   1   4
ATOM      3  C   UNL     1      10.601   2.135  24.038  0.00  0.00    +0.011 C 
ATOM      4  C   UNL     1       9.335   1.399  23.562  0.00  0.00    +0.032 C 
BRANCH   4   5
ATOM      5  C   UNL     1       8.085   2.085  24.196  0.00  0.00    +0.089 C 
BRANCH   5   6
ATOM      6  N   UNL     1       7.320   1.309  25.194  0.00  0.00    -0.308 NA
ATOM      7  C   UNL     1       8.088   0.178  25.708  0.00  0.00    +0.104 C 
ATOM      8  C   UNL     1       6.082   0.822  24.565  0.00  0.00    +0.104 C 
ENDBRANCH   5   6
ENDBRANCH   4   5
ENDBRANCH   1   4
BRANCH   1   9
ATOM      9  O   UNL     1      10.249   2.206  21.468  0.00  0.00    -0.388 OA
ATOM     10  H   UNL     1      11.114   1.845  21.718  0.00  0.00    +0.210 HD
ENDBRANCH   1   9
BRANCH   1  11
ATOM     11  C   UNL     1       9.454  -0.096  21.428  0.00  0.00    +0.070 C 
BRANCH  11  12
ATOM     12  C   UNL     1       9.106  -1.194  22.423  0.00  0.00    -0.045 A 
ATOM     13  C   UNL     1       7.817  -1.741  22.476  0.00  0.00    +0.005 A 
ATOM     14  C   UNL     1       7.568  -2.883  23.242  0.00  0.00    +0.020 A 
ATOM     15  C   UNL     1       8.605  -3.477  23.962  0.00  0.00    +0.041 A 
ATOM     16 CL   UNL     1       8.324  -4.941  24.822  0.00  0.00    -0.084 Cl
ATOM     17  C   UNL     1       9.875  -2.909  23.968  0.00  0.00    +0.020 A 
ATOM     18  C   UNL     1      10.120  -1.761  23.217  0.00  0.00    +0.005 A 
ENDBRANCH  11  12
ENDBRANCH   1  11
TORSDOF 6
ENDMDL
MODEL 3
REMARK VINA RESULT:      -5.2      4.006      6.642
REMARK  Name = 
REMARK  10 active torsions:
REMARK  status: ('A' for Active; 'I' for Inactive)
REMARK    1  A    between atoms: C_1  and  C_2
REMARK    2  A    between atoms: C_2  and  C_3
REMARK    3  A    between atoms: C_2  and  C_7
REMARK    4  A    between atoms: C_3  and  N_4
REMARK    5  A    between atoms: N_4  and  C_5
REMARK    6  A    between atoms: N_4  and  C_6
REMARK    7  A    between atoms: C_7  and  C_8
REMARK    8  A    between atoms: C_7  and  O_9
REMARK    9  A    between atoms: C_7  and  C_10
REMARK   10  A    between atoms: C_10  and  C_11
REMARK                            x       y       z     vdW  Elec       q    Type
REMARK                         _______ _______ _______ _____ _____    ______ ____
ROOT
ATOM      1  C   UNL     1       8.495  -2.998  24.208  0.00  0.00    +0.071 C 
ATOM      2  C   UNL     1       7.249  -2.280  23.637  0.00  0.00    +0.042 C 
ENDROOT
BRANCH   1   4
ATOM      3  C   UNL     1       9.196  -5.314  25.128  0.00  0.00    +0.011 C 
ATOM      4  C   UNL     1       8.358  -4.560  24.080  0.00  0.00    +0.032 C 
BRANCH   4   5
ATOM      5  C   UNL     1       6.868  -5.006  24.211  0.00  0.00    +0.089 C 
BRANCH   5   6
ATOM      6  N   UNL     1       6.294  -5.787  23.096  0.00  0.00    -0.308 NA
ATOM      7  C   UNL     1       7.149  -5.753  21.912  0.00  0.00    +0.104 C 
ATOM      8  C   UNL     1       4.969  -5.236  22.766  0.00  0.00    +0.104 C 
ENDBRANCH   5   6
ENDBRANCH   4   5
ENDBRANCH   1   4
BRANCH   1   9
ATOM      9  O   UNL     1       8.616  -2.698  25.608  0.00  0.00    -0.388 OA
ATOM     10  H   UNL     1       8.424  -1.758  25.745  0.00  0.00    +0.210 HD
ENDBRANCH   1   9
BRANCH   1  11
ATOM     11  C   UNL     1       9.779  -2.456  23.482  0.00  0.00    +0.070 C 
BRANCH  11  12
ATOM     12  C   UNL     1       9.872  -0.936  23.478  0.00  0.00    -0.045 A 
ATOM     13  C   UNL     1      10.195  -0.227  24.642  0.00  0.00    +0.005 A 
ATOM     14  C   UNL     1      10.481   1.139  24.577  0.00  0.00    +0.020 A 
ATOM     15  C   UNL     1      10.438   1.800  23.349  0.00  0.00    +0.041 A 
ATOM     16 CL   UNL     1      10.890   3.458  23.252  0.00  0.00    -0.084 Cl
ATOM     17  C   UNL     1      10.060   1.122  22.195  0.00  0.00    +0.020 A 
ATOM     18  C   UNL     1       9.760  -0.237  22.262  0.00  0.00    +0.005 A 
ENDBRANCH  11  12
ENDBRANCH   1  11
TORSDOF 6
ENDMDL
MODEL 4
REMARK VINA RESULT:      -5.2      3.762      6.028
REMARK  Name = 
REMARK  10 active torsions:
REMARK  status: ('A' for Active; 'I' for Inactive)
REMARK    1  A    between atoms: C_1  and  C_2
REMARK    2  A    between atoms: C_2  and  C_3
REMARK    3  A    between atoms: C_2  and  C_7
REMARK    4  A    between atoms: C_3  and  N_4
REMARK    5  A    between atoms: N_4  and  C_5
REMARK    6  A    between atoms: N_4  and  C_6
REMARK    7  A    between atoms: C_7  and  C_8
REMARK    8  A    between atoms: C_7  and  O_9
REMARK    9  A    between atoms: C_7  and  C_10
REMARK   10  A    between atoms: C_10  and  C_11
REMARK                            x       y       z     vdW  Elec       q    Type
REMARK                         _______ _______ _______ _____ _____    ______ ____
ROOT
ATOM      1  C   UNL     1       7.413  -2.311  22.935  0.00  0.00    +0.071 C 
ATOM      2  C   UNL     1       6.801  -3.449  22.084  0.00  0.00    +0.042 C 
ENDROOT
BRANCH   1   4
ATOM      3  C   UNL     1       6.668  -1.804  25.362  0.00  0.00    +0.011 C 
ATOM      4  C   UNL     1       7.502  -2.723  24.451  0.00  0.00    +0.032 C 
BRANCH   4   5
ATOM      5  C   UNL     1       7.036  -4.198  24.661  0.00  0.00    +0.089 C 
BRANCH   5   6
ATOM      6  N   UNL     1       7.964  -5.108  25.364  0.00  0.00    -0.308 NA
ATOM      7  C   UNL     1       7.676  -5.178  26.794  0.00  0.00    +0.104 C 
ATOM      8  C   UNL     1       9.340  -4.630  25.159  0.00  0.00    +0.104 C 
ENDBRANCH   5   6
ENDBRANCH   4   5
ENDBRANCH   1   4
BRANCH   1   9
ATOM      9  O   UNL     1       6.565  -1.153  22.862  0.00  0.00    -0.388 OA
ATOM     10  H   UNL     1       5.926  -1.187  23.590  0.00  0.00    +0.210 HD
ENDBRANCH   1   9
BRANCH   1  11
ATOM     11  C   UNL     1       8.817  -1.923  22.346  0.00  0.00    +0.070 C 
BRANCH  11  12
ATOM     12  C   UNL     1       9.241  -0.501  22.687  0.00  0.00    -0.045 A 
ATOM     13  C   UNL     1       9.745  -0.181  23.955  0.00  0.00    +0.005 A 
ATOM     14  C   UNL     1      10.321   1.072  24.186  0.00  0.00    +0.020 A 
ATOM     15  C   UNL     1      10.390   2.007  23.154  0.00  0.00    +0.041 A 
ATOM     16 CL   UNL     1      11.192   3.508  23.409  0.00  0.00    -0.084 Cl
ATOM     17  C   UNL     1       9.839   1.724  21.908  0.00  0.00    +0.020 A 
ATOM     18  C   UNL     1       9.250   0.482  21.681  0.00  0.00    +0.005 A 
ENDBRANCH  11  12
ENDBRANCH   1  11
TORSDOF 6
ENDMDL
MODEL 5
REMARK VINA RESULT:      -5.1      1.375      2.417
REMARK  Name = 
REMARK  10 active torsions:
REMARK  status: ('A' for Active; 'I' for Inactive)
REMARK    1  A    between atoms: C_1  and  C_2
REMARK    2  A    between atoms: C_2  and  C_3
REMARK    3  A    between atoms: C_2  and  C_7
REMARK    4  A    between atoms: C_3  and  N_4
REMARK    5  A    between atoms: N_4  and  C_5
REMARK    6  A    between atoms: N_4  and  C_6
REMARK    7  A    between atoms: C_7  and  C_8
REMARK    8  A    between atoms: C_7  and  O_9
REMARK    9  A    between atoms: C_7  and  C_10
REMARK   10  A    between atoms: C_10  and  C_11
REMARK                            x       y       z     vdW  Elec       q    Type
REMARK                         _______ _______ _______ _____ _____    ______ ____
ROOT
ATOM      1  C   UNL     1       9.920   0.369  23.411  0.00  0.00    +0.071 C 
ATOM      2  C   UNL     1      10.929   0.630  24.555  0.00  0.00    +0.042 C 
ENDROOT
BRANCH   1   4
ATOM      3  C   UNL     1       8.654   1.496  21.455  0.00  0.00    +0.011 C 
ATOM      4  C   UNL     1       9.829   1.607  22.444  0.00  0.00    +0.032 C 
BRANCH   4   5
ATOM      5  C   UNL     1       9.688   2.937  23.246  0.00  0.00    +0.089 C 
BRANCH   5   6
ATOM      6  N   UNL     1       8.329   3.334  23.669  0.00  0.00    -0.308 NA
ATOM      7  C   UNL     1       7.947   4.632  23.119  0.00  0.00    +0.104 C 
ATOM      8  C   UNL     1       8.289   3.388  25.139  0.00  0.00    +0.104 C 
ENDBRANCH   5   6
ENDBRANCH   4   5
ENDBRANCH   1   4
BRANCH   1   9
ATOM      9  O   UNL     1       8.611   0.170  23.968  0.00  0.00    -0.388 OA
ATOM     10  H   UNL     1       8.661   0.271  24.931  0.00  0.00    +0.210 HD
ENDBRANCH   1   9
BRANCH   1  11
ATOM     11  C   UNL     1      10.330  -0.944  22.652  0.00  0.00    +0.070 C 
BRANCH  11  12
ATOM     12  C   UNL     1       9.464  -2.144  23.013  0.00  0.00    -0.045 A 
ATOM     13  C   UNL     1       9.737  -2.918  24.148  0.00  0.00    +0.005 A 
ATOM     14  C   UNL     1       8.820  -3.880  24.581  0.00  0.00    +0.020 A 
ATOM     15  C   UNL     1       7.632  -4.074  23.877  0.00  0.00    +0.041 A 
ATOM     16 CL   UNL     1       6.456  -5.184  24.467  0.00  0.00    -0.084 Cl
ATOM     17  C   UNL     1       7.375  -3.354  22.714  0.00  0.00    +0.020 A 
ATOM     18  C   UNL     1       8.296  -2.407  22.273  0.00  0.00    +0.005 A 
ENDBRANCH  11  12
ENDBRANCH   1  11
TORSDOF 6
ENDMDL
MODEL 6
REMARK VINA RESULT:      -5.1      3.940      6.542
REMARK  Name = 
REMARK  10 active torsions:
REMARK  status: ('A' for Active; 'I' for Inactive)
REMARK    1  A    between atoms: C_1  and  C_2
REMARK    2  A    between atoms: C_2  and  C_3
REMARK    3  A    between atoms: C_2  and  C_7
REMARK    4  A    between atoms: C_3  and  N_4
REMARK    5  A    between atoms: N_4  and  C_5
REMARK    6  A    between atoms: N_4  and  C_6
REMARK    7  A    between atoms: C_7  and  C_8
REMARK    8  A    between atoms: C_7  and  O_9
REMARK    9  A    between atoms: C_7  and  C_10
REMARK   10  A    between atoms: C_10  and  C_11
REMARK                            x       y       z     vdW  Elec       q    Type
REMARK                         _______ _______ _______ _____ _____    ______ ____
ROOT
ATOM      1  C   UNL     1       8.324  -3.151  23.815  0.00  0.00    +0.071 C 
ATOM      2  C   UNL     1       7.666  -3.204  22.416  0.00  0.00    +0.042 C 
ENDROOT
BRANCH   1   4
ATOM      3  C   UNL     1       9.575  -4.860  25.304  0.00  0.00    +0.011 C 
ATOM      4  C   UNL     1       8.290  -4.562  24.511  0.00  0.00    +0.032 C 
BRANCH   4   5
ATOM      5  C   UNL     1       7.065  -4.687  25.470  0.00  0.00    +0.089 C 
BRANCH   5   6
ATOM      6  N   UNL     1       5.932  -5.521  25.017  0.00  0.00    -0.308 NA
ATOM      7  C   UNL     1       4.864  -4.714  24.433  0.00  0.00    +0.104 C 
ATOM      8  C   UNL     1       5.411  -6.274  26.170  0.00  0.00    +0.104 C 
ENDBRANCH   5   6
ENDBRANCH   4   5
ENDBRANCH   1   4
BRANCH   1   9
ATOM      9  O   UNL     1       7.584  -2.250  24.654  0.00  0.00    -0.388 OA
ATOM     10  H   UNL     1       7.508  -2.636  25.540  0.00  0.00    +0.210 HD
ENDBRANCH   1   9
BRANCH   1  11
ATOM     11  C   UNL     1       9.787  -2.596  23.677  0.00  0.00    +0.070 C 
BRANCH  11  12
ATOM     12  C   UNL     1       9.851  -1.076  23.618  0.00  0.00    -0.045 A 
ATOM     13  C   UNL     1      10.146  -0.318  24.759  0.00  0.00    +0.005 A 
ATOM     14  C   UNL     1      10.406   1.050  24.646  0.00  0.00    +0.020 A 
ATOM     15  C   UNL     1      10.366   1.665  23.395  0.00  0.00    +0.041 A 
ATOM     16 CL   UNL     1      10.787   3.326  23.241  0.00  0.00    -0.084 Cl
ATOM     17  C   UNL     1      10.015   0.937  22.262  0.00  0.00    +0.020 A 
ATOM     18  C   UNL     1       9.740  -0.424  22.376  0.00  0.00    +0.005 A 
ENDBRANCH  11  12
ENDBRANCH   1  11
TORSDOF 6
ENDMDL
MODEL 7
REMARK VINA RESULT:      -5.0      2.131      3.256
REMARK  Name = 
REMARK  10 active torsions:
REMARK  status: ('A' for Active; 'I' for Inactive)
REMARK    1  A    between atoms: C_1  and  C_2
REMARK    2  A    between atoms: C_2  and  C_3
REMARK    3  A    between atoms: C_2  and  C_7
REMARK    4  A    between atoms: C_3  and  N_4
REMARK    5  A    between atoms: N_4  and  C_5
REMARK    6  A    between atoms: N_4  and  C_6
REMARK    7  A    between atoms: C_7  and  C_8
REMARK    8  A    between atoms: C_7  and  O_9
REMARK    9  A    between atoms: C_7  and  C_10
REMARK   10  A    between atoms: C_10  and  C_11
REMARK                            x       y       z     vdW  Elec       q    Type
REMARK                         _______ _______ _______ _____ _____    ______ ____
ROOT
ATOM      1  C   UNL     1       9.389  -1.589  22.650  0.00  0.00    +0.071 C 
ATOM      2  C   UNL     1       8.028  -2.211  22.253  0.00  0.00    +0.042 C 
ENDROOT
BRANCH   1   4
ATOM      3  C   UNL     1      10.340   0.363  24.059  0.00  0.00    +0.011 C 
ATOM      4  C   UNL     1       9.215  -0.096  23.113  0.00  0.00    +0.032 C 
BRANCH   4   5
ATOM      5  C   UNL     1       9.160   0.870  21.889  0.00  0.00    +0.089 C 
BRANCH   5   6
ATOM      6  N   UNL     1       8.059   1.855  21.850  0.00  0.00    -0.308 NA
ATOM      7  C   UNL     1       8.423   3.103  22.515  0.00  0.00    +0.104 C 
ATOM      8  C   UNL     1       6.879   1.269  22.508  0.00  0.00    +0.104 C 
ENDBRANCH   5   6
ENDBRANCH   4   5
ENDBRANCH   1   4
BRANCH   1   9
ATOM      9  O   UNL     1      10.257  -1.577  21.505  0.00  0.00    -0.388 OA
ATOM     10  H   UNL     1      10.095  -2.376  20.981  0.00  0.00    +0.210 HD
ENDBRANCH   1   9
BRANCH   1  11
ATOM     11  C   UNL     1      10.058  -2.477  23.759  0.00  0.00    +0.070 C 
BRANCH  11  12
ATOM     12  C   UNL     1       9.050  -3.190  24.650  0.00  0.00    -0.045 A 
ATOM     13  C   UNL     1       8.859  -4.576  24.563  0.00  0.00    +0.005 A 
ATOM     14  C   UNL     1       8.090  -5.241  25.522  0.00  0.00    +0.020 A 
ATOM     15  C   UNL     1       7.506  -4.522  26.565  0.00  0.00    +0.041 A 
ATOM     16 CL   UNL     1       6.646  -5.354  27.802  0.00  0.00    -0.084 Cl
ATOM     17  C   UNL     1       7.636  -3.139  26.628  0.00  0.00    +0.020 A 
ATOM     18  C   UNL     1       8.389  -2.473  25.664  0.00  0.00    +0.005 A 
ENDBRANCH  11  12
ENDBRANCH   1  11
TORSDOF 6
ENDMDL
MODEL 8
REMARK VINA RESULT:      -4.9      3.255      4.775
REMARK  Name = 
REMARK  10 active torsions:
REMARK  status: ('A' for Active; 'I' for Inactive)
REMARK    1  A    between atoms: C_1  and  C_2
REMARK    2  A    between atoms: C_2  and  C_3
REMARK    3  A    between atoms: C_2  and  C_7
REMARK    4  A    between atoms: C_3  and  N_4
REMARK    5  A    between atoms: N_4  and  C_5
REMARK    6  A    between atoms: N_4  and  C_6
REMARK    7  A    between atoms: C_7  and  C_8
REMARK    8  A    between atoms: C_7  and  O_9
REMARK    9  A    between atoms: C_7  and  C_10
REMARK   10  A    between atoms: C_10  and  C_11
REMARK                            x       y       z     vdW  Elec       q    Type
REMARK                         _______ _______ _______ _____ _____    ______ ____
ROOT
ATOM      1  C   UNL     1       8.515  -2.573  23.744  0.00  0.00    +0.071 C 
ATOM      2  C   UNL     1       8.671  -2.551  25.283  0.00  0.00    +0.042 C 
ENDROOT
BRANCH   1   4
ATOM      3  C   UNL     1       6.211  -2.408  22.576  0.00  0.00    +0.011 C 
ATOM      4  C   UNL     1       7.340  -1.634  23.281  0.00  0.00    +0.032 C 
BRANCH   4   5
ATOM      5  C   UNL     1       6.737  -0.852  24.489  0.00  0.00    +0.089 C 
BRANCH   5   6
ATOM      6  N   UNL     1       7.057   0.587  24.592  0.00  0.00    -0.308 NA
ATOM      7  C   UNL     1       6.507   1.180  25.807  0.00  0.00    +0.104 C 
ATOM      8  C   UNL     1       6.510   1.278  23.413  0.00  0.00    +0.104 C 
ENDBRANCH   5   6
ENDBRANCH   4   5
ENDBRANCH   1   4
BRANCH   1   9
ATOM      9  O   UNL     1       8.184  -3.905  23.319  0.00  0.00    -0.388 OA
ATOM     10  H   UNL     1       7.550  -3.851  22.587  0.00  0.00    +0.210 HD
ENDBRANCH   1   9
BRANCH   1  11
ATOM     11  C   UNL     1       9.883  -2.177  23.081  0.00  0.00    +0.070 C 
BRANCH  11  12
ATOM     12  C   UNL     1      10.156  -0.679  23.112  0.00  0.00    -0.045 A 
ATOM     13  C   UNL     1       9.898   0.127  21.996  0.00  0.00    +0.005 A 
ATOM     14  C   UNL     1       9.955   1.519  22.106  0.00  0.00    +0.020 A 
ATOM     15  C   UNL     1      10.276   2.108  23.329  0.00  0.00    +0.041 A 
ATOM     16 CL   UNL     1      10.244   3.821  23.492  0.00  0.00    -0.084 Cl
ATOM     17  C   UNL     1      10.594   1.318  24.430  0.00  0.00    +0.020 A 
ATOM     18  C   UNL     1      10.553  -0.069  24.317  0.00  0.00    +0.005 A 
ENDBRANCH  11  12
ENDBRANCH   1  11
TORSDOF 6
ENDMDL
MODEL 9
REMARK VINA RESULT:      -4.9      3.703      6.086
REMARK  Name = 
REMARK  10 active torsions:
REMARK  status: ('A' for Active; 'I' for Inactive)
REMARK    1  A    between atoms: C_1  and  C_2
REMARK    2  A    between atoms: C_2  and  C_3
REMARK    3  A    between atoms: C_2  and  C_7
REMARK    4  A    between atoms: C_3  and  N_4
REMARK    5  A    between atoms: N_4  and  C_5
REMARK    6  A    between atoms: N_4  and  C_6
REMARK    7  A    between atoms: C_7  and  C_8
REMARK    8  A    between atoms: C_7  and  O_9
REMARK    9  A    between atoms: C_7  and  C_10
REMARK   10  A    between atoms: C_10  and  C_11
REMARK                            x       y       z     vdW  Elec       q    Type
REMARK                         _______ _______ _______ _____ _____    ______ ____
ROOT
ATOM      1  C   UNL     1       8.431  -2.411  23.631  0.00  0.00    +0.071 C 
ATOM      2  C   UNL     1       7.212  -1.937  22.804  0.00  0.00    +0.042 C 
ENDROOT
BRANCH   1   4
ATOM      3  C   UNL     1       9.339  -4.403  25.013  0.00  0.00    +0.011 C 
ATOM      4  C   UNL     1       8.353  -3.956  23.918  0.00  0.00    +0.032 C 
BRANCH   4   5
ATOM      5  C   UNL     1       6.910  -4.378  24.337  0.00  0.00    +0.089 C 
BRANCH   5   6
ATOM      6  N   UNL     1       6.642  -4.531  25.782  0.00  0.00    -0.308 NA
ATOM      7  C   UNL     1       6.011  -5.813  26.085  0.00  0.00    +0.104 C 
ATOM      8  C   UNL     1       5.764  -3.432  26.217  0.00  0.00    +0.104 C 
ENDBRANCH   5   6
ENDBRANCH   4   5
ENDBRANCH   1   4
BRANCH   1   9
ATOM      9  O   UNL     1       8.430  -1.745  24.904  0.00  0.00    -0.388 OA
ATOM     10  H   UNL     1       7.688  -1.121  24.930  0.00  0.00    +0.210 HD
ENDBRANCH   1   9
BRANCH   1  11
ATOM     11  C   UNL     1       9.751  -2.017  22.876  0.00  0.00    +0.070 C 
BRANCH  11  12
ATOM     12  C   UNL     1      10.062  -0.528  22.945  0.00  0.00    -0.045 A 
ATOM     13  C   UNL     1       9.672   0.342  21.918  0.00  0.00    +0.005 A 
ATOM     14  C   UNL     1       9.777   1.725  22.089  0.00  0.00    +0.020 A 
ATOM     15  C   UNL     1      10.278   2.241  23.285  0.00  0.00    +0.041 A 
ATOM     16 CL   UNL     1      10.311   3.943  23.537  0.00  0.00    -0.084 Cl
ATOM     17  C   UNL     1      10.725   1.388  24.289  0.00  0.00    +0.020 A 
ATOM     18  C   UNL     1      10.635   0.010  24.113  0.00  0.00    +0.005 A 
ENDBRANCH  11  12
ENDBRANCH   1  11
TORSDOF 6
ENDMDL
