MODEL 1
REMARK VINA RESULT:      -7.9      0.000      0.000
REMARK  Name = 
REMARK  5 active torsions:
REMARK  status: ('A' for Active; 'I' for Inactive)
REMARK    1  A    between atoms: O_1  and  C_2
REMARK    2  A    between atoms: C_2  and  C_4
REMARK    3  A    between atoms: C_5  and  N_6
REMARK    4  A    between atoms: C_12  and  C_15
REMARK    5  A    between atoms: C_16  and  C_21
REMARK                            x       y       z     vdW  Elec       q    Type
REMARK                         _______ _______ _______ _____ _____    ______ ____
ROOT
ATOM      1  N   UNL     1       9.008   2.715  23.866  0.00  0.00    -0.269 N 
ATOM      2  H   UNL     1       9.677   2.447  24.589  0.00  0.00    +0.156 HD
ATOM      3  C   UNL     1       9.072   1.844  22.799  0.00  0.00    +0.306 C 
ATOM      4  N   UNL     1       9.395   0.542  23.205  0.00  0.00    -0.285 N 
ATOM      5  C   UNL     1       8.669  -0.048  24.329  0.00  0.00    +0.110 C 
ATOM      6  C   UNL     1       9.388  -1.256  24.908  0.00  0.00    +0.027 C 
ATOM      7  C   UNL     1       9.696  -2.322  23.845  0.00  0.00    +0.023 C 
ATOM      8  C   UNL     1      10.417  -1.662  22.649  0.00  0.00    +0.027 C 
ATOM      9  C   UNL     1       9.796  -0.362  22.143  0.00  0.00    +0.110 C 
ATOM     10  O   UNL     1       8.968   2.177  21.622  0.00  0.00    -0.252 OA
ENDROOT
BRANCH   1  16
ATOM     11  C   UNL     1       7.584   4.616  23.310  0.00  0.00    +0.080 A 
ATOM     12  C   UNL     1       7.431   5.990  23.076  0.00  0.00    +0.017 A 
ATOM     13  C   UNL     1       8.518   6.849  23.246  0.00  0.00    +0.001 A 
ATOM     14  C   UNL     1       9.754   6.345  23.650  0.00  0.00    +0.002 A 
ATOM     15  C   UNL     1       9.913   4.977  23.883  0.00  0.00    +0.024 A 
ATOM     16  C   UNL     1       8.835   4.105  23.701  0.00  0.00    +0.049 A 
BRANCH  11  17
ATOM     17  C   UNL     1       6.427   3.695  23.183  0.00  0.00    +0.339 C 
ATOM     18  O   UNL     1       5.834   3.240  24.148  0.00  0.00    -0.245 OA
BRANCH  17  19
ATOM     19  O   UNL     1       6.042   3.473  21.909  0.00  0.00    -0.477 OA
ATOM     20  H   UNL     1       5.269   3.993  21.620  0.00  0.00    +0.295 HD
ENDBRANCH  17  19
ENDBRANCH  11  17
ENDBRANCH   1  16
BRANCH   7  21
ATOM     21  C   UNL     1       8.492  -3.217  23.536  0.00  0.00    -0.033 A 
ATOM     22  C   UNL     1       7.659  -2.944  22.433  0.00  0.00    +0.004 A 
ATOM     23  C   UNL     1       6.588  -3.769  22.081  0.00  0.00    +0.000 A 
ATOM     24  C   UNL     1       6.316  -4.900  22.824  0.00  0.00    +0.001 A 
ATOM     25  C   UNL     1       7.098  -5.188  23.938  0.00  0.00    +0.012 A 
ATOM     26  C   UNL     1       8.183  -4.358  24.322  0.00  0.00    +0.058 A 
BRANCH  26  27
ATOM     27  C   UNL     1       8.922  -4.807  25.570  0.00  0.00    +0.418 C 
ATOM     28  F   UNL     1      10.211  -5.164  25.300  0.00  0.00    -0.166 F 
ATOM     29  F   UNL     1       8.347  -5.913  26.127  0.00  0.00    -0.166 F 
ATOM     30  F   UNL     1       9.001  -3.901  26.580  0.00  0.00    -0.166 F 
ENDBRANCH  26  27
ENDBRANCH   7  21
TORSDOF 5
ENDMDL
MODEL 2
REMARK VINA RESULT:      -7.8      1.213      2.218
REMARK  Name = 
REMARK  5 active torsions:
REMARK  status: ('A' for Active; 'I' for Inactive)
REMARK    1  A    between atoms: O_1  and  C_2
REMARK    2  A    between atoms: C_2  and  C_4
REMARK    3  A    between atoms: C_5  and  N_6
REMARK    4  A    between atoms: C_12  and  C_15
REMARK    5  A    between atoms: C_16  and  C_21
REMARK                            x       y       z     vdW  Elec       q    Type
REMARK                         _______ _______ _______ _____ _____    ______ ____
ROOT
ATOM      1  N   UNL     1       9.099   2.812  24.025  0.00  0.00    -0.269 N 
ATOM      2  H   UNL     1       9.904   2.480  24.556  0.00  0.00    +0.156 HD
ATOM      3  C   UNL     1       8.900   2.032  22.907  0.00  0.00    +0.306 C 
ATOM      4  N   UNL     1       9.270   0.697  23.127  0.00  0.00    -0.285 N 
ATOM      5  C   UNL     1       8.798   0.024  24.336  0.00  0.00    +0.110 C 
ATOM      6  C   UNL     1       9.596  -1.234  24.642  0.00  0.00    +0.027 C 
ATOM      7  C   UNL     1       9.630  -2.212  23.457  0.00  0.00    +0.023 C 
ATOM      8  C   UNL     1      10.084  -1.462  22.185  0.00  0.00    +0.027 C 
ATOM      9  C   UNL     1       9.400  -0.120  21.935  0.00  0.00    +0.110 C 
ATOM     10  O   UNL     1       8.545   2.460  21.813  0.00  0.00    -0.252 OA
ENDROOT
BRANCH   1  16
ATOM     11  C   UNL     1      10.024   5.049  23.724  0.00  0.00    +0.080 A 
ATOM     12  C   UNL     1       9.875   6.442  23.782  0.00  0.00    +0.017 A 
ATOM     13  C   UNL     1       8.637   6.995  24.111  0.00  0.00    +0.001 A 
ATOM     14  C   UNL     1       7.547   6.166  24.380  0.00  0.00    +0.002 A 
ATOM     15  C   UNL     1       7.690   4.778  24.326  0.00  0.00    +0.024 A 
ATOM     16  C   UNL     1       8.931   4.213  24.013  0.00  0.00    +0.049 A 
BRANCH  11  17
ATOM     17  C   UNL     1      11.321   4.445  23.327  0.00  0.00    +0.339 C 
ATOM     18  O   UNL     1      11.680   3.342  23.706  0.00  0.00    -0.245 OA
BRANCH  17  19
ATOM     19  O   UNL     1      12.026   5.190  22.450  0.00  0.00    -0.477 OA
ATOM     20  H   UNL     1      11.640   5.240  21.556  0.00  0.00    +0.295 HD
ENDBRANCH  17  19
ENDBRANCH  11  17
ENDBRANCH   1  16
BRANCH   7  21
ATOM     21  C   UNL     1       8.364  -3.068  23.357  0.00  0.00    -0.033 A 
ATOM     22  C   UNL     1       7.378  -2.781  22.393  0.00  0.00    +0.004 A 
ATOM     23  C   UNL     1       6.239  -3.573  22.229  0.00  0.00    +0.000 A 
ATOM     24  C   UNL     1       6.050  -4.684  23.026  0.00  0.00    +0.001 A 
ATOM     25  C   UNL     1       6.988  -4.984  24.009  0.00  0.00    +0.012 A 
ATOM     26  C   UNL     1       8.146  -4.187  24.203  0.00  0.00    +0.058 A 
BRANCH  26  27
ATOM     27  C   UNL     1       9.057  -4.645  25.328  0.00  0.00    +0.418 C 
ATOM     28  F   UNL     1       8.688  -5.861  25.822  0.00  0.00    -0.166 F 
ATOM     29  F   UNL     1       9.013  -3.791  26.393  0.00  0.00    -0.166 F 
ATOM     30  F   UNL     1      10.377  -4.763  25.024  0.00  0.00    -0.166 F 
ENDBRANCH  26  27
ENDBRANCH   7  21
TORSDOF 5
ENDMDL
MODEL 3
REMARK VINA RESULT:      -7.5      4.180      8.474
REMARK  Name = 
REMARK  5 active torsions:
REMARK  status: ('A' for Active; 'I' for Inactive)
REMARK    1  A    between atoms: O_1  and  C_2
REMARK    2  A    between atoms: C_2  and  C_4
REMARK    3  A    between atoms: C_5  and  N_6
REMARK    4  A    between atoms: C_12  and  C_15
REMARK    5  A    between atoms: C_16  and  C_21
REMARK                            x       y       z     vdW  Elec       q    Type
REMARK                         _______ _______ _______ _____ _____    ______ ____
ROOT
ATOM      1  N   UNL     1       7.705  -1.750  23.197  0.00  0.00    -0.269 N 
ATOM      2  H   UNL     1       8.486  -1.857  22.549  0.00  0.00    +0.156 HD
ATOM      3  C   UNL     1       8.052  -0.920  24.241  0.00  0.00    +0.306 C 
ATOM      4  N   UNL     1       8.957   0.074  23.841  0.00  0.00    -0.285 N 
ATOM      5  C   UNL     1       8.675   0.837  22.626  0.00  0.00    +0.110 C 
ATOM      6  C   UNL     1       9.907   1.560  22.103  0.00  0.00    +0.027 C 
ATOM      7  C   UNL     1      10.559   2.457  23.166  0.00  0.00    +0.023 C 
ATOM      8  C   UNL     1      10.798   1.638  24.453  0.00  0.00    +0.027 C 
ATOM      9  C   UNL     1       9.620   0.785  24.918  0.00  0.00    +0.110 C 
ATOM     10  O   UNL     1       7.704  -1.085  25.406  0.00  0.00    -0.252 OA
ENDROOT
BRANCH   1  16
ATOM     11  C   UNL     1       7.456  -4.030  24.029  0.00  0.00    +0.080 A 
ATOM     12  C   UNL     1       6.698  -5.203  24.145  0.00  0.00    +0.017 A 
ATOM     13  C   UNL     1       5.404  -5.249  23.624  0.00  0.00    +0.001 A 
ATOM     14  C   UNL     1       4.863  -4.129  22.992  0.00  0.00    +0.002 A 
ATOM     15  C   UNL     1       5.613  -2.958  22.873  0.00  0.00    +0.024 A 
ATOM     16  C   UNL     1       6.917  -2.906  23.377  0.00  0.00    +0.049 A 
BRANCH  11  17
ATOM     17  C   UNL     1       8.815  -3.948  24.621  0.00  0.00    +0.339 C 
ATOM     18  O   UNL     1       9.822  -3.805  23.947  0.00  0.00    -0.245 OA
BRANCH  17  19
ATOM     19  O   UNL     1       8.826  -3.966  25.970  0.00  0.00    -0.477 OA
ATOM     20  H   UNL     1       9.712  -4.061  26.369  0.00  0.00    +0.295 HD
ENDBRANCH  17  19
ENDBRANCH  11  17
ENDBRANCH   1  16
BRANCH   7  21
ATOM     21  C   UNL     1       9.857   3.811  23.312  0.00  0.00    -0.033 A 
ATOM     22  C   UNL     1       8.451   3.889  23.348  0.00  0.00    +0.004 A 
ATOM     23  C   UNL     1       7.774   5.096  23.540  0.00  0.00    +0.000 A 
ATOM     24  C   UNL     1       8.485   6.267  23.706  0.00  0.00    +0.001 A 
ATOM     25  C   UNL     1       9.874   6.235  23.648  0.00  0.00    +0.012 A 
ATOM     26  C   UNL     1      10.584   5.023  23.441  0.00  0.00    +0.058 A 
BRANCH  26  27
ATOM     27  C   UNL     1      12.094   5.166  23.388  0.00  0.00    +0.418 C 
ATOM     28  F   UNL     1      12.553   6.076  24.295  0.00  0.00    -0.166 F 
ATOM     29  F   UNL     1      12.516   5.622  22.171  0.00  0.00    -0.166 F 
ATOM     30  F   UNL     1      12.814   4.036  23.611  0.00  0.00    -0.166 F 
ENDBRANCH  26  27
ENDBRANCH   7  21
TORSDOF 5
ENDMDL
MODEL 4
REMARK VINA RESULT:      -7.3      4.124      8.552
REMARK  Name = 
REMARK  5 active torsions:
REMARK  status: ('A' for Active; 'I' for Inactive)
REMARK    1  A    between atoms: O_1  and  C_2
REMARK    2  A    between atoms: C_2  and  C_4
REMARK    3  A    between atoms: C_5  and  N_6
REMARK    4  A    between atoms: C_12  and  C_15
REMARK    5  A    between atoms: C_16  and  C_21
REMARK                            x       y       z     vdW  Elec       q    Type
REMARK                         _______ _______ _______ _____ _____    ______ ____
ROOT
ATOM      1  N   UNL     1       7.838  -2.119  22.883  0.00  0.00    -0.269 N 
ATOM      2  H   UNL     1       8.826  -2.043  23.122  0.00  0.00    +0.156 HD
ATOM      3  C   UNL     1       7.088  -1.234  23.628  0.00  0.00    +0.306 C 
ATOM      4  N   UNL     1       7.798  -0.058  23.911  0.00  0.00    -0.285 N 
ATOM      5  C   UNL     1       8.499   0.623  22.823  0.00  0.00    +0.110 C 
ATOM      6  C   UNL     1       9.535   1.611  23.336  0.00  0.00    +0.027 C 
ATOM      7  C   UNL     1       8.939   2.632  24.317  0.00  0.00    +0.023 C 
ATOM      8  C   UNL     1       8.164   1.887  25.426  0.00  0.00    +0.027 C 
ATOM      9  C   UNL     1       7.223   0.785  24.943  0.00  0.00    +0.110 C 
ATOM     10  O   UNL     1       5.976  -1.477  24.087  0.00  0.00    -0.252 OA
ENDROOT
BRANCH   1  16
ATOM     11  C   UNL     1       7.886  -4.518  23.329  0.00  0.00    +0.080 A 
ATOM     12  C   UNL     1       7.502  -5.823  22.990  0.00  0.00    +0.017 A 
ATOM     13  C   UNL     1       6.622  -6.035  21.928  0.00  0.00    +0.001 A 
ATOM     14  C   UNL     1       6.121  -4.952  21.206  0.00  0.00    +0.002 A 
ATOM     15  C   UNL     1       6.501  -3.649  21.538  0.00  0.00    +0.024 A 
ATOM     16  C   UNL     1       7.395  -3.426  22.589  0.00  0.00    +0.049 A 
BRANCH  11  17
ATOM     17  C   UNL     1       8.782  -4.271  24.487  0.00  0.00    +0.339 C 
ATOM     18  O   UNL     1       9.910  -3.820  24.366  0.00  0.00    -0.245 OA
BRANCH  17  19
ATOM     19  O   UNL     1       8.210  -4.514  25.684  0.00  0.00    -0.477 OA
ATOM     20  H   UNL     1       8.779  -4.328  26.454  0.00  0.00    +0.295 HD
ENDBRANCH  17  19
ENDBRANCH  11  17
ENDBRANCH   1  16
BRANCH   7  21
ATOM     21  C   UNL     1       8.224   3.787  23.610  0.00  0.00    -0.033 A 
ATOM     22  C   UNL     1       6.915   3.625  23.116  0.00  0.00    +0.004 A 
ATOM     23  C   UNL     1       6.206   4.670  22.519  0.00  0.00    +0.000 A 
ATOM     24  C   UNL     1       6.785   5.917  22.400  0.00  0.00    +0.001 A 
ATOM     25  C   UNL     1       8.087   6.109  22.851  0.00  0.00    +0.012 A 
ATOM     26  C   UNL     1       8.832   5.059  23.448  0.00  0.00    +0.058 A 
BRANCH  26  27
ATOM     27  C   UNL     1      10.242   5.434  23.869  0.00  0.00    +0.418 C 
ATOM     28  F   UNL     1      10.284   5.908  25.148  0.00  0.00    -0.166 F 
ATOM     29  F   UNL     1      10.751   6.435  23.093  0.00  0.00    -0.166 F 
ATOM     30  F   UNL     1      11.168   4.441  23.820  0.00  0.00    -0.166 F 
ENDBRANCH  26  27
ENDBRANCH   7  21
TORSDOF 5
ENDMDL
MODEL 5
REMARK VINA RESULT:      -7.1      2.937      4.261
REMARK  Name = 
REMARK  5 active torsions:
REMARK  status: ('A' for Active; 'I' for Inactive)
REMARK    1  A    between atoms: O_1  and  C_2
REMARK    2  A    between atoms: C_2  and  C_4
REMARK    3  A    between atoms: C_5  and  N_6
REMARK    4  A    between atoms: C_12  and  C_15
REMARK    5  A    between atoms: C_16  and  C_21
REMARK                            x       y       z     vdW  Elec       q    Type
REMARK                         _______ _______ _______ _____ _____    ______ ____
ROOT
ATOM      1  N   UNL     1       8.693  -0.580  24.859  0.00  0.00    -0.269 N 
ATOM      2  H   UNL     1       8.751  -0.601  25.877  0.00  0.00    +0.156 HD
ATOM      3  C   UNL     1       8.880  -1.842  24.336  0.00  0.00    +0.306 C 
ATOM      4  N   UNL     1       8.384  -2.839  25.187  0.00  0.00    -0.285 N 
ATOM      5  C   UNL     1       7.040  -2.689  25.743  0.00  0.00    +0.110 C 
ATOM      6  C   UNL     1       6.807  -3.599  26.939  0.00  0.00    +0.027 C 
ATOM      7  C   UNL     1       7.097  -5.074  26.621  0.00  0.00    +0.023 C 
ATOM      8  C   UNL     1       8.501  -5.196  25.989  0.00  0.00    +0.027 C 
ATOM      9  C   UNL     1       8.814  -4.191  24.883  0.00  0.00    +0.110 C 
ATOM     10  O   UNL     1       9.501  -2.083  23.305  0.00  0.00    -0.252 OA
ENDROOT
BRANCH   1  16
ATOM     11  C   UNL     1       8.403   1.407  23.473  0.00  0.00    +0.080 A 
ATOM     12  C   UNL     1       8.950   2.517  22.815  0.00  0.00    +0.017 A 
ATOM     13  C   UNL     1      10.309   2.805  22.949  0.00  0.00    +0.001 A 
ATOM     14  C   UNL     1      11.123   1.993  23.739  0.00  0.00    +0.002 A 
ATOM     15  C   UNL     1      10.585   0.885  24.396  0.00  0.00    +0.024 A 
ATOM     16  C   UNL     1       9.228   0.578  24.255  0.00  0.00    +0.049 A 
BRANCH  11  17
ATOM     17  C   UNL     1       6.950   1.115  23.382  0.00  0.00    +0.339 C 
ATOM     18  O   UNL     1       6.100   1.822  23.898  0.00  0.00    -0.245 OA
BRANCH  17  19
ATOM     19  O   UNL     1       6.655   0.048  22.611  0.00  0.00    -0.477 OA
ATOM     20  H   UNL     1       7.011   0.089  21.704  0.00  0.00    +0.295 HD
ENDBRANCH  17  19
ENDBRANCH  11  17
ENDBRANCH   1  16
BRANCH   7  21
ATOM     21  C   UNL     1       5.937  -5.765  25.899  0.00  0.00    -0.033 A 
ATOM     22  C   UNL     1       5.861  -5.758  24.492  0.00  0.00    +0.004 A 
ATOM     23  C   UNL     1       4.853  -6.428  23.794  0.00  0.00    +0.000 A 
ATOM     24  C   UNL     1       3.886  -7.130  24.483  0.00  0.00    +0.001 A 
ATOM     25  C   UNL     1       3.910  -7.136  25.874  0.00  0.00    +0.012 A 
ATOM     26  C   UNL     1       4.916  -6.453  26.605  0.00  0.00    +0.058 A 
BRANCH  26  27
ATOM     27  C   UNL     1       4.786  -6.548  28.115  0.00  0.00    +0.418 C 
ATOM     28  F   UNL     1       4.701  -5.317  28.699  0.00  0.00    -0.166 F 
ATOM     29  F   UNL     1       5.878  -7.143  28.680  0.00  0.00    -0.166 F 
ATOM     30  F   UNL     1       3.719  -7.246  28.585  0.00  0.00    -0.166 F 
ENDBRANCH  26  27
ENDBRANCH   7  21
TORSDOF 5
ENDMDL
MODEL 6
REMARK VINA RESULT:      -7.1      2.288      3.205
REMARK  Name = 
REMARK  5 active torsions:
REMARK  status: ('A' for Active; 'I' for Inactive)
REMARK    1  A    between atoms: O_1  and  C_2
REMARK    2  A    between atoms: C_2  and  C_4
REMARK    3  A    between atoms: C_5  and  N_6
REMARK    4  A    between atoms: C_12  and  C_15
REMARK    5  A    between atoms: C_16  and  C_21
REMARK                            x       y       z     vdW  Elec       q    Type
REMARK                         _______ _______ _______ _____ _____    ______ ____
ROOT
ATOM      1  N   UNL     1       8.434   1.364  24.679  0.00  0.00    -0.269 N 
ATOM      2  H   UNL     1       9.241   0.879  25.071  0.00  0.00    +0.156 HD
ATOM      3  C   UNL     1       7.922   0.665  23.606  0.00  0.00    +0.306 C 
ATOM      4  N   UNL     1       8.078  -0.719  23.762  0.00  0.00    -0.285 N 
ATOM      5  C   UNL     1       7.691  -1.335  25.031  0.00  0.00    +0.110 C 
ATOM      6  C   UNL     1       8.289  -2.723  25.202  0.00  0.00    +0.027 C 
ATOM      7  C   UNL     1       7.958  -3.655  24.027  0.00  0.00    +0.023 C 
ATOM      8  C   UNL     1       8.329  -2.959  22.699  0.00  0.00    +0.027 C 
ATOM      9  C   UNL     1       7.866  -1.511  22.564  0.00  0.00    +0.110 C 
ATOM     10  O   UNL     1       7.479   1.183  22.585  0.00  0.00    -0.252 OA
ENDROOT
BRANCH   1  16
ATOM     11  C   UNL     1       9.579   3.419  24.034  0.00  0.00    +0.080 A 
ATOM     12  C   UNL     1       9.706   4.813  24.110  0.00  0.00    +0.017 A 
ATOM     13  C   UNL     1       8.769   5.558  24.829  0.00  0.00    +0.001 A 
ATOM     14  C   UNL     1       7.708   4.918  25.470  0.00  0.00    +0.002 A 
ATOM     15  C   UNL     1       7.578   3.529  25.399  0.00  0.00    +0.024 A 
ATOM     16  C   UNL     1       8.519   2.773  24.694  0.00  0.00    +0.049 A 
BRANCH  11  17
ATOM     17  C   UNL     1      10.538   2.618  23.232  0.00  0.00    +0.339 C 
ATOM     18  O   UNL     1      11.441   1.969  23.735  0.00  0.00    -0.245 OA
BRANCH  17  19
ATOM     19  O   UNL     1      10.271   2.608  21.910  0.00  0.00    -0.477 OA
ATOM     20  H   UNL     1      10.355   3.475  21.470  0.00  0.00    +0.295 HD
ENDBRANCH  17  19
ENDBRANCH  11  17
ENDBRANCH   1  16
BRANCH   7  21
ATOM     21  C   UNL     1       6.560  -4.271  24.134  0.00  0.00    -0.033 A 
ATOM     22  C   UNL     1       5.627  -3.776  25.067  0.00  0.00    +0.004 A 
ATOM     23  C   UNL     1       4.323  -4.269  25.154  0.00  0.00    +0.000 A 
ATOM     24  C   UNL     1       3.907  -5.275  24.306  0.00  0.00    +0.001 A 
ATOM     25  C   UNL     1       4.808  -5.809  23.390  0.00  0.00    +0.012 A 
ATOM     26  C   UNL     1       6.141  -5.334  23.291  0.00  0.00    +0.058 A 
BRANCH  26  27
ATOM     27  C   UNL     1       6.997  -6.036  22.252  0.00  0.00    +0.418 C 
ATOM     28  F   UNL     1       7.122  -5.299  21.110  0.00  0.00    -0.166 F 
ATOM     29  F   UNL     1       6.443  -7.221  21.859  0.00  0.00    -0.166 F 
ATOM     30  F   UNL     1       8.266  -6.345  22.625  0.00  0.00    -0.166 F 
ENDBRANCH  26  27
ENDBRANCH   7  21
TORSDOF 5
ENDMDL
MODEL 7
REMARK VINA RESULT:      -7.1      2.109      2.546
REMARK  Name = 
REMARK  5 active torsions:
REMARK  status: ('A' for Active; 'I' for Inactive)
REMARK    1  A    between atoms: O_1  and  C_2
REMARK    2  A    between atoms: C_2  and  C_4
REMARK    3  A    between atoms: C_5  and  N_6
REMARK    4  A    between atoms: C_12  and  C_15
REMARK    5  A    between atoms: C_16  and  C_21
REMARK                            x       y       z     vdW  Elec       q    Type
REMARK                         _______ _______ _______ _____ _____    ______ ____
ROOT
ATOM      1  N   UNL     1       9.217   2.137  24.358  0.00  0.00    -0.269 N 
ATOM      2  H   UNL     1      10.001   1.570  24.682  0.00  0.00    +0.156 HD
ATOM      3  C   UNL     1       8.549   1.501  23.334  0.00  0.00    +0.306 C 
ATOM      4  N   UNL     1       8.576   0.107  23.479  0.00  0.00    -0.285 N 
ATOM      5  C   UNL     1       8.237  -0.475  24.777  0.00  0.00    +0.110 C 
ATOM      6  C   UNL     1       8.704  -1.918  24.900  0.00  0.00    +0.027 C 
ATOM      7  C   UNL     1       8.182  -2.804  23.759  0.00  0.00    +0.023 C 
ATOM      8  C   UNL     1       8.509  -2.140  22.403  0.00  0.00    +0.027 C 
ATOM      9  C   UNL     1       8.186  -0.651  22.305  0.00  0.00    +0.110 C 
ATOM     10  O   UNL     1       8.077   2.067  22.353  0.00  0.00    -0.252 OA
ENDROOT
BRANCH   1  16
ATOM     11  C   UNL     1       8.535   4.389  25.004  0.00  0.00    +0.080 A 
ATOM     12  C   UNL     1       8.724   5.777  24.948  0.00  0.00    +0.017 A 
ATOM     13  C   UNL     1       9.825   6.302  24.270  0.00  0.00    +0.001 A 
ATOM     14  C   UNL     1      10.739   5.449  23.651  0.00  0.00    +0.002 A 
ATOM     15  C   UNL     1      10.555   4.065  23.701  0.00  0.00    +0.024 A 
ATOM     16  C   UNL     1       9.447   3.530  24.364  0.00  0.00    +0.049 A 
BRANCH  11  17
ATOM     17  C   UNL     1       7.397   3.812  25.763  0.00  0.00    +0.339 C 
ATOM     18  O   UNL     1       6.242   3.877  25.374  0.00  0.00    -0.245 OA
BRANCH  17  19
ATOM     19  O   UNL     1       7.764   3.144  26.876  0.00  0.00    -0.477 OA
ATOM     20  H   UNL     1       8.600   3.448  27.277  0.00  0.00    +0.295 HD
ENDBRANCH  17  19
ENDBRANCH  11  17
ENDBRANCH   1  16
BRANCH   7  21
ATOM     21  C   UNL     1       6.742  -3.275  23.984  0.00  0.00    -0.033 A 
ATOM     22  C   UNL     1       5.841  -2.495  24.735  0.00  0.00    +0.004 A 
ATOM     23  C   UNL     1       4.504  -2.860  24.913  0.00  0.00    +0.000 A 
ATOM     24  C   UNL     1       4.023  -4.020  24.340  0.00  0.00    +0.001 A 
ATOM     25  C   UNL     1       4.890  -4.831  23.615  0.00  0.00    +0.012 A 
ATOM     26  C   UNL     1       6.255  -4.488  23.432  0.00  0.00    +0.058 A 
BRANCH  26  27
ATOM     27  C   UNL     1       7.065  -5.491  22.629  0.00  0.00    +0.418 C 
ATOM     28  F   UNL     1       7.378  -5.018  21.388  0.00  0.00    -0.166 F 
ATOM     29  F   UNL     1       6.368  -6.646  22.413  0.00  0.00    -0.166 F 
ATOM     30  F   UNL     1       8.245  -5.886  23.175  0.00  0.00    -0.166 F 
ENDBRANCH  26  27
ENDBRANCH   7  21
TORSDOF 5
ENDMDL
MODEL 8
REMARK VINA RESULT:      -7.1      1.568      2.162
REMARK  Name = 
REMARK  5 active torsions:
REMARK  status: ('A' for Active; 'I' for Inactive)
REMARK    1  A    between atoms: O_1  and  C_2
REMARK    2  A    between atoms: C_2  and  C_4
REMARK    3  A    between atoms: C_5  and  N_6
REMARK    4  A    between atoms: C_12  and  C_15
REMARK    5  A    between atoms: C_16  and  C_21
REMARK                            x       y       z     vdW  Elec       q    Type
REMARK                         _______ _______ _______ _____ _____    ______ ____
ROOT
ATOM      1  N   UNL     1       8.090   1.441  24.269  0.00  0.00    -0.269 N 
ATOM      2  H   UNL     1       8.159   1.187  25.254  0.00  0.00    +0.156 HD
ATOM      3  C   UNL     1       8.675   0.477  23.477  0.00  0.00    +0.306 C 
ATOM      4  N   UNL     1       8.538  -0.806  24.027  0.00  0.00    -0.285 N 
ATOM      5  C   UNL     1       7.223  -1.234  24.502  0.00  0.00    +0.110 C 
ATOM      6  C   UNL     1       7.309  -2.438  25.426  0.00  0.00    +0.027 C 
ATOM      7  C   UNL     1       8.062  -3.616  24.789  0.00  0.00    +0.023 C 
ATOM      8  C   UNL     1       9.424  -3.124  24.252  0.00  0.00    +0.027 C 
ATOM      9  C   UNL     1       9.384  -1.830  23.443  0.00  0.00    +0.110 C 
ATOM     10  O   UNL     1       9.332   0.710  22.467  0.00  0.00    -0.252 OA
ENDROOT
BRANCH   1  16
ATOM     11  C   UNL     1       7.103   3.546  23.529  0.00  0.00    +0.080 A 
ATOM     12  C   UNL     1       7.242   4.900  23.193  0.00  0.00    +0.017 A 
ATOM     13  C   UNL     1       8.480   5.528  23.339  0.00  0.00    +0.001 A 
ATOM     14  C   UNL     1       9.576   4.814  23.822  0.00  0.00    +0.002 A 
ATOM     15  C   UNL     1       9.444   3.464  24.157  0.00  0.00    +0.024 A 
ATOM     16  C   UNL     1       8.212   2.821  23.999  0.00  0.00    +0.049 A 
BRANCH  11  17
ATOM     17  C   UNL     1       5.782   2.876  23.427  0.00  0.00    +0.339 C 
ATOM     18  O   UNL     1       4.805   3.239  24.062  0.00  0.00    -0.245 OA
BRANCH  17  19
ATOM     19  O   UNL     1       5.741   1.884  22.513  0.00  0.00    -0.477 OA
ATOM     20  H   UNL     1       4.994   1.937  21.888  0.00  0.00    +0.295 HD
ENDBRANCH  17  19
ENDBRANCH  11  17
ENDBRANCH   1  16
BRANCH   7  21
ATOM     21  C   UNL     1       7.186  -4.438  23.839  0.00  0.00    -0.033 A 
ATOM     22  C   UNL     1       7.291  -4.275  22.444  0.00  0.00    +0.004 A 
ATOM     23  C   UNL     1       6.554  -5.047  21.543  0.00  0.00    +0.000 A 
ATOM     24  C   UNL     1       5.686  -6.012  22.011  0.00  0.00    +0.001 A 
ATOM     25  C   UNL     1       5.532  -6.183  23.382  0.00  0.00    +0.012 A 
ATOM     26  C   UNL     1       6.261  -5.402  24.317  0.00  0.00    +0.058 A 
BRANCH  26  27
ATOM     27  C   UNL     1       5.963  -5.705  25.775  0.00  0.00    +0.418 C 
ATOM     28  F   UNL     1       5.209  -4.727  26.356  0.00  0.00    -0.166 F 
ATOM     29  F   UNL     1       7.105  -5.775  26.520  0.00  0.00    -0.166 F 
ATOM     30  F   UNL     1       5.304  -6.867  26.026  0.00  0.00    -0.166 F 
ENDBRANCH  26  27
ENDBRANCH   7  21
TORSDOF 5
ENDMDL
MODEL 9
REMARK VINA RESULT:      -7.0      4.266      8.383
REMARK  Name = 
REMARK  5 active torsions:
REMARK  status: ('A' for Active; 'I' for Inactive)
REMARK    1  A    between atoms: O_1  and  C_2
REMARK    2  A    between atoms: C_2  and  C_4
REMARK    3  A    between atoms: C_5  and  N_6
REMARK    4  A    between atoms: C_12  and  C_15
REMARK    5  A    between atoms: C_16  and  C_21
REMARK                            x       y       z     vdW  Elec       q    Type
REMARK                         _______ _______ _______ _____ _____    ______ ____
ROOT
ATOM      1  N   UNL     1       6.974  -1.432  23.989  0.00  0.00    -0.269 N 
ATOM      2  H   UNL     1       7.423  -1.518  23.077  0.00  0.00    +0.156 HD
ATOM      3  C   UNL     1       7.809  -0.797  24.884  0.00  0.00    +0.306 C 
ATOM      4  N   UNL     1       8.623   0.155  24.254  0.00  0.00    -0.285 N 
ATOM      5  C   UNL     1       8.010   1.108  23.330  0.00  0.00    +0.110 C 
ATOM      6  C   UNL     1       9.036   1.780  22.431  0.00  0.00    +0.027 C 
ATOM      7  C   UNL     1      10.166   2.451  23.228  0.00  0.00    +0.023 C 
ATOM      8  C   UNL     1      10.761   1.436  24.229  0.00  0.00    +0.027 C 
ATOM      9  C   UNL     1       9.742   0.639  25.040  0.00  0.00    +0.110 C 
ATOM     10  O   UNL     1       7.914  -1.094  26.070  0.00  0.00    -0.252 OA
ENDROOT
BRANCH   1  16
ATOM     11  C   UNL     1       6.563  -3.836  24.052  0.00  0.00    +0.080 A 
ATOM     12  C   UNL     1       5.720  -4.915  24.352  0.00  0.00    +0.017 A 
ATOM     13  C   UNL     1       4.488  -4.686  24.967  0.00  0.00    +0.001 A 
ATOM     14  C   UNL     1       4.095  -3.385  25.285  0.00  0.00    +0.002 A 
ATOM     15  C   UNL     1       4.930  -2.306  24.987  0.00  0.00    +0.024 A 
ATOM     16  C   UNL     1       6.159  -2.523  24.357  0.00  0.00    +0.049 A 
BRANCH  11  17
ATOM     17  C   UNL     1       7.897  -4.067  23.444  0.00  0.00    +0.339 C 
ATOM     18  O   UNL     1       8.730  -4.808  23.940  0.00  0.00    -0.245 OA
BRANCH  17  19
ATOM     19  O   UNL     1       8.073  -3.448  22.259  0.00  0.00    -0.477 OA
ATOM     20  H   UNL     1       8.542  -2.593  22.310  0.00  0.00    +0.295 HD
ENDBRANCH  17  19
ENDBRANCH  11  17
ENDBRANCH   1  16
BRANCH   7  21
ATOM     21  C   UNL     1       9.774   3.829  23.769  0.00  0.00    -0.033 A 
ATOM     22  C   UNL     1       8.480   4.059  24.276  0.00  0.00    +0.004 A 
ATOM     23  C   UNL     1       8.101   5.282  24.833  0.00  0.00    +0.000 A 
ATOM     24  C   UNL     1       9.010   6.319  24.905  0.00  0.00    +0.001 A 
ATOM     25  C   UNL     1      10.289   6.139  24.389  0.00  0.00    +0.012 A 
ATOM     26  C   UNL     1      10.693   4.910  23.806  0.00  0.00    +0.058 A 
BRANCH  26  27
ATOM     27  C   UNL     1      12.116   4.888  23.278  0.00  0.00    +0.418 C 
ATOM     28  F   UNL     1      12.786   3.762  23.659  0.00  0.00    -0.166 F 
ATOM     29  F   UNL     1      12.852   5.930  23.765  0.00  0.00    -0.166 F 
ATOM     30  F   UNL     1      12.258   4.955  21.928  0.00  0.00    -0.166 F 
ENDBRANCH  26  27
ENDBRANCH   7  21
TORSDOF 5
ENDMDL
