MODEL 1
REMARK VINA RESULT:      -7.1      0.000      0.000
REMARK  Name = 
REMARK  7 active torsions:
REMARK  status: ('A' for Active; 'I' for Inactive)
REMARK    1  A    between atoms: C_2  and  C_3
REMARK    2  A    between atoms: C_3  and  C_4
REMARK    3  A    between atoms: C_4  and  C_5
REMARK    4  A    between atoms: C_5  and  C_6
REMARK    5  A    between atoms: C_6  and  C_7
REMARK    6  A    between atoms: N_9  and  C_10
REMARK    7  A    between atoms: C_13  and  N_16
REMARK                            x       y       z     vdW  Elec       q    Type
REMARK                         _______ _______ _______ _____ _____    ______ ____
ROOT
ATOM      1  C   UNL     1       6.129  -4.095  21.961  0.00  0.00    +0.009 C 
ENDROOT
BRANCH   1   2
ATOM      2  C   UNL     1       5.449  -5.012  22.986  0.00  0.00    +0.002 C 
BRANCH   2   3
ATOM      3  C   UNL     1       6.454  -5.528  24.020  0.00  0.00    +0.016 C 
BRANCH   3   4
ATOM      4  C   UNL     1       6.020  -5.317  25.486  0.00  0.00    +0.069 C 
ATOM      5  C   UNL     1       7.167  -5.267  26.531  0.00  0.00    +0.108 C 
ATOM      6  C   UNL     1       7.506  -3.803  26.829  0.00  0.00    +0.105 C 
ATOM      7  N   UNL     1       8.523  -3.516  25.844  0.00  0.00    -0.294 N 
ATOM      8  H   UNL     1       9.018  -2.640  25.736  0.00  0.00    +0.151 HD
ATOM      9  C   UNL     1       9.189  -4.693  25.527  0.00  0.00    +0.300 C 
ATOM     10  O   UNL     1      10.230  -4.787  24.908  0.00  0.00    -0.253 OA
ATOM     11  C   UNL     1       6.256  -2.953  26.803  0.00  0.00    +0.093 C 
ATOM     12  N   UNL     1       8.442  -5.746  26.040  0.00  0.00    -0.294 N 
ATOM     13  H   UNL     1       8.685  -6.701  25.814  0.00  0.00    +0.151 HD
ATOM     14  S   UNL     1       5.086  -3.753  25.685  0.00  0.00    -0.154 S 
ENDBRANCH   3   4
ENDBRANCH   2   3
ENDBRANCH   1   2
BRANCH   1  15
ATOM     15  C   UNL     1       7.602  -3.853  22.282  0.00  0.00    +0.096 C 
BRANCH  15  16
ATOM     16  C   UNL     1       7.867  -2.418  22.691  0.00  0.00    +0.217 C 
ATOM     17  N   UNL     1       9.054  -1.898  22.195  0.00  0.00    -0.285 N 
ATOM     18  H   UNL     1       9.473  -2.378  21.409  0.00  0.00    +0.155 HD
ATOM     19  O   UNL     1       7.063  -1.823  23.403  0.00  0.00    -0.275 OA
BRANCH  17  20
ATOM     20  C   UNL     1       9.537  -0.607  22.500  0.00  0.00    +0.034 A 
ATOM     21  C   UNL     1       9.289   0.430  21.593  0.00  0.00    +0.030 A 
ATOM     22  C   UNL     1       9.658   1.747  21.909  0.00  0.00    +0.086 A 
ATOM     23  C   UNL     1      10.312   2.009  23.120  0.00  0.00    +0.273 A 
ATOM     24  C   UNL     1      10.631   0.967  23.994  0.00  0.00    +0.086 A 
ATOM     25  C   UNL     1      10.245  -0.336  23.675  0.00  0.00    +0.030 A 
BRANCH  23  26
ATOM     26  N   UNL     1      10.649   3.389  23.489  0.00  0.00    +0.080 N 
ATOM     27  O   UNL     1       9.731   4.115  23.898  0.00  0.00    +0.041 OA
ATOM     28  O   UNL     1      11.830   3.747  23.375  0.00  0.00    -0.576 OA
ENDBRANCH  23  26
ENDBRANCH  17  20
ENDBRANCH  15  16
ENDBRANCH   1  15
TORSDOF 7
ENDMDL
MODEL 2
REMARK VINA RESULT:      -6.7      3.297      7.727
REMARK  Name = 
REMARK  7 active torsions:
REMARK  status: ('A' for Active; 'I' for Inactive)
REMARK    1  A    between atoms: C_2  and  C_3
REMARK    2  A    between atoms: C_3  and  C_4
REMARK    3  A    between atoms: C_4  and  C_5
REMARK    4  A    between atoms: C_5  and  C_6
REMARK    5  A    between atoms: C_6  and  C_7
REMARK    6  A    between atoms: N_9  and  C_10
REMARK    7  A    between atoms: C_13  and  N_16
REMARK                            x       y       z     vdW  Elec       q    Type
REMARK                         _______ _______ _______ _____ _____    ______ ____
ROOT
ATOM      1  C   UNL     1       9.680  -1.518  22.367  0.00  0.00    +0.009 C 
ENDROOT
BRANCH   1   2
ATOM      2  C   UNL     1      10.094  -0.056  22.156  0.00  0.00    +0.002 C 
BRANCH   2   3
ATOM      3  C   UNL     1       9.007   0.725  21.410  0.00  0.00    +0.016 C 
BRANCH   3   4
ATOM      4  C   UNL     1       8.693   2.109  22.017  0.00  0.00    +0.069 C 
ATOM      5  C   UNL     1       7.365   2.214  22.813  0.00  0.00    +0.108 C 
ATOM      6  C   UNL     1       7.667   2.061  24.308  0.00  0.00    +0.105 C 
ATOM      7  N   UNL     1       7.555   0.633  24.499  0.00  0.00    -0.294 N 
ATOM      8  H   UNL     1       7.666   0.138  25.375  0.00  0.00    +0.151 HD
ATOM      9  C   UNL     1       6.671   0.120  23.559  0.00  0.00    +0.300 C 
ATOM     10  O   UNL     1       6.179  -0.991  23.565  0.00  0.00    -0.253 OA
ATOM     11  C   UNL     1       8.991   2.705  24.650  0.00  0.00    +0.093 C 
ATOM     12  N   UNL     1       6.457   1.106  22.605  0.00  0.00    -0.294 N 
ATOM     13  H   UNL     1       5.938   0.896  21.762  0.00  0.00    +0.151 HD
ATOM     14  S   UNL     1      10.016   2.649  23.165  0.00  0.00    -0.154 S 
ENDBRANCH   3   4
ENDBRANCH   2   3
ENDBRANCH   1   2
BRANCH   1  15
ATOM     15  C   UNL     1      10.111  -2.055  23.730  0.00  0.00    +0.096 C 
BRANCH  15  16
ATOM     16  C   UNL     1       9.352  -3.309  24.113  0.00  0.00    +0.217 C 
ATOM     17  N   UNL     1       7.988  -3.242  23.870  0.00  0.00    -0.285 N 
ATOM     18  H   UNL     1       7.670  -2.531  23.224  0.00  0.00    +0.155 HD
ATOM     19  O   UNL     1       9.950  -4.267  24.596  0.00  0.00    -0.275 OA
BRANCH  17  20
ATOM     20  C   UNL     1       7.075  -4.265  24.210  0.00  0.00    +0.034 A 
ATOM     21  C   UNL     1       6.777  -4.470  25.562  0.00  0.00    +0.030 A 
ATOM     22  C   UNL     1       5.797  -5.403  25.935  0.00  0.00    +0.086 A 
ATOM     23  C   UNL     1       5.147  -6.154  24.947  0.00  0.00    +0.273 A 
ATOM     24  C   UNL     1       5.496  -6.008  23.602  0.00  0.00    +0.086 A 
ATOM     25  C   UNL     1       6.461  -5.066  23.244  0.00  0.00    +0.030 A 
BRANCH  23  26
ATOM     26  N   UNL     1       4.079  -7.088  25.319  0.00  0.00    +0.080 N 
ATOM     27  O   UNL     1       3.648  -7.037  26.480  0.00  0.00    +0.041 OA
ATOM     28  O   UNL     1       3.664  -7.869  24.450  0.00  0.00    -0.576 OA
ENDBRANCH  23  26
ENDBRANCH  17  20
ENDBRANCH  15  16
ENDBRANCH   1  15
TORSDOF 7
ENDMDL
MODEL 3
REMARK VINA RESULT:      -6.6      3.200      8.342
REMARK  Name = 
REMARK  7 active torsions:
REMARK  status: ('A' for Active; 'I' for Inactive)
REMARK    1  A    between atoms: C_2  and  C_3
REMARK    2  A    between atoms: C_3  and  C_4
REMARK    3  A    between atoms: C_4  and  C_5
REMARK    4  A    between atoms: C_5  and  C_6
REMARK    5  A    between atoms: C_6  and  C_7
REMARK    6  A    between atoms: N_9  and  C_10
REMARK    7  A    between atoms: C_13  and  N_16
REMARK                            x       y       z     vdW  Elec       q    Type
REMARK                         _______ _______ _______ _____ _____    ______ ____
ROOT
ATOM      1  C   UNL     1      10.093   1.198  22.240  0.00  0.00    +0.009 C 
ENDROOT
BRANCH   1   2
ATOM      2  C   UNL     1       9.035   2.307  22.318  0.00  0.00    +0.002 C 
BRANCH   2   3
ATOM      3  C   UNL     1       8.958   2.901  23.729  0.00  0.00    +0.016 C 
BRANCH   3   4
ATOM      4  C   UNL     1       7.799   3.901  23.933  0.00  0.00    +0.069 C 
ATOM      5  C   UNL     1       8.205   5.315  24.425  0.00  0.00    +0.108 C 
ATOM      6  C   UNL     1       8.289   6.258  23.220  0.00  0.00    +0.105 C 
ATOM      7  N   UNL     1       9.667   6.112  22.812  0.00  0.00    -0.294 N 
ATOM      8  H   UNL     1      10.117   6.601  22.048  0.00  0.00    +0.151 HD
ATOM      9  C   UNL     1      10.432   5.770  23.919  0.00  0.00    +0.300 C 
ATOM     10  O   UNL     1      11.645   5.782  23.987  0.00  0.00    -0.253 OA
ATOM     11  C   UNL     1       7.223   5.915  22.204  0.00  0.00    +0.093 C 
ATOM     12  N   UNL     1       9.558   5.404  24.933  0.00  0.00    -0.294 N 
ATOM     13  H   UNL     1       9.912   5.001  25.791  0.00  0.00    +0.151 HD
ATOM     14  S   UNL     1       6.859   4.156  22.381  0.00  0.00    -0.154 S 
ENDBRANCH   3   4
ENDBRANCH   2   3
ENDBRANCH   1   2
BRANCH   1  15
ATOM     15  C   UNL     1       9.603  -0.021  21.464  0.00  0.00    +0.096 C 
BRANCH  15  16
ATOM     16  C   UNL     1       9.558  -1.265  22.327  0.00  0.00    +0.217 C 
ATOM     17  N   UNL     1       8.323  -1.505  22.911  0.00  0.00    -0.285 N 
ATOM     18  H   UNL     1       7.523  -1.036  22.505  0.00  0.00    +0.155 HD
ATOM     19  O   UNL     1      10.563  -1.958  22.461  0.00  0.00    -0.275 OA
BRANCH  17  20
ATOM     20  C   UNL     1       8.067  -2.567  23.806  0.00  0.00    +0.034 A 
ATOM     21  C   UNL     1       8.154  -2.316  25.181  0.00  0.00    +0.030 A 
ATOM     22  C   UNL     1       7.804  -3.313  26.104  0.00  0.00    +0.086 A 
ATOM     23  C   UNL     1       7.405  -4.573  25.641  0.00  0.00    +0.273 A 
ATOM     24  C   UNL     1       7.389  -4.853  24.272  0.00  0.00    +0.086 A 
ATOM     25  C   UNL     1       7.725  -3.848  23.364  0.00  0.00    +0.030 A 
BRANCH  23  26
ATOM     26  N   UNL     1       6.978  -5.605  26.594  0.00  0.00    +0.080 N 
ATOM     27  O   UNL     1       6.005  -6.307  26.283  0.00  0.00    +0.041 OA
ATOM     28  O   UNL     1       7.618  -5.719  27.649  0.00  0.00    -0.576 OA
ENDBRANCH  23  26
ENDBRANCH  17  20
ENDBRANCH  15  16
ENDBRANCH   1  15
TORSDOF 7
ENDMDL
MODEL 4
REMARK VINA RESULT:      -6.5      3.325      7.250
REMARK  Name = 
REMARK  7 active torsions:
REMARK  status: ('A' for Active; 'I' for Inactive)
REMARK    1  A    between atoms: C_2  and  C_3
REMARK    2  A    between atoms: C_3  and  C_4
REMARK    3  A    between atoms: C_4  and  C_5
REMARK    4  A    between atoms: C_5  and  C_6
REMARK    5  A    between atoms: C_6  and  C_7
REMARK    6  A    between atoms: N_9  and  C_10
REMARK    7  A    between atoms: C_13  and  N_16
REMARK                            x       y       z     vdW  Elec       q    Type
REMARK                         _______ _______ _______ _____ _____    ______ ____
ROOT
ATOM      1  C   UNL     1      10.171   0.385  22.829  0.00  0.00    +0.009 C 
ENDROOT
BRANCH   1   2
ATOM      2  C   UNL     1       9.905   1.581  21.906  0.00  0.00    +0.002 C 
BRANCH   2   3
ATOM      3  C   UNL     1       8.402   1.827  21.737  0.00  0.00    +0.016 C 
BRANCH   3   4
ATOM      4  C   UNL     1       7.874   3.066  22.492  0.00  0.00    +0.069 C 
ATOM      5  C   UNL     1       6.627   2.833  23.385  0.00  0.00    +0.108 C 
ATOM      6  C   UNL     1       7.083   2.628  24.834  0.00  0.00    +0.105 C 
ATOM      7  N   UNL     1       7.273   1.198  24.897  0.00  0.00    -0.294 N 
ATOM      8  H   UNL     1       7.556   0.670  25.713  0.00  0.00    +0.151 HD
ATOM      9  C   UNL     1       6.429   0.589  23.977  0.00  0.00    +0.300 C 
ATOM     10  O   UNL     1       6.170  -0.597  23.913  0.00  0.00    -0.253 OA
ATOM     11  C   UNL     1       8.277   3.502  25.142  0.00  0.00    +0.093 C 
ATOM     12  N   UNL     1       5.942   1.582  23.138  0.00  0.00    -0.294 N 
ATOM     13  H   UNL     1       5.403   1.337  22.317  0.00  0.00    +0.151 HD
ATOM     14  S   UNL     1       9.159   3.774  23.590  0.00  0.00    -0.154 S 
ENDBRANCH   3   4
ENDBRANCH   2   3
ENDBRANCH   1   2
BRANCH   1  15
ATOM     15  C   UNL     1      10.066  -0.951  22.098  0.00  0.00    +0.096 C 
BRANCH  15  16
ATOM     16  C   UNL     1       9.185  -1.936  22.839  0.00  0.00    +0.217 C 
ATOM     17  N   UNL     1       9.540  -2.127  24.167  0.00  0.00    -0.285 N 
ATOM     18  H   UNL     1      10.128  -1.422  24.591  0.00  0.00    +0.155 HD
ATOM     19  O   UNL     1       8.253  -2.487  22.258  0.00  0.00    -0.275 OA
BRANCH  17  20
ATOM     20  C   UNL     1       8.904  -3.047  25.028  0.00  0.00    +0.034 A 
ATOM     21  C   UNL     1       7.972  -2.561  25.952  0.00  0.00    +0.030 A 
ATOM     22  C   UNL     1       7.240  -3.452  26.752  0.00  0.00    +0.086 A 
ATOM     23  C   UNL     1       7.478  -4.829  26.647  0.00  0.00    +0.273 A 
ATOM     24  C   UNL     1       8.461  -5.314  25.782  0.00  0.00    +0.086 A 
ATOM     25  C   UNL     1       9.171  -4.418  24.982  0.00  0.00    +0.030 A 
BRANCH  23  26
ATOM     26  N   UNL     1       6.677  -5.775  27.434  0.00  0.00    +0.080 N 
ATOM     27  O   UNL     1       6.768  -5.716  28.669  0.00  0.00    +0.041 OA
ATOM     28  O   UNL     1       5.954  -6.571  26.820  0.00  0.00    -0.576 OA
ENDBRANCH  23  26
ENDBRANCH  17  20
ENDBRANCH  15  16
ENDBRANCH   1  15
TORSDOF 7
ENDMDL
MODEL 5
REMARK VINA RESULT:      -6.4      3.145      7.041
REMARK  Name = 
REMARK  7 active torsions:
REMARK  status: ('A' for Active; 'I' for Inactive)
REMARK    1  A    between atoms: C_2  and  C_3
REMARK    2  A    between atoms: C_3  and  C_4
REMARK    3  A    between atoms: C_4  and  C_5
REMARK    4  A    between atoms: C_5  and  C_6
REMARK    5  A    between atoms: C_6  and  C_7
REMARK    6  A    between atoms: N_9  and  C_10
REMARK    7  A    between atoms: C_13  and  N_16
REMARK                            x       y       z     vdW  Elec       q    Type
REMARK                         _______ _______ _______ _____ _____    ______ ____
ROOT
ATOM      1  C   UNL     1       9.612   0.915  21.856  0.00  0.00    +0.009 C 
ENDROOT
BRANCH   1   2
ATOM      2  C   UNL     1       8.395   1.755  21.448  0.00  0.00    +0.002 C 
BRANCH   2   3
ATOM      3  C   UNL     1       7.172   1.409  22.303  0.00  0.00    +0.016 C 
BRANCH   3   4
ATOM      4  C   UNL     1       6.596   2.601  23.098  0.00  0.00    +0.069 C 
ATOM      5  C   UNL     1       6.789   2.544  24.637  0.00  0.00    +0.108 C 
ATOM      6  C   UNL     1       8.012   3.383  25.018  0.00  0.00    +0.105 C 
ATOM      7  N   UNL     1       9.083   2.416  24.947  0.00  0.00    -0.294 N 
ATOM      8  H   UNL     1      10.058   2.589  25.156  0.00  0.00    +0.151 HD
ATOM      9  C   UNL     1       8.567   1.152  25.207  0.00  0.00    +0.300 C 
ATOM     10  O   UNL     1       9.209   0.147  25.441  0.00  0.00    -0.253 OA
ATOM     11  C   UNL     1       8.117   4.601  24.128  0.00  0.00    +0.093 C 
ATOM     12  N   UNL     1       7.183   1.245  25.140  0.00  0.00    -0.294 N 
ATOM     13  H   UNL     1       6.614   0.410  25.178  0.00  0.00    +0.151 HD
ATOM     14  S   UNL     1       7.340   4.185  22.553  0.00  0.00    -0.154 S 
ENDBRANCH   3   4
ENDBRANCH   2   3
ENDBRANCH   1   2
BRANCH   1  15
ATOM     15  C   UNL     1       9.566  -0.497  21.279  0.00  0.00    +0.096 C 
BRANCH  15  16
ATOM     16  C   UNL     1       9.388  -1.546  22.358  0.00  0.00    +0.217 C 
ATOM     17  N   UNL     1       8.072  -1.946  22.546  0.00  0.00    -0.285 N 
ATOM     18  H   UNL     1       7.419  -1.745  21.801  0.00  0.00    +0.155 HD
ATOM     19  O   UNL     1      10.362  -1.965  22.977  0.00  0.00    -0.275 OA
BRANCH  17  20
ATOM     20  C   UNL     1       7.662  -2.861  23.540  0.00  0.00    +0.034 A 
ATOM     21  C   UNL     1       7.751  -4.231  23.264  0.00  0.00    +0.030 A 
ATOM     22  C   UNL     1       7.455  -5.173  24.261  0.00  0.00    +0.086 A 
ATOM     23  C   UNL     1       7.032  -4.734  25.522  0.00  0.00    +0.273 A 
ATOM     24  C   UNL     1       6.868  -3.370  25.780  0.00  0.00    +0.086 A 
ATOM     25  C   UNL     1       7.180  -2.443  24.784  0.00  0.00    +0.030 A 
BRANCH  23  26
ATOM     26  N   UNL     1       6.777  -5.706  26.592  0.00  0.00    +0.080 N 
ATOM     27  O   UNL     1       7.547  -5.706  27.564  0.00  0.00    +0.041 OA
ATOM     28  O   UNL     1       5.806  -6.465  26.465  0.00  0.00    -0.576 OA
ENDBRANCH  23  26
ENDBRANCH  17  20
ENDBRANCH  15  16
ENDBRANCH   1  15
TORSDOF 7
ENDMDL
MODEL 6
REMARK VINA RESULT:      -6.4      2.197      3.092
REMARK  Name = 
REMARK  7 active torsions:
REMARK  status: ('A' for Active; 'I' for Inactive)
REMARK    1  A    between atoms: C_2  and  C_3
REMARK    2  A    between atoms: C_3  and  C_4
REMARK    3  A    between atoms: C_4  and  C_5
REMARK    4  A    between atoms: C_5  and  C_6
REMARK    5  A    between atoms: C_6  and  C_7
REMARK    6  A    between atoms: N_9  and  C_10
REMARK    7  A    between atoms: C_13  and  N_16
REMARK                            x       y       z     vdW  Elec       q    Type
REMARK                         _______ _______ _______ _____ _____    ______ ____
ROOT
ATOM      1  C   UNL     1       8.297  -4.824  24.087  0.00  0.00    +0.009 C 
ENDROOT
BRANCH   1   2
ATOM      2  C   UNL     1       7.338  -4.836  25.284  0.00  0.00    +0.002 C 
BRANCH   2   3
ATOM      3  C   UNL     1       6.112  -3.955  25.021  0.00  0.00    +0.016 C 
BRANCH   3   4
ATOM      4  C   UNL     1       4.784  -4.547  25.540  0.00  0.00    +0.069 C 
ATOM      5  C   UNL     1       3.814  -5.087  24.456  0.00  0.00    +0.108 C 
ATOM      6  C   UNL     1       3.992  -6.604  24.339  0.00  0.00    +0.105 C 
ATOM      7  N   UNL     1       5.023  -6.715  23.332  0.00  0.00    -0.294 N 
ATOM      8  H   UNL     1       5.403  -7.577  22.961  0.00  0.00    +0.151 HD
ATOM      9  C   UNL     1       4.958  -5.609  22.495  0.00  0.00    +0.300 C 
ATOM     10  O   UNL     1       5.522  -5.480  21.427  0.00  0.00    -0.253 OA
ATOM     11  C   UNL     1       4.277  -7.211  25.694  0.00  0.00    +0.093 C 
ATOM     12  N   UNL     1       4.137  -4.671  23.107  0.00  0.00    -0.294 N 
ATOM     13  H   UNL     1       4.052  -3.739  22.722  0.00  0.00    +0.151 HD
ATOM     14  S   UNL     1       5.081  -5.940  26.693  0.00  0.00    -0.154 S 
ENDBRANCH   3   4
ENDBRANCH   2   3
ENDBRANCH   1   2
BRANCH   1  15
ATOM     15  C   UNL     1       8.025  -3.663  23.134  0.00  0.00    +0.096 C 
BRANCH  15  16
ATOM     16  C   UNL     1       8.904  -2.465  23.431  0.00  0.00    +0.217 C 
ATOM     17  N   UNL     1       8.309  -1.243  23.150  0.00  0.00    -0.285 N 
ATOM     18  H   UNL     1       7.302  -1.232  23.060  0.00  0.00    +0.155 HD
ATOM     19  O   UNL     1      10.036  -2.628  23.878  0.00  0.00    -0.275 OA
BRANCH  17  20
ATOM     20  C   UNL     1       8.963   0.001  23.285  0.00  0.00    +0.034 A 
ATOM     21  C   UNL     1       9.643   0.521  22.177  0.00  0.00    +0.030 A 
ATOM     22  C   UNL     1      10.214   1.801  22.236  0.00  0.00    +0.086 A 
ATOM     23  C   UNL     1      10.134   2.539  23.424  0.00  0.00    +0.273 A 
ATOM     24  C   UNL     1       9.524   1.994  24.557  0.00  0.00    +0.086 A 
ATOM     25  C   UNL     1       8.947   0.725  24.480  0.00  0.00    +0.030 A 
BRANCH  23  26
ATOM     26  N   UNL     1      10.674   3.902  23.481  0.00  0.00    +0.080 N 
ATOM     27  O   UNL     1       9.925   4.800  23.892  0.00  0.00    +0.041 OA
ATOM     28  O   UNL     1      11.848   4.075  23.122  0.00  0.00    -0.576 OA
ENDBRANCH  23  26
ENDBRANCH  17  20
ENDBRANCH  15  16
ENDBRANCH   1  15
TORSDOF 7
ENDMDL
MODEL 7
REMARK VINA RESULT:      -6.4      3.475      8.466
REMARK  Name = 
REMARK  7 active torsions:
REMARK  status: ('A' for Active; 'I' for Inactive)
REMARK    1  A    between atoms: C_2  and  C_3
REMARK    2  A    between atoms: C_3  and  C_4
REMARK    3  A    between atoms: C_4  and  C_5
REMARK    4  A    between atoms: C_5  and  C_6
REMARK    5  A    between atoms: C_6  and  C_7
REMARK    6  A    between atoms: N_9  and  C_10
REMARK    7  A    between atoms: C_13  and  N_16
REMARK                            x       y       z     vdW  Elec       q    Type
REMARK                         _______ _______ _______ _____ _____    ______ ____
ROOT
ATOM      1  C   UNL     1      10.569   1.881  23.762  0.00  0.00    +0.009 C 
ENDROOT
BRANCH   1   2
ATOM      2  C   UNL     1       9.190   2.518  23.548  0.00  0.00    +0.002 C 
BRANCH   2   3
ATOM      3  C   UNL     1       8.774   3.359  24.759  0.00  0.00    +0.016 C 
BRANCH   3   4
ATOM      4  C   UNL     1       7.657   4.384  24.465  0.00  0.00    +0.069 C 
ATOM      5  C   UNL     1       8.085   5.876  24.490  0.00  0.00    +0.108 C 
ATOM      6  C   UNL     1       8.352   6.341  23.055  0.00  0.00    +0.105 C 
ATOM      7  N   UNL     1       9.756   6.043  22.892  0.00  0.00    -0.294 N 
ATOM      8  H   UNL     1      10.314   6.231  22.068  0.00  0.00    +0.151 HD
ATOM      9  C   UNL     1      10.376   6.095  24.134  0.00  0.00    +0.300 C 
ATOM     10  O   UNL     1      11.573   6.112  24.341  0.00  0.00    -0.253 OA
ATOM     11  C   UNL     1       7.387   5.683  22.095  0.00  0.00    +0.093 C 
ATOM     12  N   UNL     1       9.376   6.116  25.098  0.00  0.00    -0.294 N 
ATOM     13  H   UNL     1       9.612   6.030  26.078  0.00  0.00    +0.151 HD
ATOM     14  S   UNL     1       6.908   4.099  22.817  0.00  0.00    -0.154 S 
ENDBRANCH   3   4
ENDBRANCH   2   3
ENDBRANCH   1   2
BRANCH   1  15
ATOM     15  C   UNL     1      10.493   0.583  24.562  0.00  0.00    +0.096 C 
BRANCH  15  16
ATOM     16  C   UNL     1       9.962  -0.567  23.730  0.00  0.00    +0.217 C 
ATOM     17  N   UNL     1       8.802  -1.141  24.232  0.00  0.00    -0.285 N 
ATOM     18  H   UNL     1       8.271  -0.596  24.898  0.00  0.00    +0.155 HD
ATOM     19  O   UNL     1      10.554  -0.915  22.712  0.00  0.00    -0.275 OA
BRANCH  17  20
ATOM     20  C   UNL     1       8.169  -2.266  23.660  0.00  0.00    +0.034 A 
ATOM     21  C   UNL     1       7.198  -2.055  22.674  0.00  0.00    +0.030 A 
ATOM     22  C   UNL     1       6.622  -3.147  22.006  0.00  0.00    +0.086 A 
ATOM     23  C   UNL     1       6.997  -4.449  22.360  0.00  0.00    +0.273 A 
ATOM     24  C   UNL     1       7.909  -4.667  23.397  0.00  0.00    +0.086 A 
ATOM     25  C   UNL     1       8.484  -3.573  24.043  0.00  0.00    +0.030 A 
BRANCH  23  26
ATOM     26  N   UNL     1       6.448  -5.597  21.629  0.00  0.00    +0.080 N 
ATOM     27  O   UNL     1       6.538  -6.714  22.160  0.00  0.00    +0.041 OA
ATOM     28  O   UNL     1       5.922  -5.384  20.527  0.00  0.00    -0.576 OA
ENDBRANCH  23  26
ENDBRANCH  17  20
ENDBRANCH  15  16
ENDBRANCH   1  15
TORSDOF 7
ENDMDL
MODEL 8
REMARK VINA RESULT:      -6.4      2.785      7.762
REMARK  Name = 
REMARK  7 active torsions:
REMARK  status: ('A' for Active; 'I' for Inactive)
REMARK    1  A    between atoms: C_2  and  C_3
REMARK    2  A    between atoms: C_3  and  C_4
REMARK    3  A    between atoms: C_4  and  C_5
REMARK    4  A    between atoms: C_5  and  C_6
REMARK    5  A    between atoms: C_6  and  C_7
REMARK    6  A    between atoms: N_9  and  C_10
REMARK    7  A    between atoms: C_13  and  N_16
REMARK                            x       y       z     vdW  Elec       q    Type
REMARK                         _______ _______ _______ _____ _____    ______ ____
ROOT
ATOM      1  C   UNL     1       9.073   0.147  21.117  0.00  0.00    +0.009 C 
ENDROOT
BRANCH   1   2
ATOM      2  C   UNL     1       8.503   1.273  21.989  0.00  0.00    +0.002 C 
BRANCH   2   3
ATOM      3  C   UNL     1       9.591   2.278  22.379  0.00  0.00    +0.016 C 
BRANCH   3   4
ATOM      4  C   UNL     1       9.678   2.563  23.893  0.00  0.00    +0.069 C 
ATOM      5  C   UNL     1       9.201   3.969  24.346  0.00  0.00    +0.108 C 
ATOM      6  C   UNL     1       7.755   3.868  24.844  0.00  0.00    +0.105 C 
ATOM      7  N   UNL     1       6.998   4.107  23.637  0.00  0.00    -0.294 N 
ATOM      8  H   UNL     1       5.989   4.143  23.564  0.00  0.00    +0.151 HD
ATOM      9  C   UNL     1       7.750   4.903  22.782  0.00  0.00    +0.300 C 
ATOM     10  O   UNL     1       7.347   5.472  21.787  0.00  0.00    -0.253 OA
ATOM     11  C   UNL     1       7.530   2.553  25.555  0.00  0.00    +0.093 C 
ATOM     12  N   UNL     1       9.051   4.923  23.268  0.00  0.00    -0.294 N 
ATOM     13  H   UNL     1       9.791   5.346  22.724  0.00  0.00    +0.151 HD
ATOM     14  S   UNL     1       8.688   1.358  24.855  0.00  0.00    -0.154 S 
ENDBRANCH   3   4
ENDBRANCH   2   3
ENDBRANCH   1   2
BRANCH   1  15
ATOM     15  C   UNL     1       9.894  -0.855  21.924  0.00  0.00    +0.096 C 
BRANCH  15  16
ATOM     16  C   UNL     1       9.017  -1.801  22.719  0.00  0.00    +0.217 C 
ATOM     17  N   UNL     1       9.499  -2.089  23.987  0.00  0.00    -0.285 N 
ATOM     18  H   UNL     1      10.191  -1.459  24.371  0.00  0.00    +0.155 HD
ATOM     19  O   UNL     1       7.982  -2.241  22.226  0.00  0.00    -0.275 OA
BRANCH  17  20
ATOM     20  C   UNL     1       8.884  -2.997  24.877  0.00  0.00    +0.034 A 
ATOM     21  C   UNL     1       8.003  -2.491  25.841  0.00  0.00    +0.030 A 
ATOM     22  C   UNL     1       7.290  -3.368  26.673  0.00  0.00    +0.086 A 
ATOM     23  C   UNL     1       7.494  -4.749  26.559  0.00  0.00    +0.273 A 
ATOM     24  C   UNL     1       8.428  -5.254  25.651  0.00  0.00    +0.086 A 
ATOM     25  C   UNL     1       9.120  -4.373  24.819  0.00  0.00    +0.030 A 
BRANCH  23  26
ATOM     26  N   UNL     1       6.710  -5.678  27.381  0.00  0.00    +0.080 N 
ATOM     27  O   UNL     1       6.013  -6.518  26.793  0.00  0.00    +0.041 OA
ATOM     28  O   UNL     1       6.794  -5.574  28.613  0.00  0.00    -0.576 OA
ENDBRANCH  23  26
ENDBRANCH  17  20
ENDBRANCH  15  16
ENDBRANCH   1  15
TORSDOF 7
ENDMDL
MODEL 9
REMARK VINA RESULT:      -6.2      3.049      8.251
REMARK  Name = 
REMARK  7 active torsions:
REMARK  status: ('A' for Active; 'I' for Inactive)
REMARK    1  A    between atoms: C_2  and  C_3
REMARK    2  A    between atoms: C_3  and  C_4
REMARK    3  A    between atoms: C_4  and  C_5
REMARK    4  A    between atoms: C_5  and  C_6
REMARK    5  A    between atoms: C_6  and  C_7
REMARK    6  A    between atoms: N_9  and  C_10
REMARK    7  A    between atoms: C_13  and  N_16
REMARK                            x       y       z     vdW  Elec       q    Type
REMARK                         _______ _______ _______ _____ _____    ______ ____
ROOT
ATOM      1  C   UNL     1       9.968  -0.458  24.566  0.00  0.00    +0.009 C 
ENDROOT
BRANCH   1   2
ATOM      2  C   UNL     1      10.914   0.745  24.460  0.00  0.00    +0.002 C 
BRANCH   2   3
ATOM      3  C   UNL     1      10.226   1.931  23.775  0.00  0.00    +0.016 C 
BRANCH   3   4
ATOM      4  C   UNL     1       8.687   1.827  23.721  0.00  0.00    +0.069 C 
ATOM      5  C   UNL     1       7.906   3.052  24.267  0.00  0.00    +0.108 C 
ATOM      6  C   UNL     1       7.496   3.946  23.092  0.00  0.00    +0.105 C 
ATOM      7  N   UNL     1       8.625   4.840  22.978  0.00  0.00    -0.294 N 
ATOM      8  H   UNL     1       8.719   5.601  22.317  0.00  0.00    +0.151 HD
ATOM      9  C   UNL     1       9.225   4.971  24.224  0.00  0.00    +0.300 C 
ATOM     10  O   UNL     1      10.054   5.801  24.541  0.00  0.00    -0.253 OA
ATOM     11  C   UNL     1       7.151   3.107  21.883  0.00  0.00    +0.093 C 
ATOM     12  N   UNL     1       8.709   3.974  25.042  0.00  0.00    -0.294 N 
ATOM     13  H   UNL     1       9.103   3.813  25.960  0.00  0.00    +0.151 HD
ATOM     14  S   UNL     1       8.096   1.573  22.005  0.00  0.00    -0.154 S 
ENDBRANCH   3   4
ENDBRANCH   2   3
ENDBRANCH   1   2
BRANCH   1  15
ATOM     15  C   UNL     1      10.256  -1.520  23.508  0.00  0.00    +0.096 C 
BRANCH  15  16
ATOM     16  C   UNL     1       9.443  -2.779  23.730  0.00  0.00    +0.217 C 
ATOM     17  N   UNL     1       8.173  -2.739  23.171  0.00  0.00    -0.285 N 
ATOM     18  H   UNL     1       8.008  -2.046  22.454  0.00  0.00    +0.155 HD
ATOM     19  O   UNL     1       9.922  -3.718  24.360  0.00  0.00    -0.275 OA
BRANCH  17  20
ATOM     20  C   UNL     1       7.218  -3.770  23.310  0.00  0.00    +0.034 A 
ATOM     21  C   UNL     1       6.553  -3.904  24.535  0.00  0.00    +0.030 A 
ATOM     22  C   UNL     1       5.523  -4.845  24.679  0.00  0.00    +0.086 A 
ATOM     23  C   UNL     1       5.191  -5.677  23.602  0.00  0.00    +0.273 A 
ATOM     24  C   UNL     1       5.903  -5.601  22.402  0.00  0.00    +0.086 A 
ATOM     25  C   UNL     1       6.916  -4.650  22.267  0.00  0.00    +0.030 A 
BRANCH  23  26
ATOM     26  N   UNL     1       4.076  -6.624  23.721  0.00  0.00    +0.080 N 
ATOM     27  O   UNL     1       4.207  -7.569  24.512  0.00  0.00    +0.041 OA
ATOM     28  O   UNL     1       3.068  -6.421  23.029  0.00  0.00    -0.576 OA
ENDBRANCH  23  26
ENDBRANCH  17  20
ENDBRANCH  15  16
ENDBRANCH   1  15
TORSDOF 7
ENDMDL
